MODEL 1
REMARK VINA RESULT:     -10.0      0.000      0.000
REMARK  5 active torsions:
REMARK  status: ('A' for Active; 'I' for Inactive)
REMARK    1  A    between atoms: O_2  and  C_3 
REMARK    2  A    between atoms: C_4  and  O_5 
REMARK    3  A    between atoms: C_8  and  C_9 
REMARK    4  A    between atoms: C_13  and  C_14 
REMARK       I    between atoms: C_14  and  N_15 
REMARK    5  A    between atoms: N_15  and  N_16 
ROOT
HETATM    1  C   UNL     1      41.923 -14.703   2.056  1.00  0.00     0.069 A 
HETATM    2  N   UNL     1      42.438 -15.936   1.851  1.00  0.00    -0.248 NA
HETATM    3  C   UNL     1      43.057 -16.579   2.853  1.00  0.00     0.068 A 
HETATM    4  C   UNL     1      43.234 -16.024   4.139  1.00  0.00     0.009 A 
HETATM    5  C   UNL     1      42.797 -14.684   4.296  1.00  0.00     0.048 A 
HETATM    6  C   UNL     1      42.121 -14.039   3.252  1.00  0.00     0.050 A 
HETATM    7  C   UNL     1      43.514 -17.863   2.595  1.00  0.00     0.032 A 
HETATM    8  C   UNL     1      44.115 -18.648   3.579  1.00  0.00     0.002 A 
HETATM    9  C   UNL     1      44.240 -18.149   4.865  1.00  0.00     0.001 A 
HETATM   10  C   UNL     1      43.795 -16.858   5.146  1.00  0.00     0.015 A 
ENDROOT
BRANCH   5  11
HETATM   11  C   UNL     1      42.987 -13.853   5.524  1.00  0.00     0.271 C 
HETATM   12  N   UNL     1      43.402 -12.550   5.341  1.00  0.00    -0.252 N 
HETATM   13  H   UNL     1      43.254 -12.092   4.445  1.00  0.00     0.191 HD
HETATM   14  O   UNL     1      42.686 -14.324   6.618  1.00  0.00    -0.266 OA
BRANCH  12  15
HETATM   15  N   UNL     1      43.360 -11.697   6.439  1.00  0.00    -0.167 N 
HETATM   16  C   UNL     1      42.251 -10.949   6.730  1.00  0.00     0.345 C 
HETATM   17  O   UNL     1      41.168 -10.983   6.169  1.00  0.00    -0.245 OA
HETATM   18  N   UNL     1      42.590 -10.068   7.737  1.00  0.00    -0.323 N 
HETATM   19  C   UNL     1      43.940 -10.299   8.225  1.00  0.00     0.117 C 
HETATM   20  H   UNL     1      41.896  -9.461   8.158  1.00  0.00     0.165 HD
HETATM   21  C   UNL     1      43.904 -11.100   9.536  1.00  0.00     0.041 C 
HETATM   22  C   UNL     1      44.754  -9.014   8.360  1.00  0.00     0.041 C 
HETATM   23  C   UNL     1      44.469 -11.200   7.085  1.00  0.00     0.275 C 
HETATM   24  C   UNL     1      43.442 -10.241  10.712  1.00  0.00     0.003 C 
HETATM   25  C   UNL     1      44.287  -8.977  10.847  1.00  0.00     0.000 C 
HETATM   26  C   UNL     1      44.311  -8.169   9.554  1.00  0.00     0.003 C 
HETATM   27  O   UNL     1      45.649 -11.410   6.841  1.00  0.00    -0.268 OA
ENDBRANCH  12  15
ENDBRANCH   5  11
BRANCH   1  28
HETATM   28  C   UNL     1      41.119 -14.151   0.946  1.00  0.00    -0.004 A 
HETATM   29  C   UNL     1      41.251 -12.800   0.558  1.00  0.00     0.053 A 
HETATM   30  C   UNL     1      40.539 -12.266  -0.528  1.00  0.00     0.102 A 
HETATM   31  C   UNL     1      39.699 -13.113  -1.264  1.00  0.00     0.101 A 
HETATM   32  C   UNL     1      39.523 -14.440  -0.876  1.00  0.00     0.040 A 
HETATM   33  C   UNL     1      40.231 -14.955   0.211  1.00  0.00     0.017 A 
BRANCH  30  34
HETATM   34  O   UNL     1      40.607 -10.956  -0.926  1.00  0.00    -0.353 OA
HETATM   35  C   UNL     1      41.409 -10.076  -0.152  1.00  0.00     0.210 C 
ENDBRANCH  30  34
BRANCH  31  36
HETATM   36  O   UNL     1      38.960 -12.725  -2.354  1.00  0.00    -0.353 OA
HETATM   37  C   UNL     1      37.590 -13.115  -2.267  1.00  0.00     0.210 C 
ENDBRANCH  31  36
ENDBRANCH   1  28
TORSDOF 5
ENDMDL
MODEL 2
REMARK VINA RESULT:      -9.7      2.332      5.895
REMARK  5 active torsions:
REMARK  status: ('A' for Active; 'I' for Inactive)
REMARK    1  A    between atoms: O_2  and  C_3 
REMARK    2  A    between atoms: C_4  and  O_5 
REMARK    3  A    between atoms: C_8  and  C_9 
REMARK    4  A    between atoms: C_13  and  C_14 
REMARK       I    between atoms: C_14  and  N_15 
REMARK    5  A    between atoms: N_15  and  N_16 
ROOT
HETATM    1  C   UNL     1      42.691 -14.988   3.456  1.00  0.00     0.069 A 
HETATM    2  N   UNL     1      42.108 -14.887   2.241  1.00  0.00    -0.248 NA
HETATM    3  C   UNL     1      41.761 -13.682   1.762  1.00  0.00     0.068 A 
HETATM    4  C   UNL     1      41.947 -12.480   2.477  1.00  0.00     0.009 A 
HETATM    5  C   UNL     1      42.446 -12.621   3.798  1.00  0.00     0.048 A 
HETATM    6  C   UNL     1      42.836 -13.881   4.271  1.00  0.00     0.050 A 
HETATM    7  C   UNL     1      41.218 -13.641   0.487  1.00  0.00     0.032 A 
HETATM    8  C   UNL     1      40.881 -12.439  -0.136  1.00  0.00     0.002 A 
HETATM    9  C   UNL     1      41.115 -11.243   0.520  1.00  0.00     0.001 A 
HETATM   10  C   UNL     1      41.653 -11.260   1.807  1.00  0.00     0.015 A 
ENDROOT
BRANCH   5  11
HETATM   11  C   UNL     1      42.612 -11.507   4.780  1.00  0.00     0.271 C 
HETATM   12  N   UNL     1      42.146 -11.726   6.061  1.00  0.00    -0.252 N 
HETATM   13  H   UNL     1      42.022 -12.678   6.399  1.00  0.00     0.191 HD
HETATM   14  O   UNL     1      43.223 -10.497   4.443  1.00  0.00    -0.266 OA
BRANCH  12  15
HETATM   15  N   UNL     1      42.496 -10.806   7.044  1.00  0.00    -0.167 N 
HETATM   16  C   UNL     1      43.597 -10.981   7.837  1.00  0.00     0.345 C 
HETATM   17  O   UNL     1      44.440 -11.859   7.749  1.00  0.00    -0.245 OA
HETATM   18  N   UNL     1      43.557 -10.023   8.831  1.00  0.00    -0.323 N 
HETATM   19  C   UNL     1      42.452  -9.096   8.643  1.00  0.00     0.117 C 
HETATM   20  H   UNL     1      44.316  -9.925   9.495  1.00  0.00     0.165 HD
HETATM   21  C   UNL     1      42.954  -7.790   8.010  1.00  0.00     0.041 C 
HETATM   22  C   UNL     1      41.657  -8.847   9.923  1.00  0.00     0.041 C 
HETATM   23  C   UNL     1      41.631  -9.891   7.601  1.00  0.00     0.275 C 
HETATM   24  C   UNL     1      43.726  -6.934   9.015  1.00  0.00     0.003 C 
HETATM   25  C   UNL     1      42.904  -6.671  10.273  1.00  0.00     0.000 C 
HETATM   26  C   UNL     1      42.418  -7.967  10.915  1.00  0.00     0.003 C 
HETATM   27  O   UNL     1      40.449  -9.709   7.345  1.00  0.00    -0.268 OA
ENDBRANCH  12  15
ENDBRANCH   5  11
BRANCH   1  28
HETATM   28  C   UNL     1      43.185 -16.332   3.820  1.00  0.00    -0.004 A 
HETATM   29  C   UNL     1      43.396 -17.318   2.832  1.00  0.00     0.053 A 
HETATM   30  C   UNL     1      43.918 -18.584   3.144  1.00  0.00     0.102 A 
HETATM   31  C   UNL     1      44.267 -18.859   4.473  1.00  0.00     0.101 A 
HETATM   32  C   UNL     1      44.032 -17.915   5.472  1.00  0.00     0.040 A 
HETATM   33  C   UNL     1      43.505 -16.664   5.148  1.00  0.00     0.017 A 
BRANCH  30  34
HETATM   34  O   UNL     1      44.112 -19.585   2.229  1.00  0.00    -0.353 OA
HETATM   35  C   UNL     1      42.972 -20.322   1.810  1.00  0.00     0.210 C 
ENDBRANCH  30  34
BRANCH  31  36
HETATM   36  O   UNL     1      44.799 -20.046   4.911  1.00  0.00    -0.353 OA
HETATM   37  C   UNL     1      43.812 -20.950   5.409  1.00  0.00     0.210 C 
ENDBRANCH  31  36
ENDBRANCH   1  28
TORSDOF 5
ENDMDL
MODEL 3
REMARK VINA RESULT:      -9.4      2.722      6.270
REMARK  5 active torsions:
REMARK  status: ('A' for Active; 'I' for Inactive)
REMARK    1  A    between atoms: O_2  and  C_3 
REMARK    2  A    between atoms: C_4  and  O_5 
REMARK    3  A    between atoms: C_8  and  C_9 
REMARK    4  A    between atoms: C_13  and  C_14 
REMARK       I    between atoms: C_14  and  N_15 
REMARK    5  A    between atoms: N_15  and  N_16 
ROOT
HETATM    1  C   UNL     1      41.495 -15.367   2.755  1.00  0.00     0.069 A 
HETATM    2  N   UNL     1      40.988 -15.491   1.508  1.00  0.00    -0.248 NA
HETATM    3  C   UNL     1      40.312 -14.473   0.955  1.00  0.00     0.068 A 
HETATM    4  C   UNL     1      40.064 -13.253   1.620  1.00  0.00     0.009 A 
HETATM    5  C   UNL     1      40.496 -13.190   2.970  1.00  0.00     0.048 A 
HETATM    6  C   UNL     1      41.231 -14.247   3.522  1.00  0.00     0.050 A 
HETATM    7  C   UNL     1      39.865 -14.643  -0.348  1.00  0.00     0.032 A 
HETATM    8  C   UNL     1      39.208 -13.628  -1.044  1.00  0.00     0.002 A 
HETATM    9  C   UNL     1      39.011 -12.401  -0.434  1.00  0.00     0.001 A 
HETATM   10  C   UNL     1      39.444 -12.210   0.878  1.00  0.00     0.015 A 
ENDROOT
BRANCH   5  11
HETATM   11  C   UNL     1      40.239 -12.054   3.905  1.00  0.00     0.271 C 
HETATM   12  N   UNL     1      40.284 -12.330   5.257  1.00  0.00    -0.252 N 
HETATM   13  H   UNL     1      40.790 -13.148   5.589  1.00  0.00     0.191 HD
HETATM   14  O   UNL     1      40.091 -10.923   3.448  1.00  0.00    -0.266 OA
BRANCH  12  15
HETATM   15  N   UNL     1      40.282 -11.255   6.139  1.00  0.00    -0.167 N 
HETATM   16  C   UNL     1      41.441 -10.743   6.655  1.00  0.00     0.345 C 
HETATM   17  O   UNL     1      42.584 -11.063   6.369  1.00  0.00    -0.245 OA
HETATM   18  N   UNL     1      41.100  -9.836   7.639  1.00  0.00    -0.323 N 
HETATM   19  C   UNL     1      39.660  -9.642   7.717  1.00  0.00     0.117 C 
HETATM   20  H   UNL     1      41.806  -9.283   8.110  1.00  0.00     0.165 HD
HETATM   21  C   UNL     1      39.257  -8.347   6.995  1.00  0.00     0.041 C 
HETATM   22  C   UNL     1      39.129  -9.692   9.148  1.00  0.00     0.041 C 
HETATM   23  C   UNL     1      39.196 -10.861   6.887  1.00  0.00     0.275 C 
HETATM   24  C   UNL     1      39.641  -7.106   7.801  1.00  0.00     0.003 C 
HETATM   25  C   UNL     1      39.075  -7.162   9.217  1.00  0.00     0.000 C 
HETATM   26  C   UNL     1      39.489  -8.438   9.945  1.00  0.00     0.003 C 
HETATM   27  O   UNL     1      38.074 -11.346   6.913  1.00  0.00    -0.268 OA
ENDBRANCH  12  15
ENDBRANCH   5  11
BRANCH   1  28
HETATM   28  C   UNL     1      42.363 -16.474   3.208  1.00  0.00    -0.004 A 
HETATM   29  C   UNL     1      42.730 -16.597   4.566  1.00  0.00     0.053 A 
HETATM   30  C   UNL     1      43.507 -17.669   5.031  1.00  0.00     0.102 A 
HETATM   31  C   UNL     1      43.900 -18.660   4.122  1.00  0.00     0.101 A 
HETATM   32  C   UNL     1      43.583 -18.540   2.769  1.00  0.00     0.040 A 
HETATM   33  C   UNL     1      42.816 -17.464   2.320  1.00  0.00     0.017 A 
BRANCH  30  34
HETATM   34  O   UNL     1      43.916 -17.819   6.331  1.00  0.00    -0.353 OA
HETATM   35  C   UNL     1      43.553 -16.803   7.255  1.00  0.00     0.210 C 
ENDBRANCH  30  34
BRANCH  31  36
HETATM   36  O   UNL     1      44.647 -19.766   4.445  1.00  0.00    -0.353 OA
HETATM   37  C   UNL     1      43.929 -20.989   4.291  1.00  0.00     0.210 C 
ENDBRANCH  31  36
ENDBRANCH   1  28
TORSDOF 5
ENDMDL
MODEL 4
REMARK VINA RESULT:      -9.2      2.073      8.541
REMARK  5 active torsions:
REMARK  status: ('A' for Active; 'I' for Inactive)
REMARK    1  A    between atoms: O_2  and  C_3 
REMARK    2  A    between atoms: C_4  and  O_5 
REMARK    3  A    between atoms: C_8  and  C_9 
REMARK    4  A    between atoms: C_13  and  C_14 
REMARK       I    between atoms: C_14  and  N_15 
REMARK    5  A    between atoms: N_15  and  N_16 
ROOT
HETATM    1  C   UNL     1      43.470 -13.338   5.831  1.00  0.00     0.069 A 
HETATM    2  N   UNL     1      43.753 -14.501   6.460  1.00  0.00    -0.248 NA
HETATM    3  C   UNL     1      43.624 -15.665   5.805  1.00  0.00     0.068 A 
HETATM    4  C   UNL     1      43.174 -15.760   4.470  1.00  0.00     0.009 A 
HETATM    5  C   UNL     1      42.767 -14.540   3.871  1.00  0.00     0.048 A 
HETATM    6  C   UNL     1      42.940 -13.330   4.554  1.00  0.00     0.050 A 
HETATM    7  C   UNL     1      43.981 -16.819   6.487  1.00  0.00     0.032 A 
HETATM    8  C   UNL     1      43.949 -18.077   5.885  1.00  0.00     0.002 A 
HETATM    9  C   UNL     1      43.574 -18.186   4.557  1.00  0.00     0.001 A 
HETATM   10  C   UNL     1      43.202 -17.041   3.853  1.00  0.00     0.015 A 
ENDROOT
BRANCH   5  11
HETATM   11  C   UNL     1      42.148 -14.409   2.517  1.00  0.00     0.271 C 
HETATM   12  N   UNL     1      40.811 -14.070   2.469  1.00  0.00    -0.252 N 
HETATM   13  H   UNL     1      40.377 -13.609   3.264  1.00  0.00     0.191 HD
HETATM   14  O   UNL     1      42.858 -14.517   1.521  1.00  0.00    -0.266 OA
BRANCH  12  15
HETATM   15  N   UNL     1      40.277 -13.715   1.234  1.00  0.00    -0.167 N 
HETATM   16  C   UNL     1      39.861 -14.655   0.331  1.00  0.00     0.345 C 
HETATM   17  O   UNL     1      39.807 -15.864   0.493  1.00  0.00    -0.245 OA
HETATM   18  N   UNL     1      39.580 -14.006  -0.855  1.00  0.00    -0.323 N 
HETATM   19  C   UNL     1      39.701 -12.563  -0.720  1.00  0.00     0.117 C 
HETATM   20  H   UNL     1      39.188 -14.504  -1.645  1.00  0.00     0.165 HD
HETATM   21  C   UNL     1      38.314 -11.925  -0.549  1.00  0.00     0.041 C 
HETATM   22  C   UNL     1      40.492 -11.922  -1.859  1.00  0.00     0.041 C 
HETATM   23  C   UNL     1      40.467 -12.498   0.621  1.00  0.00     0.275 C 
HETATM   24  C   UNL     1      37.532 -11.909  -1.863  1.00  0.00     0.003 C 
HETATM   25  C   UNL     1      38.327 -11.239  -2.979  1.00  0.00     0.000 C 
HETATM   26  C   UNL     1      39.698 -11.881  -3.165  1.00  0.00     0.003 C 
HETATM   27  O   UNL     1      41.101 -11.533   1.027  1.00  0.00    -0.268 OA
ENDBRANCH  12  15
ENDBRANCH   5  11
BRANCH   1  28
HETATM   28  C   UNL     1      43.803 -12.108   6.579  1.00  0.00    -0.004 A 
HETATM   29  C   UNL     1      42.833 -11.104   6.789  1.00  0.00     0.053 A 
HETATM   30  C   UNL     1      43.106  -9.952   7.543  1.00  0.00     0.102 A 
HETATM   31  C   UNL     1      44.372  -9.816   8.130  1.00  0.00     0.101 A 
HETATM   32  C   UNL     1      45.358 -10.776   7.905  1.00  0.00     0.040 A 
HETATM   33  C   UNL     1      45.074 -11.912   7.146  1.00  0.00     0.017 A 
BRANCH  30  34
HETATM   34  O   UNL     1      42.212  -8.934   7.750  1.00  0.00    -0.353 OA
HETATM   35  C   UNL     1      41.238  -9.113   8.768  1.00  0.00     0.210 C 
ENDBRANCH  30  34
BRANCH  31  36
HETATM   36  O   UNL     1      44.766  -8.751   8.901  1.00  0.00    -0.353 OA
HETATM   37  C   UNL     1      44.703  -9.021  10.300  1.00  0.00     0.210 C 
ENDBRANCH  31  36
ENDBRANCH   1  28
TORSDOF 5
ENDMDL
MODEL 5
REMARK VINA RESULT:      -8.7      3.701      6.873
REMARK  5 active torsions:
REMARK  status: ('A' for Active; 'I' for Inactive)
REMARK    1  A    between atoms: O_2  and  C_3 
REMARK    2  A    between atoms: C_4  and  O_5 
REMARK    3  A    between atoms: C_8  and  C_9 
REMARK    4  A    between atoms: C_13  and  C_14 
REMARK       I    between atoms: C_14  and  N_15 
REMARK    5  A    between atoms: N_15  and  N_16 
ROOT
HETATM    1  C   UNL     1      42.266 -11.771   5.199  1.00  0.00     0.069 A 
HETATM    2  N   UNL     1      41.700 -11.119   4.159  1.00  0.00    -0.248 NA
HETATM    3  C   UNL     1      41.408  -9.814   4.267  1.00  0.00     0.068 A 
HETATM    4  C   UNL     1      41.635  -9.061   5.438  1.00  0.00     0.009 A 
HETATM    5  C   UNL     1      42.114  -9.791   6.556  1.00  0.00     0.048 A 
HETATM    6  C   UNL     1      42.448 -11.145   6.419  1.00  0.00     0.050 A 
HETATM    7  C   UNL     1      40.879  -9.189   3.146  1.00  0.00     0.032 A 
HETATM    8  C   UNL     1      40.597  -7.823   3.122  1.00  0.00     0.002 A 
HETATM    9  C   UNL     1      40.874  -7.052   4.239  1.00  0.00     0.001 A 
HETATM   10  C   UNL     1      41.397  -7.659   5.380  1.00  0.00     0.015 A 
ENDROOT
BRANCH   5  11
HETATM   11  C   UNL     1      42.315  -9.236   7.928  1.00  0.00     0.271 C 
HETATM   12  N   UNL     1      41.615  -9.834   8.956  1.00  0.00    -0.252 N 
HETATM   13  H   UNL     1      41.268 -10.784   8.846  1.00  0.00     0.191 HD
HETATM   14  O   UNL     1      43.145  -8.346   8.099  1.00  0.00    -0.266 OA
BRANCH  12  15
HETATM   15  N   UNL     1      41.959  -9.492  10.259  1.00  0.00    -0.167 N 
HETATM   16  C   UNL     1      42.932 -10.164  10.949  1.00  0.00     0.345 C 
HETATM   17  O   UNL     1      43.665 -11.043  10.525  1.00  0.00    -0.245 OA
HETATM   18  N   UNL     1      42.895  -9.732  12.260  1.00  0.00    -0.323 N 
HETATM   19  C   UNL     1      41.941  -8.649  12.443  1.00  0.00     0.117 C 
HETATM   20  H   UNL     1      43.579 -10.050  12.936  1.00  0.00     0.165 HD
HETATM   21  C   UNL     1      42.669  -7.297  12.477  1.00  0.00     0.041 C 
HETATM   22  C   UNL     1      41.041  -8.847  13.661  1.00  0.00     0.041 C 
HETATM   23  C   UNL     1      41.155  -8.778  11.119  1.00  0.00     0.275 C 
HETATM   24  C   UNL     1      43.419  -7.089  13.793  1.00  0.00     0.003 C 
HETATM   25  C   UNL     1      42.496  -7.262  14.995  1.00  0.00     0.000 C 
HETATM   26  C   UNL     1      41.784  -8.612  14.976  1.00  0.00     0.003 C 
HETATM   27  O   UNL     1      40.041  -8.317  10.910  1.00  0.00    -0.268 OA
ENDBRANCH  12  15
ENDBRANCH   5  11
BRANCH   1  28
HETATM   28  C   UNL     1      42.702 -13.157   4.927  1.00  0.00    -0.004 A 
HETATM   29  C   UNL     1      43.219 -13.969   5.959  1.00  0.00     0.053 A 
HETATM   30  C   UNL     1      43.589 -15.306   5.738  1.00  0.00     0.102 A 
HETATM   31  C   UNL     1      43.406 -15.852   4.461  1.00  0.00     0.101 A 
HETATM   32  C   UNL     1      42.933 -15.058   3.416  1.00  0.00     0.040 A 
HETATM   33  C   UNL     1      42.577 -13.729   3.649  1.00  0.00     0.017 A 
BRANCH  30  34
HETATM   34  O   UNL     1      44.124 -16.126   6.696  1.00  0.00    -0.353 OA
HETATM   35  C   UNL     1      43.370 -16.330   7.882  1.00  0.00     0.210 C 
ENDBRANCH  30  34
BRANCH  31  36
HETATM   36  O   UNL     1      43.710 -17.145   4.113  1.00  0.00    -0.353 OA
HETATM   37  C   UNL     1      43.331 -17.468   2.776  1.00  0.00     0.210 C 
ENDBRANCH  31  36
ENDBRANCH   1  28
TORSDOF 5
ENDMDL
MODEL 6
REMARK VINA RESULT:      -8.6      3.014      5.688
REMARK  5 active torsions:
REMARK  status: ('A' for Active; 'I' for Inactive)
REMARK    1  A    between atoms: O_2  and  C_3 
REMARK    2  A    between atoms: C_4  and  O_5 
REMARK    3  A    between atoms: C_8  and  C_9 
REMARK    4  A    between atoms: C_13  and  C_14 
REMARK       I    between atoms: C_14  and  N_15 
REMARK    5  A    between atoms: N_15  and  N_16 
ROOT
HETATM    1  C   UNL     1      41.195 -14.379   3.570  1.00  0.00     0.069 A 
HETATM    2  N   UNL     1      40.422 -14.080   2.501  1.00  0.00    -0.248 NA
HETATM    3  C   UNL     1      39.735 -12.928   2.473  1.00  0.00     0.068 A 
HETATM    4  C   UNL     1      39.745 -11.991   3.528  1.00  0.00     0.009 A 
HETATM    5  C   UNL     1      40.463 -12.380   4.688  1.00  0.00     0.048 A 
HETATM    6  C   UNL     1      41.204 -13.569   4.690  1.00  0.00     0.050 A 
HETATM    7  C   UNL     1      39.004 -12.656   1.326  1.00  0.00     0.032 A 
HETATM    8  C   UNL     1      38.303 -11.461   1.160  1.00  0.00     0.002 A 
HETATM    9  C   UNL     1      38.353 -10.499   2.155  1.00  0.00     0.001 A 
HETATM   10  C   UNL     1      39.074 -10.754   3.321  1.00  0.00     0.015 A 
ENDROOT
BRANCH   5  11
HETATM   11  C   UNL     1      40.516 -11.610   5.968  1.00  0.00     0.271 C 
HETATM   12  N   UNL     1      41.512 -10.662   6.089  1.00  0.00    -0.252 N 
HETATM   13  H   UNL     1      41.949 -10.277   5.255  1.00  0.00     0.191 HD
HETATM   14  O   UNL     1      39.637 -11.783   6.808  1.00  0.00    -0.266 OA
BRANCH  12  15
HETATM   15  N   UNL     1      41.440  -9.780   7.161  1.00  0.00    -0.167 N 
HETATM   16  C   UNL     1      40.672  -8.648   7.114  1.00  0.00     0.345 C 
HETATM   17  O   UNL     1      39.908  -8.309   6.225  1.00  0.00    -0.245 OA
HETATM   18  N   UNL     1      40.968  -7.890   8.230  1.00  0.00    -0.323 N 
HETATM   19  C   UNL     1      41.886  -8.581   9.123  1.00  0.00     0.117 C 
HETATM   20  H   UNL     1      40.462  -7.037   8.434  1.00  0.00     0.165 HD
HETATM   21  C   UNL     1      41.117  -9.211  10.294  1.00  0.00     0.041 C 
HETATM   22  C   UNL     1      43.035  -7.695   9.599  1.00  0.00     0.041 C 
HETATM   23  C   UNL     1      42.374  -9.695   8.169  1.00  0.00     0.275 C 
HETATM   24  C   UNL     1      40.658  -8.157  11.302  1.00  0.00     0.003 C 
HETATM   25  C   UNL     1      41.826  -7.303  11.788  1.00  0.00     0.000 C 
HETATM   26  C   UNL     1      42.581  -6.661  10.629  1.00  0.00     0.003 C 
HETATM   27  O   UNL     1      43.394 -10.355   8.317  1.00  0.00    -0.268 OA
ENDBRANCH  12  15
ENDBRANCH   5  11
BRANCH   1  28
HETATM   28  C   UNL     1      42.039 -15.584   3.434  1.00  0.00    -0.004 A 
HETATM   29  C   UNL     1      42.497 -16.280   4.573  1.00  0.00     0.053 A 
HETATM   30  C   UNL     1      43.253 -17.458   4.471  1.00  0.00     0.102 A 
HETATM   31  C   UNL     1      43.531 -17.971   3.197  1.00  0.00     0.101 A 
HETATM   32  C   UNL     1      43.124 -17.280   2.056  1.00  0.00     0.040 A 
HETATM   33  C   UNL     1      42.379 -16.105   2.173  1.00  0.00     0.017 A 
BRANCH  30  34
HETATM   34  O   UNL     1      43.747 -18.154   5.544  1.00  0.00    -0.353 OA
HETATM   35  C   UNL     1      43.381 -17.706   6.841  1.00  0.00     0.210 C 
ENDBRANCH  30  34
BRANCH  31  36
HETATM   36  O   UNL     1      44.246 -19.118   2.955  1.00  0.00    -0.353 OA
HETATM   37  C   UNL     1      43.464 -20.144   2.345  1.00  0.00     0.210 C 
ENDBRANCH  31  36
ENDBRANCH   1  28
TORSDOF 5
ENDMDL
MODEL 7
REMARK VINA RESULT:      -8.6      2.495      8.924
REMARK  5 active torsions:
REMARK  status: ('A' for Active; 'I' for Inactive)
REMARK    1  A    between atoms: O_2  and  C_3 
REMARK    2  A    between atoms: C_4  and  O_5 
REMARK    3  A    between atoms: C_8  and  C_9 
REMARK    4  A    between atoms: C_13  and  C_14 
REMARK       I    between atoms: C_14  and  N_15 
REMARK    5  A    between atoms: N_15  and  N_16 
ROOT
HETATM    1  C   UNL     1      43.094 -12.686   5.056  1.00  0.00     0.069 A 
HETATM    2  N   UNL     1      43.321 -14.008   5.230  1.00  0.00    -0.248 NA
HETATM    3  C   UNL     1      43.006 -14.875   4.256  1.00  0.00     0.068 A 
HETATM    4  C   UNL     1      42.411 -14.490   3.035  1.00  0.00     0.009 A 
HETATM    5  C   UNL     1      42.070 -13.118   2.923  1.00  0.00     0.048 A 
HETATM    6  C   UNL     1      42.436 -12.218   3.933  1.00  0.00     0.050 A 
HETATM    7  C   UNL     1      43.313 -16.210   4.473  1.00  0.00     0.032 A 
HETATM    8  C   UNL     1      43.090 -17.190   3.505  1.00  0.00     0.002 A 
HETATM    9  C   UNL     1      42.568 -16.825   2.276  1.00  0.00     0.001 A 
HETATM   10  C   UNL     1      42.243 -15.490   2.037  1.00  0.00     0.015 A 
ENDROOT
BRANCH   5  11
HETATM   11  C   UNL     1      41.329 -12.503   1.780  1.00  0.00     0.271 C 
HETATM   12  N   UNL     1      40.071 -13.001   1.508  1.00  0.00    -0.252 N 
HETATM   13  H   UNL     1      39.554 -13.495   2.231  1.00  0.00     0.191 HD
HETATM   14  O   UNL     1      41.819 -11.540   1.197  1.00  0.00    -0.266 OA
BRANCH  12  15
HETATM   15  N   UNL     1      39.276 -12.297   0.610  1.00  0.00    -0.167 N 
HETATM   16  C   UNL     1      38.215 -11.539   1.026  1.00  0.00     0.345 C 
HETATM   17  O   UNL     1      37.883 -11.300   2.176  1.00  0.00    -0.245 OA
HETATM   18  N   UNL     1      37.515 -11.142  -0.095  1.00  0.00    -0.323 N 
HETATM   19  C   UNL     1      38.184 -11.549  -1.321  1.00  0.00     0.117 C 
HETATM   20  H   UNL     1      36.725 -10.511  -0.024  1.00  0.00     0.165 HD
HETATM   21  C   UNL     1      38.959 -10.368  -1.924  1.00  0.00     0.041 C 
HETATM   22  C   UNL     1      37.236 -12.191  -2.333  1.00  0.00     0.041 C 
HETATM   23  C   UNL     1      39.181 -12.575  -0.735  1.00  0.00     0.275 C 
HETATM   24  C   UNL     1      38.023  -9.347  -2.571  1.00  0.00     0.003 C 
HETATM   25  C   UNL     1      37.106 -10.003  -3.599  1.00  0.00     0.000 C 
HETATM   26  C   UNL     1      36.320 -11.165  -3.001  1.00  0.00     0.003 C 
HETATM   27  O   UNL     1      39.758 -13.444  -1.374  1.00  0.00    -0.268 OA
ENDBRANCH  12  15
ENDBRANCH   5  11
BRANCH   1  28
HETATM   28  C   UNL     1      43.627 -11.800   6.111  1.00  0.00    -0.004 A 
HETATM   29  C   UNL     1      42.814 -10.809   6.703  1.00  0.00     0.053 A 
HETATM   30  C   UNL     1      43.278  -9.992   7.746  1.00  0.00     0.102 A 
HETATM   31  C   UNL     1      44.577 -10.193   8.231  1.00  0.00     0.101 A 
HETATM   32  C   UNL     1      45.412 -11.139   7.637  1.00  0.00     0.040 A 
HETATM   33  C   UNL     1      44.939 -11.939   6.595  1.00  0.00     0.017 A 
BRANCH  30  34
HETATM   34  O   UNL     1      42.541  -8.996   8.332  1.00  0.00    -0.353 OA
HETATM   35  C   UNL     1      42.444  -7.758   7.643  1.00  0.00     0.210 C 
ENDBRANCH  30  34
BRANCH  31  36
HETATM   36  O   UNL     1      45.150  -9.476   9.252  1.00  0.00    -0.353 OA
HETATM   37  C   UNL     1      44.981 -10.092  10.529  1.00  0.00     0.210 C 
ENDBRANCH  31  36
ENDBRANCH   1  28
TORSDOF 5
ENDMDL
MODEL 8
REMARK VINA RESULT:      -8.5      3.863      6.574
REMARK  5 active torsions:
REMARK  status: ('A' for Active; 'I' for Inactive)
REMARK    1  A    between atoms: O_2  and  C_3 
REMARK    2  A    between atoms: C_4  and  O_5 
REMARK    3  A    between atoms: C_8  and  C_9 
REMARK    4  A    between atoms: C_13  and  C_14 
REMARK       I    between atoms: C_14  and  N_15 
REMARK    5  A    between atoms: N_15  and  N_16 
ROOT
HETATM    1  C   UNL     1      42.422 -11.838   5.664  1.00  0.00     0.069 A 
HETATM    2  N   UNL     1      43.771 -11.888   5.734  1.00  0.00    -0.248 NA
HETATM    3  C   UNL     1      44.427 -11.095   6.597  1.00  0.00     0.068 A 
HETATM    4  C   UNL     1      43.782 -10.167   7.442  1.00  0.00     0.009 A 
HETATM    5  C   UNL     1      42.380 -10.044   7.264  1.00  0.00     0.048 A 
HETATM    6  C   UNL     1      41.706 -10.901   6.386  1.00  0.00     0.050 A 
HETATM    7  C   UNL     1      45.806 -11.233   6.660  1.00  0.00     0.032 A 
HETATM    8  C   UNL     1      46.582 -10.508   7.564  1.00  0.00     0.002 A 
HETATM    9  C   UNL     1      45.965  -9.640   8.448  1.00  0.00     0.001 A 
HETATM   10  C   UNL     1      44.580  -9.478   8.397  1.00  0.00     0.015 A 
ENDROOT
BRANCH   5  11
HETATM   11  C   UNL     1      41.508  -9.048   7.957  1.00  0.00     0.271 C 
HETATM   12  N   UNL     1      41.146  -9.329   9.259  1.00  0.00    -0.252 N 
HETATM   13  H   UNL     1      41.706  -9.974   9.812  1.00  0.00     0.191 HD
HETATM   14  O   UNL     1      41.226  -7.998   7.385  1.00  0.00    -0.266 OA
BRANCH  12  15
HETATM   15  N   UNL     1      40.537  -8.318   9.995  1.00  0.00    -0.167 N 
HETATM   16  C   UNL     1      41.214  -7.613  10.952  1.00  0.00     0.345 C 
HETATM   17  O   UNL     1      42.401  -7.689  11.225  1.00  0.00    -0.245 OA
HETATM   18  N   UNL     1      40.297  -6.839  11.634  1.00  0.00    -0.323 N 
HETATM   19  C   UNL     1      38.969  -6.935  11.048  1.00  0.00     0.117 C 
HETATM   20  H   UNL     1      40.592  -6.181  12.346  1.00  0.00     0.165 HD
HETATM   21  C   UNL     1      38.688  -5.711  10.162  1.00  0.00     0.041 C 
HETATM   22  C   UNL     1      37.872  -7.156  12.088  1.00  0.00     0.041 C 
HETATM   23  C   UNL     1      39.177  -8.180  10.156  1.00  0.00     0.275 C 
HETATM   24  C   UNL     1      38.416  -4.459  10.996  1.00  0.00     0.003 C 
HETATM   25  C   UNL     1      37.298  -4.692  12.007  1.00  0.00     0.000 C 
HETATM   26  C   UNL     1      37.582  -5.895  12.901  1.00  0.00     0.003 C 
HETATM   27  O   UNL     1      38.282  -8.877   9.697  1.00  0.00    -0.268 OA
ENDBRANCH  12  15
ENDBRANCH   5  11
BRANCH   1  28
HETATM   28  C   UNL     1      41.786 -12.862   4.809  1.00  0.00    -0.004 A 
HETATM   29  C   UNL     1      42.277 -14.186   4.779  1.00  0.00     0.053 A 
HETATM   30  C   UNL     1      41.659 -15.191   4.019  1.00  0.00     0.102 A 
HETATM   31  C   UNL     1      40.500 -14.872   3.297  1.00  0.00     0.101 A 
HETATM   32  C   UNL     1      40.019 -13.563   3.281  1.00  0.00     0.040 A 
HETATM   33  C   UNL     1      40.650 -12.573   4.035  1.00  0.00     0.017 A 
BRANCH  30  34
HETATM   34  O   UNL     1      42.112 -16.481   3.931  1.00  0.00    -0.353 OA
HETATM   35  C   UNL     1      43.171 -16.744   3.021  1.00  0.00     0.210 C 
ENDBRANCH  30  34
BRANCH  31  36
HETATM   36  O   UNL     1      39.790 -15.760   2.527  1.00  0.00    -0.353 OA
HETATM   37  C   UNL     1      40.013 -15.588   1.129  1.00  0.00     0.210 C 
ENDBRANCH  31  36
ENDBRANCH   1  28
TORSDOF 5
ENDMDL
MODEL 9
REMARK VINA RESULT:      -8.5      3.390     10.506
REMARK  5 active torsions:
REMARK  status: ('A' for Active; 'I' for Inactive)
REMARK    1  A    between atoms: O_2  and  C_3 
REMARK    2  A    between atoms: C_4  and  O_5 
REMARK    3  A    between atoms: C_8  and  C_9 
REMARK    4  A    between atoms: C_13  and  C_14 
REMARK       I    between atoms: C_14  and  N_15 
REMARK    5  A    between atoms: N_15  and  N_16 
ROOT
HETATM    1  C   UNL     1      41.946  -8.338   8.950  1.00  0.00     0.069 A 
HETATM    2  N   UNL     1      42.035  -7.108   8.396  1.00  0.00    -0.248 NA
HETATM    3  C   UNL     1      41.855  -6.955   7.075  1.00  0.00     0.068 A 
HETATM    4  C   UNL     1      41.597  -8.028   6.196  1.00  0.00     0.009 A 
HETATM    5  C   UNL     1      41.630  -9.321   6.779  1.00  0.00     0.048 A 
HETATM    6  C   UNL     1      41.784  -9.463   8.164  1.00  0.00     0.050 A 
HETATM    7  C   UNL     1      41.905  -5.661   6.576  1.00  0.00     0.032 A 
HETATM    8  C   UNL     1      41.669  -5.376   5.230  1.00  0.00     0.002 A 
HETATM    9  C   UNL     1      41.350  -6.407   4.363  1.00  0.00     0.001 A 
HETATM   10  C   UNL     1      41.302  -7.716   4.840  1.00  0.00     0.015 A 
ENDROOT
BRANCH   5  11
HETATM   11  C   UNL     1      41.505 -10.608   6.030  1.00  0.00     0.271 C 
HETATM   12  N   UNL     1      42.655 -11.116   5.459  1.00  0.00    -0.252 N 
HETATM   13  H   UNL     1      43.565 -10.828   5.810  1.00  0.00     0.191 HD
HETATM   14  O   UNL     1      40.428 -11.198   6.028  1.00  0.00    -0.266 OA
BRANCH  12  15
HETATM   15  N   UNL     1      42.613 -12.415   4.964  1.00  0.00    -0.167 N 
HETATM   16  C   UNL     1      43.114 -13.474   5.671  1.00  0.00     0.345 C 
HETATM   17  O   UNL     1      43.558 -13.460   6.808  1.00  0.00    -0.245 OA
HETATM   18  N   UNL     1      43.112 -14.576   4.839  1.00  0.00    -0.323 N 
HETATM   19  C   UNL     1      42.483 -14.284   3.560  1.00  0.00     0.117 C 
HETATM   20  H   UNL     1      43.380 -15.491   5.181  1.00  0.00     0.165 HD
HETATM   21  C   UNL     1      41.041 -14.813   3.542  1.00  0.00     0.041 C 
HETATM   22  C   UNL     1      43.295 -14.787   2.368  1.00  0.00     0.041 C 
HETATM   23  C   UNL     1      42.465 -12.740   3.634  1.00  0.00     0.275 C 
HETATM   24  C   UNL     1      40.997 -16.335   3.411  1.00  0.00     0.003 C 
HETATM   25  C   UNL     1      41.789 -16.815   2.197  1.00  0.00     0.000 C 
HETATM   26  C   UNL     1      43.227 -16.307   2.221  1.00  0.00     0.003 C 
HETATM   27  O   UNL     1      42.337 -11.988   2.678  1.00  0.00    -0.268 OA
ENDBRANCH  12  15
ENDBRANCH   5  11
BRANCH   1  28
HETATM   28  C   UNL     1      41.992  -8.380  10.427  1.00  0.00    -0.004 A 
HETATM   29  C   UNL     1      40.933  -8.948  11.168  1.00  0.00     0.053 A 
HETATM   30  C   UNL     1      40.977  -9.051  12.568  1.00  0.00     0.102 A 
HETATM   31  C   UNL     1      42.122  -8.603  13.240  1.00  0.00     0.101 A 
HETATM   32  C   UNL     1      43.164  -8.003  12.533  1.00  0.00     0.040 A 
HETATM   33  C   UNL     1      43.103  -7.901  11.143  1.00  0.00     0.017 A 
BRANCH  30  34
HETATM   34  O   UNL     1      39.964  -9.564  13.336  1.00  0.00    -0.353 OA
HETATM   35  C   UNL     1      39.518 -10.879  13.040  1.00  0.00     0.210 C 
ENDBRANCH  30  34
BRANCH  31  36
HETATM   36  O   UNL     1      42.301  -8.658  14.600  1.00  0.00    -0.353 OA
HETATM   37  C   UNL     1      42.285  -7.372  15.217  1.00  0.00     0.210 C 
ENDBRANCH  31  36
ENDBRANCH   1  28
TORSDOF 5
ENDMDL
MODEL 10
REMARK VINA RESULT:      -8.4      3.653      6.497
REMARK  5 active torsions:
REMARK  status: ('A' for Active; 'I' for Inactive)
REMARK    1  A    between atoms: O_2  and  C_3 
REMARK    2  A    between atoms: C_4  and  O_5 
REMARK    3  A    between atoms: C_8  and  C_9 
REMARK    4  A    between atoms: C_13  and  C_14 
REMARK       I    between atoms: C_14  and  N_15 
REMARK    5  A    between atoms: N_15  and  N_16 
ROOT
HETATM    1  C   UNL     1      40.715 -13.994   5.029  1.00  0.00     0.069 A 
HETATM    2  N   UNL     1      40.196 -13.750   3.804  1.00  0.00    -0.248 NA
HETATM    3  C   UNL     1      39.544 -12.601   3.570  1.00  0.00     0.068 A 
HETATM    4  C   UNL     1      39.336 -11.611   4.554  1.00  0.00     0.009 A 
HETATM    5  C   UNL     1      39.781 -11.940   5.860  1.00  0.00     0.048 A 
HETATM    6  C   UNL     1      40.490 -13.128   6.082  1.00  0.00     0.050 A 
HETATM    7  C   UNL     1      39.083 -12.387   2.279  1.00  0.00     0.032 A 
HETATM    8  C   UNL     1      38.450 -11.202   1.905  1.00  0.00     0.002 A 
HETATM    9  C   UNL     1      38.293 -10.190   2.837  1.00  0.00     0.001 A 
HETATM   10  C   UNL     1      38.741 -10.386   4.143  1.00  0.00     0.015 A 
ENDROOT
BRANCH   5  11
HETATM   11  C   UNL     1      39.564 -11.106   7.080  1.00  0.00     0.271 C 
HETATM   12  N   UNL     1      40.505 -10.133   7.351  1.00  0.00    -0.252 N 
HETATM   13  H   UNL     1      41.099  -9.782   6.604  1.00  0.00     0.191 HD
HETATM   14  O   UNL     1      38.533 -11.253   7.732  1.00  0.00    -0.266 OA
BRANCH  12  15
HETATM   15  N   UNL     1      40.206  -9.199   8.337  1.00  0.00    -0.167 N 
HETATM   16  C   UNL     1      39.356  -8.152   8.106  1.00  0.00     0.345 C 
HETATM   17  O   UNL     1      38.697  -7.942   7.101  1.00  0.00    -0.245 OA
HETATM   18  N   UNL     1      39.426  -7.304   9.193  1.00  0.00    -0.323 N 
HETATM   19  C   UNL     1      40.267  -7.848  10.248  1.00  0.00     0.117 C 
HETATM   20  H   UNL     1      38.824  -6.493   9.265  1.00  0.00     0.165 HD
HETATM   21  C   UNL     1      39.400  -8.478  11.349  1.00  0.00     0.041 C 
HETATM   22  C   UNL     1      41.257  -6.828  10.808  1.00  0.00     0.041 C 
HETATM   23  C   UNL     1      40.980  -8.965   9.451  1.00  0.00     0.275 C 
HETATM   24  C   UNL     1      38.715  -7.415  12.208  1.00  0.00     0.003 C 
HETATM   25  C   UNL     1      39.724  -6.425  12.782  1.00  0.00     0.000 C 
HETATM   26  C   UNL     1      40.574  -5.783  11.691  1.00  0.00     0.003 C 
HETATM   27  O   UNL     1      42.023  -9.513   9.782  1.00  0.00    -0.268 OA
ENDBRANCH  12  15
ENDBRANCH   5  11
BRANCH   1  28
HETATM   28  C   UNL     1      41.554 -15.205   5.140  1.00  0.00    -0.004 A 
HETATM   29  C   UNL     1      42.205 -15.741   4.007  1.00  0.00     0.053 A 
HETATM   30  C   UNL     1      43.052 -16.857   4.096  1.00  0.00     0.102 A 
HETATM   31  C   UNL     1      43.279 -17.432   5.354  1.00  0.00     0.101 A 
HETATM   32  C   UNL     1      42.618 -16.944   6.480  1.00  0.00     0.040 A 
HETATM   33  C   UNL     1      41.772 -15.839   6.375  1.00  0.00     0.017 A 
BRANCH  30  34
HETATM   34  O   UNL     1      43.682 -17.435   3.024  1.00  0.00    -0.353 OA
HETATM   35  C   UNL     1      42.989 -18.462   2.331  1.00  0.00     0.210 C 
ENDBRANCH  30  34
BRANCH  31  36
HETATM   36  O   UNL     1      44.093 -18.513   5.583  1.00  0.00    -0.353 OA
HETATM   37  C   UNL     1      43.424 -19.585   6.247  1.00  0.00     0.210 C 
ENDBRANCH  31  36
ENDBRANCH   1  28
TORSDOF 5
ENDMDL
