MODEL 1
REMARK VINA RESULT:      -9.8      0.000      0.000
REMARK  7 active torsions:
REMARK  status: ('A' for Active; 'I' for Inactive)
REMARK    1  A    between atoms: C_2  and  C_3 
REMARK    2  A    between atoms: C_6  and  C_7 
REMARK       I    between atoms: C_7  and  N_8 
REMARK    3  A    between atoms: N_8  and  C_9 
REMARK    4  A    between atoms: C_9  and  C_10 
REMARK    5  A    between atoms: N_19  and  C_20 
REMARK    6  A    between atoms: C_20  and  C_21 
REMARK    7  A    between atoms: C_21  and  C_22 
ROOT
HETATM    1  C   UNL     1      41.927 -11.467   4.943  1.00  0.00     0.249 C 
HETATM    2  C   UNL     1      43.257 -11.880   4.282  1.00  0.00     0.266 C 
HETATM    3  O   UNL     1      44.176 -11.159   3.933  1.00  0.00    -0.270 OA
HETATM    4  N   UNL     1      43.227 -13.264   4.114  1.00  0.00    -0.310 N 
HETATM    5  C   UNL     1      42.134 -13.804   4.703  1.00  0.00     0.129 C 
HETATM    6  C   UNL     1      41.397 -12.834   5.242  1.00  0.00     0.101 C 
HETATM    7  N   UNL     1      41.774 -15.122   4.744  1.00  0.00    -0.284 N 
HETATM    8  C   UNL     1      40.653 -15.522   5.475  1.00  0.00     0.331 C 
HETATM    9  O   UNL     1      40.269 -16.685   5.570  1.00  0.00    -0.246 OA
HETATM   10  N   UNL     1      39.945 -14.509   6.082  1.00  0.00    -0.275 N 
HETATM   11  C   UNL     1      40.176 -13.166   5.950  1.00  0.00     0.262 C 
HETATM   12  O   UNL     1      39.427 -12.299   6.378  1.00  0.00    -0.267 OA
HETATM   13  H   UNL     1      44.001 -13.771   3.710  1.00  0.00     0.170 HD
HETATM   14  H   UNL     1      39.105 -14.786   6.568  1.00  0.00     0.173 HD
ENDROOT
BRANCH   1  15
HETATM   15  N   UNL     1      42.040 -10.613   6.137  1.00  0.00    -0.327 N 
HETATM   16  C   UNL     1      42.901 -10.875   7.176  1.00  0.00     0.253 C 
HETATM   17  O   UNL     1      43.714 -11.791   7.147  1.00  0.00    -0.268 OA
HETATM   18  H   UNL     1      41.189 -10.115   6.381  1.00  0.00     0.164 HD
BRANCH  16  19
HETATM   19  C   UNL     1      42.743 -10.010   8.385  1.00  0.00     0.032 A 
HETATM   20  C   UNL     1      41.677  -9.116   8.522  1.00  0.00     0.017 A 
HETATM   21  C   UNL     1      41.538  -8.357   9.691  1.00  0.00     0.009 A 
HETATM   22  C   UNL     1      42.458  -8.459  10.751  1.00  0.00    -0.051 A 
HETATM   23  C   UNL     1      43.545  -9.331  10.576  1.00  0.00     0.009 A 
HETATM   24  C   UNL     1      43.689 -10.096   9.408  1.00  0.00     0.017 A 
BRANCH  22  25
HETATM   25  C   UNL     1      42.257  -7.619  12.027  1.00  0.00    -0.024 C 
HETATM   26  C   UNL     1      40.904  -7.966  12.688  1.00  0.00     0.019 C 
HETATM   27  C   UNL     1      42.268  -6.122  11.658  1.00  0.00     0.019 C 
HETATM   28  C   UNL     1      43.348  -7.843  13.098  1.00  0.00     0.019 C 
ENDBRANCH  22  25
ENDBRANCH  16  19
ENDBRANCH   1  15
BRANCH   1  29
HETATM   29  C   UNL     1      41.134 -10.800   3.807  1.00  0.00     0.426 C 
HETATM   30  F   UNL     1      39.899 -10.434   4.233  1.00  0.00    -0.167 F 
HETATM   31  F   UNL     1      41.728  -9.668   3.365  1.00  0.00    -0.167 F 
HETATM   32  F   UNL     1      40.956 -11.612   2.739  1.00  0.00    -0.167 F 
ENDBRANCH   1  29
BRANCH   7  33
HETATM   33  C   UNL     1      42.470 -16.126   3.941  1.00  0.00     0.140 C 
BRANCH  33  34
HETATM   34  C   UNL     1      43.650 -16.777   4.664  1.00  0.00     0.059 C 
BRANCH  34  35
HETATM   35  C   UNL     1      43.784 -18.223   4.246  1.00  0.00    -0.057 A 
HETATM   36  C   UNL     1      43.623 -18.595   2.904  1.00  0.00     0.007 A 
HETATM   37  C   UNL     1      43.676 -19.939   2.532  1.00  0.00     0.001 A 
HETATM   38  C   UNL     1      43.894 -20.922   3.494  1.00  0.00     0.000 A 
HETATM   39  C   UNL     1      44.061 -20.563   4.830  1.00  0.00     0.001 A 
HETATM   40  C   UNL     1      44.004 -19.220   5.207  1.00  0.00     0.007 A 
ENDBRANCH  34  35
ENDBRANCH  33  34
ENDBRANCH   7  33
TORSDOF 7
ENDMDL
MODEL 2
REMARK VINA RESULT:      -9.1      1.723      9.438
REMARK  7 active torsions:
REMARK  status: ('A' for Active; 'I' for Inactive)
REMARK    1  A    between atoms: C_2  and  C_3 
REMARK    2  A    between atoms: C_6  and  C_7 
REMARK       I    between atoms: C_7  and  N_8 
REMARK    3  A    between atoms: N_8  and  C_9 
REMARK    4  A    between atoms: C_9  and  C_10 
REMARK    5  A    between atoms: N_19  and  C_20 
REMARK    6  A    between atoms: C_20  and  C_21 
REMARK    7  A    between atoms: C_21  and  C_22 
ROOT
HETATM    1  C   UNL     1      42.597 -11.705   5.270  1.00  0.00     0.249 C 
HETATM    2  C   UNL     1      41.582 -11.455   6.404  1.00  0.00     0.266 C 
HETATM    3  O   UNL     1      40.404 -11.769   6.437  1.00  0.00    -0.270 OA
HETATM    4  N   UNL     1      42.247 -10.758   7.412  1.00  0.00    -0.310 N 
HETATM    5  C   UNL     1      43.571 -10.658   7.145  1.00  0.00     0.129 C 
HETATM    6  C   UNL     1      43.831 -11.233   5.973  1.00  0.00     0.101 C 
HETATM    7  N   UNL     1      44.530 -10.046   7.904  1.00  0.00    -0.284 N 
HETATM    8  C   UNL     1      45.873 -10.111   7.524  1.00  0.00     0.331 C 
HETATM    9  O   UNL     1      46.794  -9.598   8.155  1.00  0.00    -0.246 OA
HETATM   10  N   UNL     1      46.127 -10.772   6.343  1.00  0.00    -0.275 N 
HETATM   11  C   UNL     1      45.192 -11.270   5.476  1.00  0.00     0.262 C 
HETATM   12  O   UNL     1      45.457 -11.707   4.364  1.00  0.00    -0.267 OA
HETATM   13  H   UNL     1      41.787 -10.492   8.270  1.00  0.00     0.170 HD
HETATM   14  H   UNL     1      47.088 -10.777   6.037  1.00  0.00     0.173 HD
ENDROOT
BRANCH   1  15
HETATM   15  N   UNL     1      42.696 -13.093   4.790  1.00  0.00    -0.327 N 
HETATM   16  C   UNL     1      42.844 -14.175   5.626  1.00  0.00     0.253 C 
HETATM   17  O   UNL     1      42.810 -14.077   6.846  1.00  0.00    -0.268 OA
HETATM   18  H   UNL     1      43.100 -13.191   3.863  1.00  0.00     0.164 HD
BRANCH  16  19
HETATM   19  C   UNL     1      43.119 -15.481   4.956  1.00  0.00     0.032 A 
HETATM   20  C   UNL     1      43.837 -16.502   5.587  1.00  0.00     0.017 A 
HETATM   21  C   UNL     1      44.033 -17.730   4.944  1.00  0.00     0.009 A 
HETATM   22  C   UNL     1      43.529 -17.976   3.653  1.00  0.00    -0.051 A 
HETATM   23  C   UNL     1      42.847 -16.924   3.019  1.00  0.00     0.009 A 
HETATM   24  C   UNL     1      42.646 -15.691   3.660  1.00  0.00     0.017 A 
BRANCH  22  25
HETATM   25  C   UNL     1      43.752 -19.348   2.988  1.00  0.00    -0.024 C 
HETATM   26  C   UNL     1      43.957 -20.437   4.066  1.00  0.00     0.019 C 
HETATM   27  C   UNL     1      45.007 -19.283   2.094  1.00  0.00     0.019 C 
HETATM   28  C   UNL     1      42.573 -19.811   2.103  1.00  0.00     0.019 C 
ENDBRANCH  22  25
ENDBRANCH  16  19
ENDBRANCH   1  15
BRANCH   1  29
HETATM   29  C   UNL     1      42.177 -10.722   4.165  1.00  0.00     0.426 C 
HETATM   30  F   UNL     1      40.896 -10.948   3.781  1.00  0.00    -0.167 F 
HETATM   31  F   UNL     1      42.220  -9.435   4.582  1.00  0.00    -0.167 F 
HETATM   32  F   UNL     1      42.944 -10.817   3.054  1.00  0.00    -0.167 F 
ENDBRANCH   1  29
BRANCH   7  33
HETATM   33  C   UNL     1      44.176  -9.219   9.055  1.00  0.00     0.140 C 
BRANCH  33  34
HETATM   34  C   UNL     1      44.599  -9.822  10.396  1.00  0.00     0.059 C 
BRANCH  34  35
HETATM   35  C   UNL     1      43.641  -9.397  11.485  1.00  0.00    -0.057 A 
HETATM   36  C   UNL     1      43.639  -8.077  11.957  1.00  0.00     0.007 A 
HETATM   37  C   UNL     1      42.804  -7.705  13.012  1.00  0.00     0.001 A 
HETATM   38  C   UNL     1      41.961  -8.645  13.601  1.00  0.00     0.000 A 
HETATM   39  C   UNL     1      41.951  -9.957  13.135  1.00  0.00     0.001 A 
HETATM   40  C   UNL     1      42.788 -10.334  12.083  1.00  0.00     0.007 A 
ENDBRANCH  34  35
ENDBRANCH  33  34
ENDBRANCH   7  33
TORSDOF 7
ENDMDL
MODEL 3
REMARK VINA RESULT:      -9.0      2.484      4.037
REMARK  7 active torsions:
REMARK  status: ('A' for Active; 'I' for Inactive)
REMARK    1  A    between atoms: C_2  and  C_3 
REMARK    2  A    between atoms: C_6  and  C_7 
REMARK       I    between atoms: C_7  and  N_8 
REMARK    3  A    between atoms: N_8  and  C_9 
REMARK    4  A    between atoms: C_9  and  C_10 
REMARK    5  A    between atoms: N_19  and  C_20 
REMARK    6  A    between atoms: C_20  and  C_21 
REMARK    7  A    between atoms: C_21  and  C_22 
ROOT
HETATM    1  C   UNL     1      41.576 -12.575   5.706  1.00  0.00     0.249 C 
HETATM    2  C   UNL     1      40.278 -13.401   5.613  1.00  0.00     0.266 C 
HETATM    3  O   UNL     1      39.688 -13.974   6.514  1.00  0.00    -0.270 OA
HETATM    4  N   UNL     1      39.886 -13.413   4.275  1.00  0.00    -0.310 N 
HETATM    5  C   UNL     1      40.667 -12.595   3.530  1.00  0.00     0.129 C 
HETATM    6  C   UNL     1      41.601 -12.048   4.306  1.00  0.00     0.101 C 
HETATM    7  N   UNL     1      40.579 -12.354   2.187  1.00  0.00    -0.284 N 
HETATM    8  C   UNL     1      41.413 -11.407   1.588  1.00  0.00     0.331 C 
HETATM    9  O   UNL     1      41.390 -11.125   0.392  1.00  0.00    -0.246 OA
HETATM   10  N   UNL     1      42.325 -10.802   2.423  1.00  0.00    -0.275 N 
HETATM   11  C   UNL     1      42.553 -11.114   3.736  1.00  0.00     0.262 C 
HETATM   12  O   UNL     1      43.480 -10.662   4.395  1.00  0.00    -0.267 OA
HETATM   13  H   UNL     1      39.048 -13.884   3.968  1.00  0.00     0.170 HD
HETATM   14  H   UNL     1      42.965 -10.156   1.986  1.00  0.00     0.173 HD
ENDROOT
BRANCH   1  15
HETATM   15  N   UNL     1      41.593 -11.515   6.728  1.00  0.00    -0.327 N 
HETATM   16  C   UNL     1      40.623 -10.546   6.829  1.00  0.00     0.253 C 
HETATM   17  O   UNL     1      39.614 -10.545   6.134  1.00  0.00    -0.268 OA
HETATM   18  H   UNL     1      42.521 -11.248   7.042  1.00  0.00     0.164 HD
BRANCH  16  19
HETATM   19  C   UNL     1      40.903  -9.445   7.799  1.00  0.00     0.032 A 
HETATM   20  C   UNL     1      39.920  -8.528   8.183  1.00  0.00     0.017 A 
HETATM   21  C   UNL     1      40.209  -7.538   9.131  1.00  0.00     0.009 A 
HETATM   22  C   UNL     1      41.483  -7.427   9.717  1.00  0.00    -0.051 A 
HETATM   23  C   UNL     1      42.469  -8.331   9.287  1.00  0.00     0.009 A 
HETATM   24  C   UNL     1      42.185  -9.326   8.338  1.00  0.00     0.017 A 
BRANCH  22  25
HETATM   25  C   UNL     1      41.754  -6.335  10.770  1.00  0.00    -0.024 C 
HETATM   26  C   UNL     1      42.411  -6.954  12.025  1.00  0.00     0.019 C 
HETATM   27  C   UNL     1      40.420  -5.675  11.174  1.00  0.00     0.019 C 
HETATM   28  C   UNL     1      42.698  -5.215  10.277  1.00  0.00     0.019 C 
ENDBRANCH  22  25
ENDBRANCH  16  19
ENDBRANCH   1  15
BRANCH   1  29
HETATM   29  C   UNL     1      42.677 -13.627   5.922  1.00  0.00     0.426 C 
HETATM   30  F   UNL     1      43.834 -13.039   6.315  1.00  0.00    -0.167 F 
HETATM   31  F   UNL     1      42.357 -14.510   6.896  1.00  0.00    -0.167 F 
HETATM   32  F   UNL     1      42.957 -14.336   4.804  1.00  0.00    -0.167 F 
ENDBRANCH   1  29
BRANCH   7  33
HETATM   33  C   UNL     1      39.705 -13.150   1.327  1.00  0.00     0.140 C 
BRANCH  33  34
HETATM   34  C   UNL     1      40.461 -14.117   0.414  1.00  0.00     0.059 C 
BRANCH  34  35
HETATM   35  C   UNL     1      41.318 -15.050   1.238  1.00  0.00    -0.057 A 
HETATM   36  C   UNL     1      42.716 -14.970   1.182  1.00  0.00     0.007 A 
HETATM   37  C   UNL     1      43.505 -15.880   1.889  1.00  0.00     0.001 A 
HETATM   38  C   UNL     1      42.905 -16.875   2.658  1.00  0.00     0.000 A 
HETATM   39  C   UNL     1      41.517 -16.959   2.725  1.00  0.00     0.001 A 
HETATM   40  C   UNL     1      40.724 -16.054   2.017  1.00  0.00     0.007 A 
ENDBRANCH  34  35
ENDBRANCH  33  34
ENDBRANCH   7  33
TORSDOF 7
ENDMDL
MODEL 4
REMARK VINA RESULT:      -8.8      3.425     10.391
REMARK  7 active torsions:
REMARK  status: ('A' for Active; 'I' for Inactive)
REMARK    1  A    between atoms: C_2  and  C_3 
REMARK    2  A    between atoms: C_6  and  C_7 
REMARK       I    between atoms: C_7  and  N_8 
REMARK    3  A    between atoms: N_8  and  C_9 
REMARK    4  A    between atoms: C_9  and  C_10 
REMARK    5  A    between atoms: N_19  and  C_20 
REMARK    6  A    between atoms: C_20  and  C_21 
REMARK    7  A    between atoms: C_21  and  C_22 
ROOT
HETATM    1  C   UNL     1      43.553  -9.030   8.582  1.00  0.00     0.249 C 
HETATM    2  C   UNL     1      42.700  -7.795   8.232  1.00  0.00     0.266 C 
HETATM    3  O   UNL     1      42.695  -7.158   7.192  1.00  0.00    -0.270 OA
HETATM    4  N   UNL     1      41.926  -7.492   9.351  1.00  0.00    -0.310 N 
HETATM    5  C   UNL     1      42.057  -8.442  10.308  1.00  0.00     0.129 C 
HETATM    6  C   UNL     1      42.921  -9.368   9.896  1.00  0.00     0.101 C 
HETATM    7  N   UNL     1      41.452  -8.480  11.533  1.00  0.00    -0.284 N 
HETATM    8  C   UNL     1      41.630  -9.585  12.370  1.00  0.00     0.331 C 
HETATM    9  O   UNL     1      41.114  -9.701  13.479  1.00  0.00    -0.246 OA
HETATM   10  N   UNL     1      42.472 -10.564  11.893  1.00  0.00    -0.275 N 
HETATM   11  C   UNL     1      43.216 -10.505  10.745  1.00  0.00     0.262 C 
HETATM   12  O   UNL     1      44.070 -11.327  10.442  1.00  0.00    -0.267 OA
HETATM   13  H   UNL     1      41.270  -6.724   9.356  1.00  0.00     0.170 HD
HETATM   14  H   UNL     1      42.646 -11.339  12.514  1.00  0.00     0.173 HD
ENDROOT
BRANCH   1  15
HETATM   15  N   UNL     1      43.510 -10.138   7.613  1.00  0.00    -0.327 N 
HETATM   16  C   UNL     1      42.349 -10.590   7.032  1.00  0.00     0.253 C 
HETATM   17  O   UNL     1      41.267 -10.042   7.203  1.00  0.00    -0.268 OA
HETATM   18  H   UNL     1      44.246 -10.828   7.729  1.00  0.00     0.164 HD
BRANCH  16  19
HETATM   19  C   UNL     1      42.471 -11.840   6.224  1.00  0.00     0.032 A 
HETATM   20  C   UNL     1      43.438 -12.811   6.502  1.00  0.00     0.017 A 
HETATM   21  C   UNL     1      43.491 -13.992   5.751  1.00  0.00     0.009 A 
HETATM   22  C   UNL     1      42.590 -14.238   4.698  1.00  0.00    -0.051 A 
HETATM   23  C   UNL     1      41.653 -13.232   4.406  1.00  0.00     0.009 A 
HETATM   24  C   UNL     1      41.595 -12.047   5.157  1.00  0.00     0.017 A 
BRANCH  22  25
HETATM   25  C   UNL     1      42.670 -15.558   3.908  1.00  0.00    -0.024 C 
HETATM   26  C   UNL     1      43.313 -15.313   2.523  1.00  0.00     0.019 C 
HETATM   27  C   UNL     1      41.248 -16.121   3.711  1.00  0.00     0.019 C 
HETATM   28  C   UNL     1      43.512 -16.651   4.604  1.00  0.00     0.019 C 
ENDBRANCH  22  25
ENDBRANCH  16  19
ENDBRANCH   1  15
BRANCH   1  29
HETATM   29  C   UNL     1      44.970  -8.466   8.778  1.00  0.00     0.426 C 
HETATM   30  F   UNL     1      45.749  -8.735   7.700  1.00  0.00    -0.167 F 
HETATM   31  F   UNL     1      44.970  -7.119   8.912  1.00  0.00    -0.167 F 
HETATM   32  F   UNL     1      45.601  -8.984   9.857  1.00  0.00    -0.167 F 
ENDBRANCH   1  29
BRANCH   7  33
HETATM   33  C   UNL     1      40.706  -7.335  12.049  1.00  0.00     0.140 C 
BRANCH  33  34
HETATM   34  C   UNL     1      41.573  -6.333  12.813  1.00  0.00     0.059 C 
BRANCH  34  35
HETATM   35  C   UNL     1      41.320  -6.451  14.298  1.00  0.00    -0.057 A 
HETATM   36  C   UNL     1      40.051  -6.179  14.829  1.00  0.00     0.007 A 
HETATM   37  C   UNL     1      39.839  -6.218  16.209  1.00  0.00     0.001 A 
HETATM   38  C   UNL     1      40.889  -6.532  17.068  1.00  0.00     0.000 A 
HETATM   39  C   UNL     1      42.152  -6.810  16.551  1.00  0.00     0.001 A 
HETATM   40  C   UNL     1      42.370  -6.767  15.172  1.00  0.00     0.007 A 
ENDBRANCH  34  35
ENDBRANCH  33  34
ENDBRANCH   7  33
TORSDOF 7
ENDMDL
MODEL 5
REMARK VINA RESULT:      -8.6      6.093      8.255
REMARK  7 active torsions:
REMARK  status: ('A' for Active; 'I' for Inactive)
REMARK    1  A    between atoms: C_2  and  C_3 
REMARK    2  A    between atoms: C_6  and  C_7 
REMARK       I    between atoms: C_7  and  N_8 
REMARK    3  A    between atoms: N_8  and  C_9 
REMARK    4  A    between atoms: C_9  and  C_10 
REMARK    5  A    between atoms: N_19  and  C_20 
REMARK    6  A    between atoms: C_20  and  C_21 
REMARK    7  A    between atoms: C_21  and  C_22 
ROOT
HETATM    1  C   UNL     1      39.432 -12.139  -1.336  1.00  0.00     0.249 C 
HETATM    2  C   UNL     1      40.314 -13.228  -1.977  1.00  0.00     0.266 C 
HETATM    3  O   UNL     1      40.627 -13.344  -3.151  1.00  0.00    -0.270 OA
HETATM    4  N   UNL     1      40.687 -14.112  -0.966  1.00  0.00    -0.310 N 
HETATM    5  C   UNL     1      40.290 -13.661   0.248  1.00  0.00     0.129 C 
HETATM    6  C   UNL     1      39.629 -12.515   0.099  1.00  0.00     0.101 C 
HETATM    7  N   UNL     1      40.481 -14.259   1.462  1.00  0.00    -0.284 N 
HETATM    8  C   UNL     1      40.082 -13.612   2.634  1.00  0.00     0.331 C 
HETATM    9  O   UNL     1      40.226 -14.075   3.763  1.00  0.00    -0.246 OA
HETATM   10  N   UNL     1      39.462 -12.394   2.461  1.00  0.00    -0.275 N 
HETATM   11  C   UNL     1      39.116 -11.824   1.266  1.00  0.00     0.262 C 
HETATM   12  O   UNL     1      38.426 -10.819   1.164  1.00  0.00    -0.267 OA
HETATM   13  H   UNL     1      41.284 -14.907  -1.143  1.00  0.00     0.170 HD
HETATM   14  H   UNL     1      39.125 -11.947   3.300  1.00  0.00     0.173 HD
ENDROOT
BRANCH   1  15
HETATM   15  N   UNL     1      39.810 -10.747  -1.630  1.00  0.00    -0.327 N 
HETATM   16  C   UNL     1      41.097 -10.274  -1.520  1.00  0.00     0.253 C 
HETATM   17  O   UNL     1      42.049 -11.000  -1.260  1.00  0.00    -0.268 OA
HETATM   18  H   UNL     1      39.073 -10.067  -1.473  1.00  0.00     0.164 HD
BRANCH  16  19
HETATM   19  C   UNL     1      41.261  -8.797  -1.673  1.00  0.00     0.032 A 
HETATM   20  C   UNL     1      40.181  -7.957  -1.963  1.00  0.00     0.017 A 
HETATM   21  C   UNL     1      40.367  -6.573  -2.052  1.00  0.00     0.009 A 
HETATM   22  C   UNL     1      41.632  -5.984  -1.865  1.00  0.00    -0.051 A 
HETATM   23  C   UNL     1      42.712  -6.848  -1.617  1.00  0.00     0.009 A 
HETATM   24  C   UNL     1      42.530  -8.237  -1.524  1.00  0.00     0.017 A 
BRANCH  22  25
HETATM   25  C   UNL     1      41.790  -4.454  -1.953  1.00  0.00    -0.024 C 
HETATM   26  C   UNL     1      41.489  -3.969  -3.390  1.00  0.00     0.019 C 
HETATM   27  C   UNL     1      43.237  -4.069  -1.585  1.00  0.00     0.019 C 
HETATM   28  C   UNL     1      40.845  -3.674  -1.011  1.00  0.00     0.019 C 
ENDBRANCH  22  25
ENDBRANCH  16  19
ENDBRANCH   1  15
BRANCH   1  29
HETATM   29  C   UNL     1      38.009 -12.481  -1.808  1.00  0.00     0.426 C 
HETATM   30  F   UNL     1      37.084 -11.978  -0.953  1.00  0.00    -0.167 F 
HETATM   31  F   UNL     1      37.729 -11.946  -3.018  1.00  0.00    -0.167 F 
HETATM   32  F   UNL     1      37.784 -13.813  -1.889  1.00  0.00    -0.167 F 
ENDBRANCH   1  29
BRANCH   7  33
HETATM   33  C   UNL     1      40.992 -15.624   1.566  1.00  0.00     0.140 C 
BRANCH  33  34
HETATM   34  C   UNL     1      42.518 -15.713   1.511  1.00  0.00     0.059 C 
BRANCH  34  35
HETATM   35  C   UNL     1      43.033 -16.564   2.649  1.00  0.00    -0.057 A 
HETATM   36  C   UNL     1      43.198 -16.017   3.929  1.00  0.00     0.007 A 
HETATM   37  C   UNL     1      43.742 -16.785   4.961  1.00  0.00     0.001 A 
HETATM   38  C   UNL     1      44.121 -18.105   4.724  1.00  0.00     0.000 A 
HETATM   39  C   UNL     1      43.955 -18.659   3.457  1.00  0.00     0.001 A 
HETATM   40  C   UNL     1      43.416 -17.893   2.422  1.00  0.00     0.007 A 
ENDBRANCH  34  35
ENDBRANCH  33  34
ENDBRANCH   7  33
TORSDOF 7
ENDMDL
MODEL 6
REMARK VINA RESULT:      -8.4      6.729      9.888
REMARK  7 active torsions:
REMARK  status: ('A' for Active; 'I' for Inactive)
REMARK    1  A    between atoms: C_2  and  C_3 
REMARK    2  A    between atoms: C_6  and  C_7 
REMARK       I    between atoms: C_7  and  N_8 
REMARK    3  A    between atoms: N_8  and  C_9 
REMARK    4  A    between atoms: C_9  and  C_10 
REMARK    5  A    between atoms: N_19  and  C_20 
REMARK    6  A    between atoms: C_20  and  C_21 
REMARK    7  A    between atoms: C_21  and  C_22 
ROOT
HETATM    1  C   UNL     1      39.906 -11.476  -1.456  1.00  0.00     0.249 C 
HETATM    2  C   UNL     1      40.614 -10.687  -0.336  1.00  0.00     0.266 C 
HETATM    3  O   UNL     1      40.848  -9.491  -0.295  1.00  0.00    -0.270 OA
HETATM    4  N   UNL     1      40.985 -11.602   0.648  1.00  0.00    -0.310 N 
HETATM    5  C   UNL     1      40.487 -12.834   0.382  1.00  0.00     0.129 C 
HETATM    6  C   UNL     1      39.816 -12.801  -0.767  1.00  0.00     0.101 C 
HETATM    7  N   UNL     1      40.643 -13.973   1.122  1.00  0.00    -0.284 N 
HETATM    8  C   UNL     1      39.986 -15.148   0.748  1.00  0.00     0.331 C 
HETATM    9  O   UNL     1      40.065 -16.209   1.362  1.00  0.00    -0.246 OA
HETATM   10  N   UNL     1      39.240 -15.072  -0.407  1.00  0.00    -0.275 N 
HETATM   11  C   UNL     1      39.171 -14.003  -1.259  1.00  0.00     0.262 C 
HETATM   12  O   UNL     1      38.624 -14.036  -2.353  1.00  0.00    -0.267 OA
HETATM   13  H   UNL     1      41.454 -11.316   1.495  1.00  0.00     0.170 HD
HETATM   14  H   UNL     1      38.805 -15.930  -0.709  1.00  0.00     0.173 HD
ENDROOT
BRANCH   1  15
HETATM   15  N   UNL     1      38.599 -10.952  -1.885  1.00  0.00    -0.327 N 
HETATM   16  C   UNL     1      37.582 -10.649  -1.012  1.00  0.00     0.253 C 
HETATM   17  O   UNL     1      37.717 -10.701   0.205  1.00  0.00    -0.268 OA
HETATM   18  H   UNL     1      38.313 -11.243  -2.815  1.00  0.00     0.164 HD
BRANCH  16  19
HETATM   19  C   UNL     1      36.267 -10.313  -1.637  1.00  0.00     0.032 A 
HETATM   20  C   UNL     1      35.328  -9.499  -0.995  1.00  0.00     0.017 A 
HETATM   21  C   UNL     1      34.127  -9.169  -1.634  1.00  0.00     0.009 A 
HETATM   22  C   UNL     1      33.821  -9.643  -2.924  1.00  0.00    -0.051 A 
HETATM   23  C   UNL     1      34.758 -10.493  -3.534  1.00  0.00     0.009 A 
HETATM   24  C   UNL     1      35.965 -10.826  -2.899  1.00  0.00     0.017 A 
BRANCH  22  25
HETATM   25  C   UNL     1      32.495  -9.240  -3.598  1.00  0.00    -0.024 C 
HETATM   26  C   UNL     1      32.619  -9.364  -5.134  1.00  0.00     0.019 C 
HETATM   27  C   UNL     1      32.163  -7.778  -3.236  1.00  0.00     0.019 C 
HETATM   28  C   UNL     1      31.291 -10.110  -3.174  1.00  0.00     0.019 C 
ENDBRANCH  22  25
ENDBRANCH  16  19
ENDBRANCH   1  15
BRANCH   1  29
HETATM   29  C   UNL     1      40.936 -11.513  -2.598  1.00  0.00     0.426 C 
HETATM   30  F   UNL     1      41.033 -10.301  -3.198  1.00  0.00    -0.167 F 
HETATM   31  F   UNL     1      42.179 -11.811  -2.155  1.00  0.00    -0.167 F 
HETATM   32  F   UNL     1      40.621 -12.406  -3.565  1.00  0.00    -0.167 F 
ENDBRANCH   1  29
BRANCH   7  33
HETATM   33  C   UNL     1      41.581 -14.031   2.241  1.00  0.00     0.140 C 
BRANCH  33  34
HETATM   34  C   UNL     1      42.938 -14.633   1.871  1.00  0.00     0.059 C 
BRANCH  34  35
HETATM   35  C   UNL     1      43.184 -15.894   2.668  1.00  0.00    -0.057 A 
HETATM   36  C   UNL     1      43.318 -15.841   4.062  1.00  0.00     0.007 A 
HETATM   37  C   UNL     1      43.617 -16.996   4.788  1.00  0.00     0.001 A 
HETATM   38  C   UNL     1      43.780 -18.212   4.128  1.00  0.00     0.000 A 
HETATM   39  C   UNL     1      43.643 -18.276   2.744  1.00  0.00     0.001 A 
HETATM   40  C   UNL     1      43.349 -17.123   2.014  1.00  0.00     0.007 A 
ENDBRANCH  34  35
ENDBRANCH  33  34
ENDBRANCH   7  33
TORSDOF 7
ENDMDL
MODEL 7
REMARK VINA RESULT:      -8.3     18.235     20.381
REMARK  7 active torsions:
REMARK  status: ('A' for Active; 'I' for Inactive)
REMARK    1  A    between atoms: C_2  and  C_3 
REMARK    2  A    between atoms: C_6  and  C_7 
REMARK       I    between atoms: C_7  and  N_8 
REMARK    3  A    between atoms: N_8  and  C_9 
REMARK    4  A    between atoms: C_9  and  C_10 
REMARK    5  A    between atoms: N_19  and  C_20 
REMARK    6  A    between atoms: C_20  and  C_21 
REMARK    7  A    between atoms: C_21  and  C_22 
ROOT
HETATM    1  C   UNL     1      48.012 -29.929   1.641  1.00  0.00     0.249 C 
HETATM    2  C   UNL     1      48.442 -30.040   0.165  1.00  0.00     0.266 C 
HETATM    3  O   UNL     1      49.413 -29.535  -0.373  1.00  0.00    -0.270 OA
HETATM    4  N   UNL     1      47.487 -30.817  -0.491  1.00  0.00    -0.310 N 
HETATM    5  C   UNL     1      46.594 -31.335   0.386  1.00  0.00     0.129 C 
HETATM    6  C   UNL     1      46.884 -30.912   1.615  1.00  0.00     0.101 C 
HETATM    7  N   UNL     1      45.526 -32.141   0.108  1.00  0.00    -0.284 N 
HETATM    8  C   UNL     1      44.750 -32.662   1.147  1.00  0.00     0.331 C 
HETATM    9  O   UNL     1      43.782 -33.401   0.983  1.00  0.00    -0.246 OA
HETATM   10  N   UNL     1      45.111 -32.268   2.416  1.00  0.00    -0.275 N 
HETATM   11  C   UNL     1      46.074 -31.349   2.736  1.00  0.00     0.262 C 
HETATM   12  O   UNL     1      46.252 -30.911   3.864  1.00  0.00    -0.267 OA
HETATM   13  H   UNL     1      47.563 -31.042  -1.472  1.00  0.00     0.170 HD
HETATM   14  H   UNL     1      44.524 -32.598   3.166  1.00  0.00     0.173 HD
ENDROOT
BRANCH   1  15
HETATM   15  N   UNL     1      49.044 -30.254   2.639  1.00  0.00    -0.327 N 
HETATM   16  C   UNL     1      49.781 -31.415   2.614  1.00  0.00     0.253 C 
HETATM   17  O   UNL     1      49.703 -32.229   1.702  1.00  0.00    -0.268 OA
HETATM   18  H   UNL     1      48.887 -29.849   3.556  1.00  0.00     0.164 HD
BRANCH  16  19
HETATM   19  C   UNL     1      50.644 -31.662   3.808  1.00  0.00     0.032 A 
HETATM   20  C   UNL     1      51.014 -30.634   4.681  1.00  0.00     0.017 A 
HETATM   21  C   UNL     1      51.785 -30.914   5.815  1.00  0.00     0.009 A 
HETATM   22  C   UNL     1      52.218 -32.220   6.111  1.00  0.00    -0.051 A 
HETATM   23  C   UNL     1      51.872 -33.232   5.199  1.00  0.00     0.009 A 
HETATM   24  C   UNL     1      51.098 -32.957   4.061  1.00  0.00     0.017 A 
BRANCH  22  25
HETATM   25  C   UNL     1      53.050 -32.488   7.380  1.00  0.00    -0.024 C 
HETATM   26  C   UNL     1      53.822 -31.213   7.790  1.00  0.00     0.019 C 
HETATM   27  C   UNL     1      54.060 -33.619   7.097  1.00  0.00     0.019 C 
HETATM   28  C   UNL     1      52.205 -32.912   8.601  1.00  0.00     0.019 C 
ENDBRANCH  22  25
ENDBRANCH  16  19
ENDBRANCH   1  15
BRANCH   1  29
HETATM   29  C   UNL     1      47.489 -28.489   1.773  1.00  0.00     0.426 C 
HETATM   30  F   UNL     1      46.165 -28.483   2.068  1.00  0.00    -0.167 F 
HETATM   31  F   UNL     1      48.098 -27.814   2.775  1.00  0.00    -0.167 F 
HETATM   32  F   UNL     1      47.642 -27.765   0.640  1.00  0.00    -0.167 F 
ENDBRANCH   1  29
BRANCH   7  33
HETATM   33  C   UNL     1      45.095 -32.386  -1.267  1.00  0.00     0.140 C 
BRANCH  33  34
HETATM   34  C   UNL     1      43.864 -31.575  -1.676  1.00  0.00     0.059 C 
BRANCH  34  35
HETATM   35  C   UNL     1      44.286 -30.271  -2.311  1.00  0.00    -0.057 A 
HETATM   36  C   UNL     1      44.496 -30.187  -3.695  1.00  0.00     0.007 A 
HETATM   37  C   UNL     1      44.956 -29.000  -4.269  1.00  0.00     0.001 A 
HETATM   38  C   UNL     1      45.205 -27.887  -3.468  1.00  0.00     0.000 A 
HETATM   39  C   UNL     1      44.994 -27.959  -2.093  1.00  0.00     0.001 A 
HETATM   40  C   UNL     1      44.539 -29.145  -1.515  1.00  0.00     0.007 A 
ENDBRANCH  34  35
ENDBRANCH  33  34
ENDBRANCH   7  33
TORSDOF 7
ENDMDL
MODEL 8
REMARK VINA RESULT:      -8.3      7.087     10.253
REMARK  7 active torsions:
REMARK  status: ('A' for Active; 'I' for Inactive)
REMARK    1  A    between atoms: C_2  and  C_3 
REMARK    2  A    between atoms: C_6  and  C_7 
REMARK       I    between atoms: C_7  and  N_8 
REMARK    3  A    between atoms: N_8  and  C_9 
REMARK    4  A    between atoms: C_9  and  C_10 
REMARK    5  A    between atoms: N_19  and  C_20 
REMARK    6  A    between atoms: C_20  and  C_21 
REMARK    7  A    between atoms: C_21  and  C_22 
ROOT
HETATM    1  C   UNL     1      39.082 -12.843  -2.347  1.00  0.00     0.249 C 
HETATM    2  C   UNL     1      40.460 -13.532  -2.397  1.00  0.00     0.266 C 
HETATM    3  O   UNL     1      41.104 -13.849  -3.382  1.00  0.00    -0.270 OA
HETATM    4  N   UNL     1      40.854 -13.772  -1.081  1.00  0.00    -0.310 N 
HETATM    5  C   UNL     1      39.993 -13.204  -0.203  1.00  0.00     0.129 C 
HETATM    6  C   UNL     1      39.005 -12.613  -0.871  1.00  0.00     0.101 C 
HETATM    7  N   UNL     1      40.059 -13.230   1.163  1.00  0.00    -0.284 N 
HETATM    8  C   UNL     1      39.131 -12.514   1.924  1.00  0.00     0.331 C 
HETATM    9  O   UNL     1      39.126 -12.477   3.152  1.00  0.00    -0.246 OA
HETATM   10  N   UNL     1      38.158 -11.851   1.209  1.00  0.00    -0.275 N 
HETATM   11  C   UNL     1      37.962 -11.915  -0.145  1.00  0.00     0.262 C 
HETATM   12  O   UNL     1      36.991 -11.439  -0.717  1.00  0.00    -0.267 OA
HETATM   13  H   UNL     1      41.738 -14.205  -0.858  1.00  0.00     0.170 HD
HETATM   14  H   UNL     1      37.456 -11.376   1.754  1.00  0.00     0.173 HD
ENDROOT
BRANCH   1  15
HETATM   15  N   UNL     1      38.951 -11.608  -3.137  1.00  0.00    -0.327 N 
HETATM   16  C   UNL     1      39.863 -10.580  -3.090  1.00  0.00     0.253 C 
HETATM   17  O   UNL     1      40.909 -10.652  -2.457  1.00  0.00    -0.268 OA
HETATM   18  H   UNL     1      37.995 -11.342  -3.349  1.00  0.00     0.164 HD
BRANCH  16  19
HETATM   19  C   UNL     1      39.471  -9.330  -3.809  1.00  0.00     0.032 A 
HETATM   20  C   UNL     1      38.275  -9.232  -4.526  1.00  0.00     0.017 A 
HETATM   21  C   UNL     1      37.922  -8.028  -5.148  1.00  0.00     0.009 A 
HETATM   22  C   UNL     1      38.749  -6.891  -5.081  1.00  0.00    -0.051 A 
HETATM   23  C   UNL     1      39.966  -7.023  -4.391  1.00  0.00     0.009 A 
HETATM   24  C   UNL     1      40.325  -8.227  -3.765  1.00  0.00     0.017 A 
BRANCH  22  25
HETATM   25  C   UNL     1      38.313  -5.580  -5.764  1.00  0.00    -0.024 C 
HETATM   26  C   UNL     1      36.870  -5.713  -6.301  1.00  0.00     0.019 C 
HETATM   27  C   UNL     1      39.263  -5.279  -6.941  1.00  0.00     0.019 C 
HETATM   28  C   UNL     1      38.330  -4.353  -4.825  1.00  0.00     0.019 C 
ENDBRANCH  22  25
ENDBRANCH  16  19
ENDBRANCH   1  15
BRANCH   1  29
HETATM   29  C   UNL     1      38.098 -13.939  -2.789  1.00  0.00     0.426 C 
HETATM   30  F   UNL     1      38.253 -14.222  -4.107  1.00  0.00    -0.167 F 
HETATM   31  F   UNL     1      38.298 -15.103  -2.130  1.00  0.00    -0.167 F 
HETATM   32  F   UNL     1      36.802 -13.588  -2.614  1.00  0.00    -0.167 F 
ENDBRANCH   1  29
BRANCH   7  33
HETATM   33  C   UNL     1      41.013 -14.087   1.863  1.00  0.00     0.140 C 
BRANCH  33  34
HETATM   34  C   UNL     1      40.536 -15.532   2.020  1.00  0.00     0.059 C 
BRANCH  34  35
HETATM   35  C   UNL     1      41.553 -16.335   2.798  1.00  0.00    -0.057 A 
HETATM   36  C   UNL     1      41.668 -16.184   4.188  1.00  0.00     0.007 A 
HETATM   37  C   UNL     1      42.656 -16.873   4.894  1.00  0.00     0.001 A 
HETATM   38  C   UNL     1      43.534 -17.720   4.220  1.00  0.00     0.000 A 
HETATM   39  C   UNL     1      43.424 -17.882   2.841  1.00  0.00     0.001 A 
HETATM   40  C   UNL     1      42.440 -17.191   2.131  1.00  0.00     0.007 A 
ENDBRANCH  34  35
ENDBRANCH  33  34
ENDBRANCH   7  33
TORSDOF 7
ENDMDL
MODEL 9
REMARK VINA RESULT:      -8.2      1.869      2.879
REMARK  7 active torsions:
REMARK  status: ('A' for Active; 'I' for Inactive)
REMARK    1  A    between atoms: C_2  and  C_3 
REMARK    2  A    between atoms: C_6  and  C_7 
REMARK       I    between atoms: C_7  and  N_8 
REMARK    3  A    between atoms: N_8  and  C_9 
REMARK    4  A    between atoms: C_9  and  C_10 
REMARK    5  A    between atoms: N_19  and  C_20 
REMARK    6  A    between atoms: C_20  and  C_21 
REMARK    7  A    between atoms: C_21  and  C_22 
ROOT
HETATM    1  C   UNL     1      42.162 -11.595   6.026  1.00  0.00     0.249 C 
HETATM    2  C   UNL     1      43.603 -12.049   5.719  1.00  0.00     0.266 C 
HETATM    3  O   UNL     1      44.620 -11.376   5.737  1.00  0.00    -0.270 OA
HETATM    4  N   UNL     1      43.550 -13.398   5.373  1.00  0.00    -0.310 N 
HETATM    5  C   UNL     1      42.306 -13.902   5.558  1.00  0.00     0.129 C 
HETATM    6  C   UNL     1      41.497 -12.935   5.986  1.00  0.00     0.101 C 
HETATM    7  N   UNL     1      41.882 -15.181   5.327  1.00  0.00    -0.284 N 
HETATM    8  C   UNL     1      40.578 -15.558   5.655  1.00  0.00     0.331 C 
HETATM    9  O   UNL     1      40.122 -16.687   5.489  1.00  0.00    -0.246 OA
HETATM   10  N   UNL     1      39.778 -14.558   6.163  1.00  0.00    -0.275 N 
HETATM   11  C   UNL     1      40.108 -13.234   6.274  1.00  0.00     0.262 C 
HETATM   12  O   UNL     1      39.313 -12.356   6.581  1.00  0.00    -0.267 OA
HETATM   13  H   UNL     1      44.381 -13.924   5.143  1.00  0.00     0.170 HD
HETATM   14  H   UNL     1      38.821 -14.811   6.353  1.00  0.00     0.173 HD
ENDROOT
BRANCH   1  15
HETATM   15  N   UNL     1      41.968 -10.887   7.302  1.00  0.00    -0.327 N 
HETATM   16  C   UNL     1      42.610  -9.713   7.621  1.00  0.00     0.253 C 
HETATM   17  O   UNL     1      43.322  -9.111   6.827  1.00  0.00    -0.268 OA
HETATM   18  H   UNL     1      41.728 -11.487   8.085  1.00  0.00     0.164 HD
BRANCH  16  19
HETATM   19  C   UNL     1      42.440  -9.241   9.028  1.00  0.00     0.032 A 
HETATM   20  C   UNL     1      41.258  -8.637   9.470  1.00  0.00     0.017 A 
HETATM   21  C   UNL     1      41.121  -8.250  10.809  1.00  0.00     0.009 A 
HETATM   22  C   UNL     1      42.154  -8.446  11.744  1.00  0.00    -0.051 A 
HETATM   23  C   UNL     1      43.348  -9.016  11.272  1.00  0.00     0.009 A 
HETATM   24  C   UNL     1      43.491  -9.406   9.931  1.00  0.00     0.017 A 
BRANCH  22  25
HETATM   25  C   UNL     1      41.954  -8.023  13.212  1.00  0.00    -0.024 C 
HETATM   26  C   UNL     1      43.219  -7.308  13.738  1.00  0.00     0.019 C 
HETATM   27  C   UNL     1      41.690  -9.275  14.072  1.00  0.00     0.019 C 
HETATM   28  C   UNL     1      40.770  -7.052  13.426  1.00  0.00     0.019 C 
ENDBRANCH  22  25
ENDBRANCH  16  19
ENDBRANCH   1  15
BRANCH   1  29
HETATM   29  C   UNL     1      41.768 -10.744   4.808  1.00  0.00     0.426 C 
HETATM   30  F   UNL     1      41.186 -11.511   3.853  1.00  0.00    -0.167 F 
HETATM   31  F   UNL     1      40.863  -9.788   5.122  1.00  0.00    -0.167 F 
HETATM   32  F   UNL     1      42.825 -10.129   4.228  1.00  0.00    -0.167 F 
ENDBRANCH   1  29
BRANCH   7  33
HETATM   33  C   UNL     1      42.727 -16.148   4.631  1.00  0.00     0.140 C 
BRANCH  33  34
HETATM   34  C   UNL     1      43.287 -15.631   3.304  1.00  0.00     0.059 C 
BRANCH  34  35
HETATM   35  C   UNL     1      42.158 -15.301   2.355  1.00  0.00    -0.057 A 
HETATM   36  C   UNL     1      42.078 -14.035   1.756  1.00  0.00     0.007 A 
HETATM   37  C   UNL     1      40.996 -13.709   0.937  1.00  0.00     0.001 A 
HETATM   38  C   UNL     1      39.988 -14.642   0.706  1.00  0.00     0.000 A 
HETATM   39  C   UNL     1      40.061 -15.904   1.292  1.00  0.00     0.001 A 
HETATM   40  C   UNL     1      41.139 -16.233   2.116  1.00  0.00     0.007 A 
ENDBRANCH  34  35
ENDBRANCH  33  34
ENDBRANCH   7  33
TORSDOF 7
ENDMDL
MODEL 10
REMARK VINA RESULT:      -8.1      2.136      2.773
REMARK  7 active torsions:
REMARK  status: ('A' for Active; 'I' for Inactive)
REMARK    1  A    between atoms: C_2  and  C_3 
REMARK    2  A    between atoms: C_6  and  C_7 
REMARK       I    between atoms: C_7  and  N_8 
REMARK    3  A    between atoms: N_8  and  C_9 
REMARK    4  A    between atoms: C_9  and  C_10 
REMARK    5  A    between atoms: N_19  and  C_20 
REMARK    6  A    between atoms: C_20  and  C_21 
REMARK    7  A    between atoms: C_21  and  C_22 
ROOT
HETATM    1  C   UNL     1      41.193 -11.858   4.167  1.00  0.00     0.249 C 
HETATM    2  C   UNL     1      42.506 -11.942   3.364  1.00  0.00     0.266 C 
HETATM    3  O   UNL     1      42.983 -11.103   2.618  1.00  0.00    -0.270 OA
HETATM    4  N   UNL     1      43.069 -13.192   3.614  1.00  0.00    -0.310 N 
HETATM    5  C   UNL     1      42.379 -13.856   4.572  1.00  0.00     0.129 C 
HETATM    6  C   UNL     1      41.342 -13.117   4.962  1.00  0.00     0.101 C 
HETATM    7  N   UNL     1      42.637 -15.101   5.074  1.00  0.00    -0.284 N 
HETATM    8  C   UNL     1      41.873 -15.606   6.129  1.00  0.00     0.331 C 
HETATM    9  O   UNL     1      42.046 -16.708   6.642  1.00  0.00    -0.246 OA
HETATM   10  N   UNL     1      40.848 -14.794   6.564  1.00  0.00    -0.275 N 
HETATM   11  C   UNL     1      40.457 -13.610   5.999  1.00  0.00     0.262 C 
HETATM   12  O   UNL     1      39.444 -13.003   6.320  1.00  0.00    -0.267 OA
HETATM   13  H   UNL     1      43.949 -13.474   3.207  1.00  0.00     0.170 HD
HETATM   14  H   UNL     1      40.261 -15.175   7.290  1.00  0.00     0.173 HD
ENDROOT
BRANCH   1  15
HETATM   15  N   UNL     1      41.024 -10.658   5.003  1.00  0.00    -0.327 N 
HETATM   16  C   UNL     1      41.025  -9.379   4.498  1.00  0.00     0.253 C 
HETATM   17  O   UNL     1      41.070  -9.141   3.298  1.00  0.00    -0.268 OA
HETATM   18  H   UNL     1      41.357 -10.758   5.957  1.00  0.00     0.164 HD
BRANCH  16  19
HETATM   19  C   UNL     1      41.034  -8.281   5.512  1.00  0.00     0.032 A 
HETATM   20  C   UNL     1      40.333  -7.087   5.317  1.00  0.00     0.017 A 
HETATM   21  C   UNL     1      40.328  -6.101   6.311  1.00  0.00     0.009 A 
HETATM   22  C   UNL     1      41.024  -6.269   7.522  1.00  0.00    -0.051 A 
HETATM   23  C   UNL     1      41.757  -7.458   7.681  1.00  0.00     0.009 A 
HETATM   24  C   UNL     1      41.764  -8.451   6.689  1.00  0.00     0.017 A 
BRANCH  22  25
HETATM   25  C   UNL     1      40.978  -5.167   8.598  1.00  0.00    -0.024 C 
HETATM   26  C   UNL     1      42.124  -5.365   9.616  1.00  0.00     0.019 C 
HETATM   27  C   UNL     1      39.627  -5.236   9.340  1.00  0.00     0.019 C 
HETATM   28  C   UNL     1      41.125  -3.737   8.031  1.00  0.00     0.019 C 
ENDBRANCH  22  25
ENDBRANCH  16  19
ENDBRANCH   1  15
BRANCH   1  29
HETATM   29  C   UNL     1      40.092 -12.002   3.103  1.00  0.00     0.426 C 
HETATM   30  F   UNL     1      39.824 -13.310   2.861  1.00  0.00    -0.167 F 
HETATM   31  F   UNL     1      38.922 -11.448   3.499  1.00  0.00    -0.167 F 
HETATM   32  F   UNL     1      40.427 -11.444   1.917  1.00  0.00    -0.167 F 
ENDBRANCH   1  29
BRANCH   7  33
HETATM   33  C   UNL     1      43.629 -15.979   4.457  1.00  0.00     0.140 C 
BRANCH  33  34
HETATM   34  C   UNL     1      43.122 -16.687   3.199  1.00  0.00     0.059 C 
BRANCH  34  35
HETATM   35  C   UNL     1      43.433 -18.164   3.270  1.00  0.00    -0.057 A 
HETATM   36  C   UNL     1      43.151 -19.004   2.183  1.00  0.00     0.007 A 
HETATM   37  C   UNL     1      43.373 -20.379   2.278  1.00  0.00     0.001 A 
HETATM   38  C   UNL     1      43.881 -20.926   3.454  1.00  0.00     0.000 A 
HETATM   39  C   UNL     1      44.170 -20.099   4.537  1.00  0.00     0.001 A 
HETATM   40  C   UNL     1      43.945 -18.724   4.448  1.00  0.00     0.007 A 
ENDBRANCH  34  35
ENDBRANCH  33  34
ENDBRANCH   7  33
TORSDOF 7
ENDMDL
