MODEL 1
REMARK VINA RESULT:      -8.9      0.000      0.000
REMARK  10 active torsions:
REMARK  status: ('A' for Active; 'I' for Inactive)
REMARK    1  A    between atoms: N_15  and  C_16 
REMARK    2  A    between atoms: C_16  and  C_17 
REMARK    3  A    between atoms: C_17  and  N_18 
REMARK       I    between atoms: N_18  and  C_19 
REMARK    4  A    between atoms: C_19  and  C_20 
REMARK    5  A    between atoms: C_20  and  C_21 
REMARK    6  A    between atoms: C_21  and  C_22 
REMARK    7  A    between atoms: C_24  and  C_25 
REMARK    8  A    between atoms: C_29  and  O_30 
REMARK    9  A    between atoms: C_31  and  C_32 
REMARK   10  A    between atoms: C_38  and  O_39 
ROOT
HETATM    1  C   UNL     1      44.242 -10.325   7.148  1.00  0.00     0.142 C 
ENDROOT
BRANCH   1   2
HETATM    2  C   UNL     1      44.539  -9.182   8.130  1.00  0.00     0.151 C 
BRANCH   2   3
HETATM    3  N   UNL     1      44.010  -9.393   9.491  1.00  0.00    -0.291 N 
HETATM    4  C   UNL     1      44.657 -10.179  10.400  1.00  0.00     0.366 A 
HETATM    5  O   UNL     1      44.061 -10.066  11.613  1.00  0.00    -0.287 OA
HETATM    6  O   UNL     1      45.619 -10.896  10.196  1.00  0.00    -0.238 OA
HETATM    7  C   UNL     1      42.934  -9.127  11.592  1.00  0.00     0.126 A 
HETATM    8  C   UNL     1      41.739 -10.014  11.998  1.00  0.00     0.082 C 
HETATM    9  C   UNL     1      42.956  -8.631  10.100  1.00  0.00     0.166 A 
HETATM   10  C   UNL     1      43.270  -8.137  12.727  1.00  0.00     0.082 C 
HETATM   11  C   UNL     1      40.504  -9.278  12.521  1.00  0.00     0.122 C 
HETATM   12  N   UNL     1      40.936  -8.365  13.644  1.00  0.00    -0.059 N 
HETATM   13  C   UNL     1      39.540 -10.306  13.154  1.00  0.00     0.046 C 
HETATM   14  C   UNL     1      39.710  -8.499  11.473  1.00  0.00     0.046 C 
HETATM   15  C   UNL     1      42.115  -7.436  13.472  1.00  0.00     0.122 C 
HETATM   16  H   UNL     1      41.147  -8.973  14.451  1.00  0.00     0.279 HD
HETATM   17  H   UNL     1      40.121  -7.817  13.961  1.00  0.00     0.279 HD
HETATM   18  C   UNL     1      42.595  -7.099  14.905  1.00  0.00     0.046 C 
HETATM   19  C   UNL     1      41.646  -6.114  12.857  1.00  0.00     0.046 C 
HETATM   20  C   UNL     1      43.145  -7.134   9.890  1.00  0.00     0.074 C 
BRANCH   9  21
HETATM   21  O   UNL     1      41.772  -9.048   9.441  1.00  0.00    -0.368 OA
HETATM   22  H   UNL     1      41.845  -8.642   8.556  1.00  0.00     0.212 HD
ENDBRANCH   9  21
ENDBRANCH   2   3
ENDBRANCH   1   2
BRANCH   1  23
HETATM   23  N   UNL     1      42.825 -10.530   6.892  1.00  0.00    -0.359 N 
HETATM   24  C   UNL     1      42.320 -10.517   5.612  1.00  0.00     0.217 C 
HETATM   25  O   UNL     1      43.027 -10.318   4.629  1.00  0.00    -0.274 OA
HETATM   26  H   UNL     1      42.176 -10.521   7.668  1.00  0.00     0.162 HD
BRANCH  24  27
HETATM   27  C   UNL     1      40.833 -10.800   5.503  1.00  0.00     0.107 C 
BRANCH  27  28
HETATM   28  C   UNL     1      40.410 -12.194   5.972  1.00  0.00     0.048 C 
BRANCH  28  29
HETATM   29  C   UNL     1      41.111 -13.405   5.388  1.00  0.00    -0.057 A 
HETATM   30  C   UNL     1      41.077 -13.735   4.030  1.00  0.00     0.018 A 
HETATM   31  C   UNL     1      41.699 -14.886   3.499  1.00  0.00    -0.016 A 
HETATM   32  C   UNL     1      42.424 -15.678   4.414  1.00  0.00     0.079 A 
HETATM   33  C   UNL     1      42.525 -15.378   5.797  1.00  0.00    -0.016 A 
HETATM   34  C   UNL     1      41.833 -14.239   6.252  1.00  0.00     0.018 A 
BRANCH  31  35
HETATM   35  C   UNL     1      41.632 -15.106   1.962  1.00  0.00    -0.021 C 
HETATM   36  C   UNL     1      41.337 -13.742   1.304  1.00  0.00     0.019 C 
HETATM   37  C   UNL     1      42.908 -15.682   1.309  1.00  0.00     0.019 C 
HETATM   38  C   UNL     1      40.500 -16.096   1.568  1.00  0.00     0.019 C 
ENDBRANCH  31  35
BRANCH  32  39
HETATM   39  O   UNL     1      43.110 -16.772   3.971  1.00  0.00    -0.360 OA
HETATM   40  H   UNL     1      42.705 -17.028   3.127  1.00  0.00     0.217 HD
ENDBRANCH  32  39
BRANCH  33  41
HETATM   41  C   UNL     1      43.383 -16.229   6.770  1.00  0.00    -0.021 C 
HETATM   42  C   UNL     1      43.181 -15.747   8.224  1.00  0.00     0.019 C 
HETATM   43  C   UNL     1      43.020 -17.738   6.763  1.00  0.00     0.019 C 
HETATM   44  C   UNL     1      44.880 -16.155   6.394  1.00  0.00     0.019 C 
ENDBRANCH  33  41
ENDBRANCH  28  29
ENDBRANCH  27  28
ENDBRANCH  24  27
ENDBRANCH   1  23
TORSDOF 10
ENDMDL
MODEL 2
REMARK VINA RESULT:      -8.6      2.204      9.206
REMARK  10 active torsions:
REMARK  status: ('A' for Active; 'I' for Inactive)
REMARK    1  A    between atoms: N_15  and  C_16 
REMARK    2  A    between atoms: C_16  and  C_17 
REMARK    3  A    between atoms: C_17  and  N_18 
REMARK       I    between atoms: N_18  and  C_19 
REMARK    4  A    between atoms: C_19  and  C_20 
REMARK    5  A    between atoms: C_20  and  C_21 
REMARK    6  A    between atoms: C_21  and  C_22 
REMARK    7  A    between atoms: C_24  and  C_25 
REMARK    8  A    between atoms: C_29  and  O_30 
REMARK    9  A    between atoms: C_31  and  C_32 
REMARK   10  A    between atoms: C_38  and  O_39 
ROOT
HETATM    1  C   UNL     1      39.719 -10.266   6.399  1.00  0.00     0.142 C 
ENDROOT
BRANCH   1   2
HETATM    2  C   UNL     1      39.729 -10.863   4.985  1.00  0.00     0.151 C 
BRANCH   2   3
HETATM    3  N   UNL     1      40.889 -11.726   4.693  1.00  0.00    -0.291 N 
HETATM    4  C   UNL     1      42.155 -11.222   4.598  1.00  0.00     0.366 A 
HETATM    5  O   UNL     1      43.049 -12.238   4.499  1.00  0.00    -0.287 OA
HETATM    6  O   UNL     1      42.478 -10.049   4.588  1.00  0.00    -0.238 OA
HETATM    7  C   UNL     1      42.400 -13.553   4.551  1.00  0.00     0.126 A 
HETATM    8  C   UNL     1      42.778 -14.177   3.191  1.00  0.00     0.082 C 
HETATM    9  C   UNL     1      40.890 -13.161   4.741  1.00  0.00     0.166 A 
HETATM   10  C   UNL     1      43.147 -14.276   5.692  1.00  0.00     0.082 C 
HETATM   11  C   UNL     1      42.664 -15.699   3.096  1.00  0.00     0.122 C 
HETATM   12  N   UNL     1      43.452 -16.306   4.234  1.00  0.00    -0.059 N 
HETATM   13  C   UNL     1      43.355 -16.173   1.799  1.00  0.00     0.046 C 
HETATM   14  C   UNL     1      41.239 -16.252   3.078  1.00  0.00     0.046 C 
HETATM   15  C   UNL     1      43.266 -15.814   5.650  1.00  0.00     0.122 C 
HETATM   16  H   UNL     1      44.450 -16.179   4.000  1.00  0.00     0.279 HD
HETATM   17  H   UNL     1      43.329 -17.330   4.216  1.00  0.00     0.279 HD
HETATM   18  C   UNL     1      44.552 -16.223   6.408  1.00  0.00     0.046 C 
HETATM   19  C   UNL     1      42.117 -16.577   6.315  1.00  0.00     0.046 C 
HETATM   20  C   UNL     1      40.210 -13.687   5.999  1.00  0.00     0.074 C 
BRANCH   9  21
HETATM   21  O   UNL     1      40.145 -13.567   3.604  1.00  0.00    -0.368 OA
HETATM   22  H   UNL     1      40.824 -13.674   2.910  1.00  0.00     0.212 HD
ENDBRANCH   9  21
ENDBRANCH   2   3
ENDBRANCH   1   2
BRANCH   1  23
HETATM   23  N   UNL     1      40.266  -8.919   6.475  1.00  0.00    -0.359 N 
HETATM   24  C   UNL     1      39.588  -7.908   7.116  1.00  0.00     0.217 C 
HETATM   25  O   UNL     1      38.492  -8.079   7.639  1.00  0.00    -0.274 OA
HETATM   26  H   UNL     1      41.073  -8.682   5.914  1.00  0.00     0.162 HD
BRANCH  24  27
HETATM   27  C   UNL     1      40.312  -6.574   7.158  1.00  0.00     0.107 C 
BRANCH  27  28
HETATM   28  C   UNL     1      40.814  -6.161   8.543  1.00  0.00     0.048 C 
BRANCH  28  29
HETATM   29  C   UNL     1      41.385  -7.225   9.461  1.00  0.00    -0.057 A 
HETATM   30  C   UNL     1      40.775  -7.622  10.655  1.00  0.00     0.018 A 
HETATM   31  C   UNL     1      41.333  -8.584  11.523  1.00  0.00    -0.016 A 
HETATM   32  C   UNL     1      42.535  -9.188  11.093  1.00  0.00     0.079 A 
HETATM   33  C   UNL     1      43.183  -8.854   9.876  1.00  0.00    -0.016 A 
HETATM   34  C   UNL     1      42.586  -7.847   9.093  1.00  0.00     0.018 A 
BRANCH  31  35
HETATM   35  C   UNL     1      40.526  -8.975  12.792  1.00  0.00    -0.021 C 
HETATM   36  C   UNL     1      39.313  -8.027  12.887  1.00  0.00     0.019 C 
HETATM   37  C   UNL     1      40.000 -10.427  12.834  1.00  0.00     0.019 C 
HETATM   38  C   UNL     1      41.373  -8.820  14.087  1.00  0.00     0.019 C 
ENDBRANCH  31  35
BRANCH  32  39
HETATM   39  O   UNL     1      43.105 -10.176  11.842  1.00  0.00    -0.360 OA
HETATM   40  H   UNL     1      42.614 -10.990  11.645  1.00  0.00     0.217 HD
ENDBRANCH  32  39
BRANCH  33  41
HETATM   41  C   UNL     1      44.468  -9.579   9.395  1.00  0.00    -0.021 C 
HETATM   42  C   UNL     1      45.309  -8.640   8.501  1.00  0.00     0.019 C 
HETATM   43  C   UNL     1      45.403 -10.022  10.552  1.00  0.00     0.019 C 
HETATM   44  C   UNL     1      44.116 -10.868   8.620  1.00  0.00     0.019 C 
ENDBRANCH  33  41
ENDBRANCH  28  29
ENDBRANCH  27  28
ENDBRANCH  24  27
ENDBRANCH   1  23
TORSDOF 10
ENDMDL
MODEL 3
REMARK VINA RESULT:      -8.5      2.044      3.964
REMARK  10 active torsions:
REMARK  status: ('A' for Active; 'I' for Inactive)
REMARK    1  A    between atoms: N_15  and  C_16 
REMARK    2  A    between atoms: C_16  and  C_17 
REMARK    3  A    between atoms: C_17  and  N_18 
REMARK       I    between atoms: N_18  and  C_19 
REMARK    4  A    between atoms: C_19  and  C_20 
REMARK    5  A    between atoms: C_20  and  C_21 
REMARK    6  A    between atoms: C_21  and  C_22 
REMARK    7  A    between atoms: C_24  and  C_25 
REMARK    8  A    between atoms: C_29  and  O_30 
REMARK    9  A    between atoms: C_31  and  C_32 
REMARK   10  A    between atoms: C_38  and  O_39 
ROOT
HETATM    1  C   UNL     1      45.319  -8.738   8.992  1.00  0.00     0.142 C 
ENDROOT
BRANCH   1   2
HETATM    2  C   UNL     1      44.280  -7.634   8.746  1.00  0.00     0.151 C 
BRANCH   2   3
HETATM    3  N   UNL     1      42.913  -7.972   9.187  1.00  0.00    -0.291 N 
HETATM    4  C   UNL     1      42.063  -8.698   8.403  1.00  0.00     0.366 A 
HETATM    5  O   UNL     1      40.947  -9.016   9.106  1.00  0.00    -0.287 OA
HETATM    6  O   UNL     1      42.235  -9.025   7.244  1.00  0.00    -0.238 OA
HETATM    7  C   UNL     1      40.999  -8.515  10.484  1.00  0.00     0.126 A 
HETATM    8  C   UNL     1      39.783  -7.568  10.552  1.00  0.00     0.082 C 
HETATM    9  C   UNL     1      42.415  -7.832  10.526  1.00  0.00     0.166 A 
HETATM   10  C   UNL     1      40.738  -9.777  11.334  1.00  0.00     0.082 C 
HETATM   11  C   UNL     1      39.268  -7.237  11.954  1.00  0.00     0.122 C 
HETATM   12  N   UNL     1      39.015  -8.534  12.686  1.00  0.00    -0.059 N 
HETATM   13  C   UNL     1      37.894  -6.542  11.831  1.00  0.00     0.046 C 
HETATM   14  C   UNL     1      40.166  -6.320  12.784  1.00  0.00     0.046 C 
HETATM   15  C   UNL     1      40.064  -9.621  12.713  1.00  0.00     0.122 C 
HETATM   16  H   UNL     1      38.166  -8.945  12.268  1.00  0.00     0.279 HD
HETATM   17  H   UNL     1      38.728  -8.320  13.654  1.00  0.00     0.279 HD
HETATM   18  C   UNL     1      39.301 -10.931  13.031  1.00  0.00     0.046 C 
HETATM   19  C   UNL     1      41.020  -9.387  13.886  1.00  0.00     0.046 C 
HETATM   20  C   UNL     1      43.395  -8.378  11.557  1.00  0.00     0.074 C 
BRANCH   9  21
HETATM   21  O   UNL     1      42.265  -6.436  10.719  1.00  0.00    -0.368 OA
HETATM   22  H   UNL     1      42.734  -6.046   9.956  1.00  0.00     0.212 HD
ENDBRANCH   9  21
ENDBRANCH   2   3
ENDBRANCH   1   2
BRANCH   1  23
HETATM   23  N   UNL     1      45.395  -9.725   7.926  1.00  0.00    -0.359 N 
HETATM   24  C   UNL     1      44.870 -10.987   8.082  1.00  0.00     0.217 C 
HETATM   25  O   UNL     1      44.329 -11.350   9.122  1.00  0.00    -0.274 OA
HETATM   26  H   UNL     1      45.982  -9.541   7.123  1.00  0.00     0.162 HD
BRANCH  24  27
HETATM   27  C   UNL     1      44.979 -11.885   6.863  1.00  0.00     0.107 C 
BRANCH  27  28
HETATM   28  C   UNL     1      43.870 -12.933   6.739  1.00  0.00     0.048 C 
BRANCH  28  29
HETATM   29  C   UNL     1      43.207 -13.138   5.391  1.00  0.00    -0.057 A 
HETATM   30  C   UNL     1      43.182 -14.366   4.723  1.00  0.00     0.018 A 
HETATM   31  C   UNL     1      42.597 -14.540   3.450  1.00  0.00    -0.016 A 
HETATM   32  C   UNL     1      41.969 -13.404   2.894  1.00  0.00     0.079 A 
HETATM   33  C   UNL     1      41.930 -12.141   3.537  1.00  0.00    -0.016 A 
HETATM   34  C   UNL     1      42.582 -12.041   4.781  1.00  0.00     0.018 A 
BRANCH  31  35
HETATM   35  C   UNL     1      42.588 -15.970   2.842  1.00  0.00    -0.021 C 
HETATM   36  C   UNL     1      41.117 -16.410   2.698  1.00  0.00     0.019 C 
HETATM   37  C   UNL     1      43.267 -16.118   1.462  1.00  0.00     0.019 C 
HETATM   38  C   UNL     1      43.319 -16.992   3.758  1.00  0.00     0.019 C 
ENDBRANCH  31  35
BRANCH  32  39
HETATM   39  O   UNL     1      41.322 -13.504   1.696  1.00  0.00    -0.360 OA
HETATM   40  H   UNL     1      41.582 -14.357   1.312  1.00  0.00     0.217 HD
ENDBRANCH  32  39
BRANCH  33  41
HETATM   41  C   UNL     1      41.177 -10.925   2.934  1.00  0.00    -0.021 C 
HETATM   42  C   UNL     1      41.747 -10.581   1.539  1.00  0.00     0.019 C 
HETATM   43  C   UNL     1      39.659 -11.174   2.728  1.00  0.00     0.019 C 
HETATM   44  C   UNL     1      41.281  -9.696   3.864  1.00  0.00     0.019 C 
ENDBRANCH  33  41
ENDBRANCH  28  29
ENDBRANCH  27  28
ENDBRANCH  24  27
ENDBRANCH   1  23
TORSDOF 10
ENDMDL
MODEL 4
REMARK VINA RESULT:      -8.5      2.227      9.026
REMARK  10 active torsions:
REMARK  status: ('A' for Active; 'I' for Inactive)
REMARK    1  A    between atoms: N_15  and  C_16 
REMARK    2  A    between atoms: C_16  and  C_17 
REMARK    3  A    between atoms: C_17  and  N_18 
REMARK       I    between atoms: N_18  and  C_19 
REMARK    4  A    between atoms: C_19  and  C_20 
REMARK    5  A    between atoms: C_20  and  C_21 
REMARK    6  A    between atoms: C_21  and  C_22 
REMARK    7  A    between atoms: C_24  and  C_25 
REMARK    8  A    between atoms: C_29  and  O_30 
REMARK    9  A    between atoms: C_31  and  C_32 
REMARK   10  A    between atoms: C_38  and  O_39 
ROOT
HETATM    1  C   UNL     1      39.497 -10.450   6.336  1.00  0.00     0.142 C 
ENDROOT
BRANCH   1   2
HETATM    2  C   UNL     1      39.554 -10.998   4.903  1.00  0.00     0.151 C 
BRANCH   2   3
HETATM    3  N   UNL     1      40.733 -11.839   4.616  1.00  0.00    -0.291 N 
HETATM    4  C   UNL     1      41.978 -11.301   4.458  1.00  0.00     0.366 A 
HETATM    5  O   UNL     1      42.900 -12.293   4.378  1.00  0.00    -0.287 OA
HETATM    6  O   UNL     1      42.263 -10.121   4.385  1.00  0.00    -0.238 OA
HETATM    7  C   UNL     1      42.296 -13.623   4.511  1.00  0.00     0.126 A 
HETATM    8  C   UNL     1      42.653 -14.298   3.170  1.00  0.00     0.082 C 
HETATM    9  C   UNL     1      40.780 -13.269   4.729  1.00  0.00     0.166 A 
HETATM   10  C   UNL     1      43.098 -14.269   5.660  1.00  0.00     0.082 C 
HETATM   11  C   UNL     1      42.585 -15.826   3.148  1.00  0.00     0.122 C 
HETATM   12  N   UNL     1      43.425 -16.354   4.287  1.00  0.00    -0.059 N 
HETATM   13  C   UNL     1      43.252 -16.338   1.853  1.00  0.00     0.046 C 
HETATM   14  C   UNL     1      41.178 -16.422   3.199  1.00  0.00     0.046 C 
HETATM   15  C   UNL     1      43.264 -15.803   5.685  1.00  0.00     0.122 C 
HETATM   16  H   UNL     1      44.410 -16.208   4.017  1.00  0.00     0.279 HD
HETATM   17  H   UNL     1      43.334 -17.382   4.319  1.00  0.00     0.279 HD
HETATM   18  C   UNL     1      44.585 -16.137   6.420  1.00  0.00     0.046 C 
HETATM   19  C   UNL     1      42.160 -16.569   6.418  1.00  0.00     0.046 C 
HETATM   20  C   UNL     1      40.154 -13.756   6.030  1.00  0.00     0.074 C 
BRANCH   9  21
HETATM   21  O   UNL     1      40.015 -13.750   3.635  1.00  0.00    -0.368 OA
HETATM   22  H   UNL     1      39.850 -14.685   3.863  1.00  0.00     0.212 HD
ENDBRANCH   9  21
ENDBRANCH   2   3
ENDBRANCH   1   2
BRANCH   1  23
HETATM   23  N   UNL     1      40.174  -9.174   6.508  1.00  0.00    -0.359 N 
HETATM   24  C   UNL     1      39.469  -8.017   6.745  1.00  0.00     0.217 C 
HETATM   25  O   UNL     1      38.244  -7.995   6.809  1.00  0.00    -0.274 OA
HETATM   26  H   UNL     1      41.160  -9.105   6.290  1.00  0.00     0.162 HD
BRANCH  24  27
HETATM   27  C   UNL     1      40.319  -6.777   6.956  1.00  0.00     0.107 C 
BRANCH  27  28
HETATM   28  C   UNL     1      40.578  -6.420   8.421  1.00  0.00     0.048 C 
BRANCH  28  29
HETATM   29  C   UNL     1      41.245  -7.446   9.316  1.00  0.00    -0.057 A 
HETATM   30  C   UNL     1      42.460  -8.066   9.007  1.00  0.00     0.018 A 
HETATM   31  C   UNL     1      43.054  -9.050   9.826  1.00  0.00    -0.016 A 
HETATM   32  C   UNL     1      42.381  -9.346  11.031  1.00  0.00     0.079 A 
HETATM   33  C   UNL     1      41.165  -8.727  11.417  1.00  0.00    -0.016 A 
HETATM   34  C   UNL     1      40.614  -7.793  10.519  1.00  0.00     0.018 A 
BRANCH  31  35
HETATM   35  C   UNL     1      44.434  -9.620   9.394  1.00  0.00    -0.021 C 
HETATM   36  C   UNL     1      45.128  -8.556   8.519  1.00  0.00     0.019 C 
HETATM   37  C   UNL     1      45.397  -9.993  10.543  1.00  0.00     0.019 C 
HETATM   38  C   UNL     1      44.286 -10.923   8.559  1.00  0.00     0.019 C 
ENDBRANCH  31  35
BRANCH  32  39
HETATM   39  O   UNL     1      42.924 -10.237  11.911  1.00  0.00    -0.360 OA
HETATM   40  H   UNL     1      43.880 -10.244  11.743  1.00  0.00     0.217 HD
ENDBRANCH  32  39
BRANCH  33  41
HETATM   41  C   UNL     1      40.479  -9.021  12.778  1.00  0.00    -0.021 C 
HETATM   42  C   UNL     1      39.301  -8.048  13.005  1.00  0.00     0.019 C 
HETATM   43  C   UNL     1      39.882 -10.450  12.877  1.00  0.00     0.019 C 
HETATM   44  C   UNL     1      41.490  -8.905  13.941  1.00  0.00     0.019 C 
ENDBRANCH  33  41
ENDBRANCH  28  29
ENDBRANCH  27  28
ENDBRANCH  24  27
ENDBRANCH   1  23
TORSDOF 10
ENDMDL
MODEL 5
REMARK VINA RESULT:      -8.5      2.529      9.615
REMARK  10 active torsions:
REMARK  status: ('A' for Active; 'I' for Inactive)
REMARK    1  A    between atoms: N_15  and  C_16 
REMARK    2  A    between atoms: C_16  and  C_17 
REMARK    3  A    between atoms: C_17  and  N_18 
REMARK       I    between atoms: N_18  and  C_19 
REMARK    4  A    between atoms: C_19  and  C_20 
REMARK    5  A    between atoms: C_20  and  C_21 
REMARK    6  A    between atoms: C_21  and  C_22 
REMARK    7  A    between atoms: C_24  and  C_25 
REMARK    8  A    between atoms: C_29  and  O_30 
REMARK    9  A    between atoms: C_31  and  C_32 
REMARK   10  A    between atoms: C_38  and  O_39 
ROOT
HETATM    1  C   UNL     1      44.986 -11.252   6.843  1.00  0.00     0.142 C 
ENDROOT
BRANCH   1   2
HETATM    2  C   UNL     1      43.673 -10.856   6.152  1.00  0.00     0.151 C 
BRANCH   2   3
HETATM    3  N   UNL     1      43.369 -11.625   4.930  1.00  0.00    -0.291 N 
HETATM    4  C   UNL     1      44.292 -11.795   3.939  1.00  0.00     0.366 A 
HETATM    5  O   UNL     1      43.824 -12.676   3.020  1.00  0.00    -0.287 OA
HETATM    6  O   UNL     1      45.377 -11.252   3.847  1.00  0.00    -0.238 OA
HETATM    7  C   UNL     1      42.499 -13.195   3.375  1.00  0.00     0.126 A 
HETATM    8  C   UNL     1      41.624 -12.745   2.187  1.00  0.00     0.082 C 
HETATM    9  C   UNL     1      42.228 -12.478   4.748  1.00  0.00     0.166 A 
HETATM   10  C   UNL     1      42.692 -14.726   3.342  1.00  0.00     0.082 C 
HETATM   11  C   UNL     1      40.307 -13.500   1.999  1.00  0.00     0.122 C 
HETATM   12  N   UNL     1      40.611 -14.979   1.948  1.00  0.00    -0.059 N 
HETATM   13  C   UNL     1      39.715 -13.139   0.619  1.00  0.00     0.046 C 
HETATM   14  C   UNL     1      39.228 -13.211   3.044  1.00  0.00     0.046 C 
HETATM   15  C   UNL     1      41.486 -15.623   2.999  1.00  0.00     0.122 C 
HETATM   16  H   UNL     1      41.058 -15.155   1.035  1.00  0.00     0.279 HD
HETATM   17  H   UNL     1      39.722 -15.500   1.886  1.00  0.00     0.279 HD
HETATM   18  C   UNL     1      42.017 -16.928   2.356  1.00  0.00     0.046 C 
HETATM   19  C   UNL     1      40.628 -16.053   4.192  1.00  0.00     0.046 C 
HETATM   20  C   UNL     1      42.003 -13.387   5.950  1.00  0.00     0.074 C 
BRANCH   9  21
HETATM   21  O   UNL     1      41.126 -11.596   4.617  1.00  0.00    -0.368 OA
HETATM   22  H   UNL     1      40.657 -11.685   5.468  1.00  0.00     0.212 HD
ENDBRANCH   9  21
ENDBRANCH   2   3
ENDBRANCH   1   2
BRANCH   1  23
HETATM   23  N   UNL     1      45.087 -10.799   8.222  1.00  0.00    -0.359 N 
HETATM   24  C   UNL     1      45.818  -9.683   8.556  1.00  0.00     0.217 C 
HETATM   25  O   UNL     1      46.430  -9.023   7.722  1.00  0.00    -0.274 OA
HETATM   26  H   UNL     1      44.754 -11.400   8.965  1.00  0.00     0.162 HD
BRANCH  24  27
HETATM   27  C   UNL     1      45.784  -9.307  10.027  1.00  0.00     0.107 C 
BRANCH  27  28
HETATM   28  C   UNL     1      44.745 -10.065  10.857  1.00  0.00     0.048 C 
BRANCH  28  29
HETATM   29  C   UNL     1      43.398  -9.417  11.111  1.00  0.00    -0.057 A 
HETATM   30  C   UNL     1      42.333  -9.473  10.208  1.00  0.00     0.018 A 
HETATM   31  C   UNL     1      41.095  -8.833  10.435  1.00  0.00    -0.016 A 
HETATM   32  C   UNL     1      40.956  -8.167  11.671  1.00  0.00     0.079 A 
HETATM   33  C   UNL     1      41.987  -8.104  12.644  1.00  0.00    -0.016 A 
HETATM   34  C   UNL     1      43.208  -8.727  12.317  1.00  0.00     0.018 A 
BRANCH  31  35
HETATM   35  C   UNL     1      39.974  -9.020   9.374  1.00  0.00    -0.021 C 
HETATM   36  C   UNL     1      40.643  -9.461   8.056  1.00  0.00     0.019 C 
HETATM   37  C   UNL     1      38.883 -10.056   9.725  1.00  0.00     0.019 C 
HETATM   38  C   UNL     1      39.199  -7.698   9.113  1.00  0.00     0.019 C 
ENDBRANCH  31  35
BRANCH  32  39
HETATM   39  O   UNL     1      39.768  -7.580  11.997  1.00  0.00    -0.360 OA
HETATM   40  H   UNL     1      39.072  -8.209  11.749  1.00  0.00     0.217 HD
ENDBRANCH  32  39
BRANCH  33  41
HETATM   41  C   UNL     1      41.787  -7.422  14.023  1.00  0.00    -0.021 C 
HETATM   42  C   UNL     1      43.151  -7.007  14.618  1.00  0.00     0.019 C 
HETATM   43  C   UNL     1      40.934  -6.128  13.958  1.00  0.00     0.019 C 
HETATM   44  C   UNL     1      41.050  -8.364  15.001  1.00  0.00     0.019 C 
ENDBRANCH  33  41
ENDBRANCH  28  29
ENDBRANCH  27  28
ENDBRANCH  24  27
ENDBRANCH   1  23
TORSDOF 10
ENDMDL
MODEL 6
REMARK VINA RESULT:      -8.4      2.345     10.551
REMARK  10 active torsions:
REMARK  status: ('A' for Active; 'I' for Inactive)
REMARK    1  A    between atoms: N_15  and  C_16 
REMARK    2  A    between atoms: C_16  and  C_17 
REMARK    3  A    between atoms: C_17  and  N_18 
REMARK       I    between atoms: N_18  and  C_19 
REMARK    4  A    between atoms: C_19  and  C_20 
REMARK    5  A    between atoms: C_20  and  C_21 
REMARK    6  A    between atoms: C_21  and  C_22 
REMARK    7  A    between atoms: C_24  and  C_25 
REMARK    8  A    between atoms: C_29  and  O_30 
REMARK    9  A    between atoms: C_31  and  C_32 
REMARK   10  A    between atoms: C_38  and  O_39 
ROOT
HETATM    1  C   UNL     1      44.465 -10.233   8.036  1.00  0.00     0.142 C 
ENDROOT
BRANCH   1   2
HETATM    2  C   UNL     1      44.864 -11.562   7.378  1.00  0.00     0.151 C 
BRANCH   2   3
HETATM    3  N   UNL     1      44.075 -11.912   6.181  1.00  0.00    -0.291 N 
HETATM    4  C   UNL     1      44.559 -11.717   4.919  1.00  0.00     0.366 A 
HETATM    5  O   UNL     1      43.719 -12.278   4.013  1.00  0.00    -0.287 OA
HETATM    6  O   UNL     1      45.577 -11.129   4.607  1.00  0.00    -0.238 OA
HETATM    7  C   UNL     1      42.575 -12.938   4.652  1.00  0.00     0.126 A 
HETATM    8  C   UNL     1      41.368 -12.169   4.076  1.00  0.00     0.082 C 
HETATM    9  C   UNL     1      42.881 -12.710   6.178  1.00  0.00     0.166 A 
HETATM   10  C   UNL     1      42.618 -14.369   4.075  1.00  0.00     0.082 C 
HETATM   11  C   UNL     1      40.016 -12.880   4.163  1.00  0.00     0.122 C 
HETATM   12  N   UNL     1      40.160 -14.251   3.545  1.00  0.00    -0.059 N 
HETATM   13  C   UNL     1      38.996 -12.122   3.287  1.00  0.00     0.046 C 
HETATM   14  C   UNL     1      39.418 -12.985   5.566  1.00  0.00     0.046 C 
HETATM   15  C   UNL     1      41.301 -15.159   3.940  1.00  0.00     0.122 C 
HETATM   16  H   UNL     1      40.229 -14.106   2.525  1.00  0.00     0.279 HD
HETATM   17  H   UNL     1      39.270 -14.761   3.656  1.00  0.00     0.279 HD
HETATM   18  C   UNL     1      41.455 -16.167   2.774  1.00  0.00     0.046 C 
HETATM   19  C   UNL     1      40.903 -15.983   5.168  1.00  0.00     0.046 C 
HETATM   20  C   UNL     1      43.034 -13.963   7.029  1.00  0.00     0.074 C 
BRANCH   9  21
HETATM   21  O   UNL     1      41.882 -11.879   6.745  1.00  0.00    -0.368 OA
HETATM   22  H   UNL     1      41.123 -11.985   6.141  1.00  0.00     0.212 HD
ENDBRANCH   9  21
ENDBRANCH   2   3
ENDBRANCH   1   2
BRANCH   1  23
HETATM   23  N   UNL     1      43.491 -10.374   9.108  1.00  0.00    -0.359 N 
HETATM   24  C   UNL     1      43.755  -9.915  10.378  1.00  0.00     0.217 C 
HETATM   25  O   UNL     1      44.819  -9.381  10.677  1.00  0.00    -0.274 OA
HETATM   26  H   UNL     1      42.679 -10.958   8.964  1.00  0.00     0.162 HD
BRANCH  24  27
HETATM   27  C   UNL     1      42.621 -10.085  11.373  1.00  0.00     0.107 C 
BRANCH  27  28
HETATM   28  C   UNL     1      42.922  -9.569  12.782  1.00  0.00     0.048 C 
BRANCH  28  29
HETATM   29  C   UNL     1      42.442  -8.184  13.171  1.00  0.00    -0.057 A 
HETATM   30  C   UNL     1      42.445  -7.093  12.296  1.00  0.00     0.018 A 
HETATM   31  C   UNL     1      42.033  -5.798  12.678  1.00  0.00    -0.016 A 
HETATM   32  C   UNL     1      41.551  -5.662  13.997  1.00  0.00     0.079 A 
HETATM   33  C   UNL     1      41.490  -6.737  14.920  1.00  0.00    -0.016 A 
HETATM   34  C   UNL     1      41.967  -7.985  14.475  1.00  0.00     0.018 A 
BRANCH  31  35
HETATM   35  C   UNL     1      42.033  -4.685  11.593  1.00  0.00    -0.021 C 
HETATM   36  C   UNL     1      42.831  -3.488  12.147  1.00  0.00     0.019 C 
HETATM   37  C   UNL     1      42.646  -5.075  10.229  1.00  0.00     0.019 C 
HETATM   38  C   UNL     1      40.593  -4.203  11.260  1.00  0.00     0.019 C 
ENDBRANCH  31  35
BRANCH  32  39
HETATM   39  O   UNL     1      41.071  -4.457  14.424  1.00  0.00    -0.360 OA
HETATM   40  H   UNL     1      40.606  -4.062  13.670  1.00  0.00     0.217 HD
ENDBRANCH  32  39
BRANCH  33  41
HETATM   41  C   UNL     1      40.894  -6.576  16.344  1.00  0.00    -0.021 C 
HETATM   42  C   UNL     1      39.403  -6.179  16.258  1.00  0.00     0.019 C 
HETATM   43  C   UNL     1      40.945  -7.876  17.190  1.00  0.00     0.019 C 
HETATM   44  C   UNL     1      41.676  -5.516  17.152  1.00  0.00     0.019 C 
ENDBRANCH  33  41
ENDBRANCH  28  29
ENDBRANCH  27  28
ENDBRANCH  24  27
ENDBRANCH   1  23
TORSDOF 10
ENDMDL
MODEL 7
REMARK VINA RESULT:      -8.2      1.656      2.696
REMARK  10 active torsions:
REMARK  status: ('A' for Active; 'I' for Inactive)
REMARK    1  A    between atoms: N_15  and  C_16 
REMARK    2  A    between atoms: C_16  and  C_17 
REMARK    3  A    between atoms: C_17  and  N_18 
REMARK       I    between atoms: N_18  and  C_19 
REMARK    4  A    between atoms: C_19  and  C_20 
REMARK    5  A    between atoms: C_20  and  C_21 
REMARK    6  A    between atoms: C_21  and  C_22 
REMARK    7  A    between atoms: C_24  and  C_25 
REMARK    8  A    between atoms: C_29  and  O_30 
REMARK    9  A    between atoms: C_31  and  C_32 
REMARK   10  A    between atoms: C_38  and  O_39 
ROOT
HETATM    1  C   UNL     1      44.378 -10.411   7.227  1.00  0.00     0.142 C 
ENDROOT
BRANCH   1   2
HETATM    2  C   UNL     1      44.626  -9.240   8.189  1.00  0.00     0.151 C 
BRANCH   2   3
HETATM    3  N   UNL     1      44.060  -9.428   9.539  1.00  0.00    -0.291 N 
HETATM    4  C   UNL     1      44.688 -10.190  10.482  1.00  0.00     0.366 A 
HETATM    5  O   UNL     1      44.056 -10.057  11.675  1.00  0.00    -0.287 OA
HETATM    6  O   UNL     1      45.661 -10.903  10.321  1.00  0.00    -0.238 OA
HETATM    7  C   UNL     1      42.923  -9.128  11.602  1.00  0.00     0.126 A 
HETATM    8  C   UNL     1      41.724 -10.016  11.993  1.00  0.00     0.082 C 
HETATM    9  C   UNL     1      42.984  -8.662  10.101  1.00  0.00     0.166 A 
HETATM   10  C   UNL     1      43.219  -8.111  12.726  1.00  0.00     0.082 C 
HETATM   11  C   UNL     1      40.469  -9.280  12.465  1.00  0.00     0.122 C 
HETATM   12  N   UNL     1      40.862  -8.340  13.581  1.00  0.00    -0.059 N 
HETATM   13  C   UNL     1      39.496 -10.302  13.092  1.00  0.00     0.046 C 
HETATM   14  C   UNL     1      39.699  -8.529  11.379  1.00  0.00     0.046 C 
HETATM   15  C   UNL     1      42.038  -7.405  13.423  1.00  0.00     0.122 C 
HETATM   16  H   UNL     1      41.054  -8.929  14.406  1.00  0.00     0.279 HD
HETATM   17  H   UNL     1      40.034  -7.793  13.863  1.00  0.00     0.279 HD
HETATM   18  C   UNL     1      42.474  -7.035  14.862  1.00  0.00     0.046 C 
HETATM   19  C   UNL     1      41.576  -6.100  12.767  1.00  0.00     0.046 C 
HETATM   20  C   UNL     1      43.167  -7.168   9.866  1.00  0.00     0.074 C 
BRANCH   9  21
HETATM   21  O   UNL     1      41.823  -9.103   9.418  1.00  0.00    -0.368 OA
HETATM   22  H   UNL     1      41.322  -9.588  10.102  1.00  0.00     0.212 HD
ENDBRANCH   9  21
ENDBRANCH   2   3
ENDBRANCH   1   2
BRANCH   1  23
HETATM   23  N   UNL     1      43.062 -10.397   6.607  1.00  0.00    -0.359 N 
HETATM   24  C   UNL     1      42.410 -11.566   6.287  1.00  0.00     0.217 C 
HETATM   25  O   UNL     1      42.903 -12.671   6.490  1.00  0.00    -0.274 OA
HETATM   26  H   UNL     1      42.690  -9.523   6.258  1.00  0.00     0.162 HD
BRANCH  24  27
HETATM   27  C   UNL     1      41.023 -11.388   5.696  1.00  0.00     0.107 C 
BRANCH  27  28
HETATM   28  C   UNL     1      41.001 -10.838   4.268  1.00  0.00     0.048 C 
BRANCH  28  29
HETATM   29  C   UNL     1      41.034 -11.814   3.108  1.00  0.00    -0.057 A 
HETATM   30  C   UNL     1      40.533 -11.519   1.837  1.00  0.00     0.018 A 
HETATM   31  C   UNL     1      40.531 -12.447   0.774  1.00  0.00    -0.016 A 
HETATM   32  C   UNL     1      41.127 -13.699   1.040  1.00  0.00     0.079 A 
HETATM   33  C   UNL     1      41.683 -14.046   2.297  1.00  0.00    -0.016 A 
HETATM   34  C   UNL     1      41.598 -13.080   3.319  1.00  0.00     0.018 A 
BRANCH  31  35
HETATM   35  C   UNL     1      39.995 -11.972  -0.606  1.00  0.00    -0.021 C 
HETATM   36  C   UNL     1      39.457 -10.537  -0.432  1.00  0.00     0.019 C 
HETATM   37  C   UNL     1      41.023 -11.959  -1.759  1.00  0.00     0.019 C 
HETATM   38  C   UNL     1      38.835 -12.873  -1.116  1.00  0.00     0.019 C 
ENDBRANCH  31  35
BRANCH  32  39
HETATM   39  O   UNL     1      41.226 -14.629   0.046  1.00  0.00    -0.360 OA
HETATM   40  H   UNL     1      42.004 -14.388  -0.482  1.00  0.00     0.217 HD
ENDBRANCH  32  39
BRANCH  33  41
HETATM   41  C   UNL     1      42.390 -15.405   2.545  1.00  0.00    -0.021 C 
HETATM   42  C   UNL     1      42.937 -15.469   3.989  1.00  0.00     0.019 C 
HETATM   43  C   UNL     1      41.454 -16.632   2.385  1.00  0.00     0.019 C 
HETATM   44  C   UNL     1      43.541 -15.619   1.536  1.00  0.00     0.019 C 
ENDBRANCH  33  41
ENDBRANCH  28  29
ENDBRANCH  27  28
ENDBRANCH  24  27
ENDBRANCH   1  23
TORSDOF 10
ENDMDL
MODEL 8
REMARK VINA RESULT:      -8.2      2.249      4.654
REMARK  10 active torsions:
REMARK  status: ('A' for Active; 'I' for Inactive)
REMARK    1  A    between atoms: N_15  and  C_16 
REMARK    2  A    between atoms: C_16  and  C_17 
REMARK    3  A    between atoms: C_17  and  N_18 
REMARK       I    between atoms: N_18  and  C_19 
REMARK    4  A    between atoms: C_19  and  C_20 
REMARK    5  A    between atoms: C_20  and  C_21 
REMARK    6  A    between atoms: C_21  and  C_22 
REMARK    7  A    between atoms: C_24  and  C_25 
REMARK    8  A    between atoms: C_29  and  O_30 
REMARK    9  A    between atoms: C_31  and  C_32 
REMARK   10  A    between atoms: C_38  and  O_39 
ROOT
HETATM    1  C   UNL     1      43.415  -8.645  10.246  1.00  0.00     0.142 C 
ENDROOT
BRANCH   1   2
HETATM    2  C   UNL     1      43.696  -8.564  11.754  1.00  0.00     0.151 C 
BRANCH   2   3
HETATM    3  N   UNL     1      42.492  -8.418  12.593  1.00  0.00    -0.291 N 
HETATM    4  C   UNL     1      41.634  -9.459  12.808  1.00  0.00     0.366 A 
HETATM    5  O   UNL     1      40.716  -9.113  13.745  1.00  0.00    -0.287 OA
HETATM    6  O   UNL     1      41.648 -10.545  12.259  1.00  0.00    -0.238 OA
HETATM    7  C   UNL     1      40.933  -7.755  14.258  1.00  0.00     0.126 A 
HETATM    8  C   UNL     1      39.621  -7.034  13.886  1.00  0.00     0.082 C 
HETATM    9  C   UNL     1      42.219  -7.313  13.469  1.00  0.00     0.166 A 
HETATM   10  C   UNL     1      41.012  -7.958  15.786  1.00  0.00     0.082 C 
HETATM   11  C   UNL     1      39.315  -5.754  14.665  1.00  0.00     0.122 C 
HETATM   12  N   UNL     1      39.387  -6.068  16.141  1.00  0.00    -0.059 N 
HETATM   13  C   UNL     1      37.854  -5.337  14.389  1.00  0.00     0.046 C 
HETATM   14  C   UNL     1      40.199  -4.552  14.330  1.00  0.00     0.046 C 
HETATM   15  C   UNL     1      40.573  -6.808  16.715  1.00  0.00     0.122 C 
HETATM   16  H   UNL     1      38.547  -6.627  16.363  1.00  0.00     0.279 HD
HETATM   17  H   UNL     1      39.244  -5.197  16.675  1.00  0.00     0.279 HD
HETATM   18  C   UNL     1      40.077  -7.421  18.048  1.00  0.00     0.046 C 
HETATM   19  C   UNL     1      41.673  -5.810  17.087  1.00  0.00     0.046 C 
HETATM   20  C   UNL     1      43.432  -6.943  14.311  1.00  0.00     0.074 C 
BRANCH   9  21
HETATM   21  O   UNL     1      41.901  -6.232  12.608  1.00  0.00    -0.368 OA
HETATM   22  H   UNL     1      41.010  -5.959  12.900  1.00  0.00     0.212 HD
ENDBRANCH   9  21
ENDBRANCH   2   3
ENDBRANCH   1   2
BRANCH   1  23
HETATM   23  N   UNL     1      44.134  -9.712   9.568  1.00  0.00    -0.359 N 
HETATM   24  C   UNL     1      45.141  -9.439   8.672  1.00  0.00     0.217 C 
HETATM   25  O   UNL     1      45.475  -8.293   8.387  1.00  0.00    -0.274 OA
HETATM   26  H   UNL     1      43.784 -10.660   9.629  1.00  0.00     0.162 HD
BRANCH  24  27
HETATM   27  C   UNL     1      45.832 -10.658   8.088  1.00  0.00     0.107 C 
BRANCH  27  28
HETATM   28  C   UNL     1      45.450 -10.979   6.641  1.00  0.00     0.048 C 
BRANCH  28  29
HETATM   29  C   UNL     1      44.160 -11.731   6.376  1.00  0.00    -0.057 A 
HETATM   30  C   UNL     1      44.071 -13.126   6.354  1.00  0.00     0.018 A 
HETATM   31  C   UNL     1      42.876 -13.819   6.067  1.00  0.00    -0.016 A 
HETATM   32  C   UNL     1      41.730 -13.021   5.856  1.00  0.00     0.079 A 
HETATM   33  C   UNL     1      41.748 -11.604   5.900  1.00  0.00    -0.016 A 
HETATM   34  C   UNL     1      42.992 -10.991   6.143  1.00  0.00     0.018 A 
BRANCH  31  35
HETATM   35  C   UNL     1      42.901 -15.372   6.129  1.00  0.00    -0.021 C 
HETATM   36  C   UNL     1      44.337 -15.804   6.490  1.00  0.00     0.019 C 
HETATM   37  C   UNL     1      41.938 -16.020   7.147  1.00  0.00     0.019 C 
HETATM   38  C   UNL     1      42.525 -16.011   4.762  1.00  0.00     0.019 C 
ENDBRANCH  31  35
BRANCH  32  39
HETATM   39  O   UNL     1      40.520 -13.614   5.639  1.00  0.00    -0.360 OA
HETATM   40  H   UNL     1      40.685 -14.570   5.597  1.00  0.00     0.217 HD
ENDBRANCH  32  39
BRANCH  33  41
HETATM   41  C   UNL     1      40.462 -10.752   5.731  1.00  0.00    -0.021 C 
HETATM   42  C   UNL     1      40.809  -9.246   5.763  1.00  0.00     0.019 C 
HETATM   43  C   UNL     1      39.728 -10.995   4.385  1.00  0.00     0.019 C 
HETATM   44  C   UNL     1      39.434 -11.080   6.837  1.00  0.00     0.019 C 
ENDBRANCH  33  41
ENDBRANCH  28  29
ENDBRANCH  27  28
ENDBRANCH  24  27
ENDBRANCH   1  23
TORSDOF 10
ENDMDL
MODEL 9
REMARK VINA RESULT:      -8.2      2.336      9.275
REMARK  10 active torsions:
REMARK  status: ('A' for Active; 'I' for Inactive)
REMARK    1  A    between atoms: N_15  and  C_16 
REMARK    2  A    between atoms: C_16  and  C_17 
REMARK    3  A    between atoms: C_17  and  N_18 
REMARK       I    between atoms: N_18  and  C_19 
REMARK    4  A    between atoms: C_19  and  C_20 
REMARK    5  A    between atoms: C_20  and  C_21 
REMARK    6  A    between atoms: C_21  and  C_22 
REMARK    7  A    between atoms: C_24  and  C_25 
REMARK    8  A    between atoms: C_29  and  O_30 
REMARK    9  A    between atoms: C_31  and  C_32 
REMARK   10  A    between atoms: C_38  and  O_39 
ROOT
HETATM    1  C   UNL     1      40.094  -8.601   6.235  1.00  0.00     0.142 C 
ENDROOT
BRANCH   1   2
HETATM    2  C   UNL     1      40.894  -9.740   6.884  1.00  0.00     0.151 C 
BRANCH   2   3
HETATM    3  N   UNL     1      40.527 -11.090   6.413  1.00  0.00    -0.291 N 
HETATM    4  C   UNL     1      39.243 -11.549   6.475  1.00  0.00     0.366 A 
HETATM    5  O   UNL     1      39.147 -12.736   5.825  1.00  0.00    -0.287 OA
HETATM    6  O   UNL     1      38.299 -11.014   7.025  1.00  0.00    -0.238 OA
HETATM    7  C   UNL     1      40.426 -13.151   5.238  1.00  0.00     0.126 A 
HETATM    8  C   UNL     1      40.710 -14.492   5.945  1.00  0.00     0.082 C 
HETATM    9  C   UNL     1      41.363 -11.949   5.623  1.00  0.00     0.166 A 
HETATM   10  C   UNL     1      40.076 -13.397   3.755  1.00  0.00     0.082 C 
HETATM   11  C   UNL     1      41.710 -15.418   5.252  1.00  0.00     0.122 C 
HETATM   12  N   UNL     1      41.260 -15.618   3.823  1.00  0.00    -0.059 N 
HETATM   13  C   UNL     1      41.648 -16.810   5.917  1.00  0.00     0.046 C 
HETATM   14  C   UNL     1      43.169 -14.961   5.294  1.00  0.00     0.046 C 
HETATM   15  C   UNL     1      40.893 -14.435   2.958  1.00  0.00     0.122 C 
HETATM   16  H   UNL     1      40.432 -16.233   3.861  1.00  0.00     0.279 HD
HETATM   17  H   UNL     1      41.963 -16.190   3.329  1.00  0.00     0.279 HD
HETATM   18  C   UNL     1      39.992 -15.004   1.834  1.00  0.00     0.046 C 
HETATM   19  C   UNL     1      42.147 -13.892   2.267  1.00  0.00     0.046 C 
HETATM   20  C   UNL     1      42.010 -11.201   4.464  1.00  0.00     0.074 C 
BRANCH   9  21
HETATM   21  O   UNL     1      42.374 -12.397   6.511  1.00  0.00    -0.368 OA
HETATM   22  H   UNL     1      43.184 -12.381   5.966  1.00  0.00     0.212 HD
ENDBRANCH   9  21
ENDBRANCH   2   3
ENDBRANCH   1   2
BRANCH   1  23
HETATM   23  N   UNL     1      40.265  -7.313   6.890  1.00  0.00    -0.359 N 
HETATM   24  C   UNL     1      39.498  -6.955   7.975  1.00  0.00     0.217 C 
HETATM   25  O   UNL     1      38.629  -7.688   8.436  1.00  0.00    -0.274 OA
HETATM   26  H   UNL     1      40.837  -6.606   6.446  1.00  0.00     0.162 HD
BRANCH  24  27
HETATM   27  C   UNL     1      39.831  -5.603   8.580  1.00  0.00     0.107 C 
BRANCH  27  28
HETATM   28  C   UNL     1      41.199  -5.526   9.261  1.00  0.00     0.048 C 
BRANCH  28  29
HETATM   29  C   UNL     1      41.700  -6.731  10.035  1.00  0.00    -0.057 A 
HETATM   30  C   UNL     1      41.111  -7.186  11.218  1.00  0.00     0.018 A 
HETATM   31  C   UNL     1      41.607  -8.284  11.954  1.00  0.00    -0.016 A 
HETATM   32  C   UNL     1      42.716  -8.956  11.396  1.00  0.00     0.079 A 
HETATM   33  C   UNL     1      43.335  -8.565  10.181  1.00  0.00    -0.016 A 
HETATM   34  C   UNL     1      42.809  -7.428   9.537  1.00  0.00     0.018 A 
BRANCH  31  35
HETATM   35  C   UNL     1      40.826  -8.721  13.225  1.00  0.00    -0.021 C 
HETATM   36  C   UNL     1      39.694  -7.699  13.455  1.00  0.00     0.019 C 
HETATM   37  C   UNL     1      40.193 -10.129  13.174  1.00  0.00     0.019 C 
HETATM   38  C   UNL     1      41.737  -8.738  14.485  1.00  0.00     0.019 C 
ENDBRANCH  31  35
BRANCH  32  39
HETATM   39  O   UNL     1      43.215 -10.069  12.010  1.00  0.00    -0.360 OA
HETATM   40  H   UNL     1      43.946  -9.768  12.574  1.00  0.00     0.217 HD
ENDBRANCH  32  39
BRANCH  33  41
HETATM   41  C   UNL     1      44.511  -9.361   9.556  1.00  0.00    -0.021 C 
HETATM   42  C   UNL     1      43.987 -10.647   8.879  1.00  0.00     0.019 C 
HETATM   43  C   UNL     1      45.276  -8.578   8.455  1.00  0.00     0.019 C 
HETATM   44  C   UNL     1      45.565  -9.720  10.627  1.00  0.00     0.019 C 
ENDBRANCH  33  41
ENDBRANCH  28  29
ENDBRANCH  27  28
ENDBRANCH  24  27
ENDBRANCH   1  23
TORSDOF 10
ENDMDL
MODEL 10
REMARK VINA RESULT:      -8.1      2.436     10.638
REMARK  10 active torsions:
REMARK  status: ('A' for Active; 'I' for Inactive)
REMARK    1  A    between atoms: N_15  and  C_16 
REMARK    2  A    between atoms: C_16  and  C_17 
REMARK    3  A    between atoms: C_17  and  N_18 
REMARK       I    between atoms: N_18  and  C_19 
REMARK    4  A    between atoms: C_19  and  C_20 
REMARK    5  A    between atoms: C_20  and  C_21 
REMARK    6  A    between atoms: C_21  and  C_22 
REMARK    7  A    between atoms: C_24  and  C_25 
REMARK    8  A    between atoms: C_29  and  O_30 
REMARK    9  A    between atoms: C_31  and  C_32 
REMARK   10  A    between atoms: C_38  and  O_39 
ROOT
HETATM    1  C   UNL     1      43.556 -11.552   6.947  1.00  0.00     0.142 C 
ENDROOT
BRANCH   1   2
HETATM    2  C   UNL     1      42.761 -11.042   5.736  1.00  0.00     0.151 C 
BRANCH   2   3
HETATM    3  N   UNL     1      42.830 -11.914   4.548  1.00  0.00    -0.291 N 
HETATM    4  C   UNL     1      43.924 -11.930   3.730  1.00  0.00     0.366 A 
HETATM    5  O   UNL     1      43.806 -12.932   2.824  1.00  0.00    -0.287 OA
HETATM    6  O   UNL     1      44.877 -11.174   3.766  1.00  0.00    -0.238 OA
HETATM    7  C   UNL     1      42.572 -13.704   3.008  1.00  0.00     0.126 A 
HETATM    8  C   UNL     1      41.839 -13.506   1.665  1.00  0.00     0.082 C 
HETATM    9  C   UNL     1      41.933 -12.997   4.259  1.00  0.00     0.166 A 
HETATM   10  C   UNL     1      43.072 -15.159   3.130  1.00  0.00     0.082 C 
HETATM   11  C   UNL     1      40.753 -14.531   1.335  1.00  0.00     0.122 C 
HETATM   12  N   UNL     1      41.353 -15.912   1.453  1.00  0.00    -0.059 N 
HETATM   13  C   UNL     1      40.344 -14.368  -0.145  1.00  0.00     0.046 C 
HETATM   14  C   UNL     1      39.477 -14.428   2.171  1.00  0.00     0.046 C 
HETATM   15  C   UNL     1      42.147 -16.307   2.675  1.00  0.00     0.122 C 
HETATM   16  H   UNL     1      41.975 -16.032   0.637  1.00  0.00     0.279 HD
HETATM   17  H   UNL     1      40.611 -16.612   1.294  1.00  0.00     0.279 HD
HETATM   18  C   UNL     1      43.033 -17.498   2.232  1.00  0.00     0.046 C 
HETATM   19  C   UNL     1      41.204 -16.852   3.751  1.00  0.00     0.046 C 
HETATM   20  C   UNL     1      41.694 -13.876   5.480  1.00  0.00     0.074 C 
BRANCH   9  21
HETATM   21  O   UNL     1      40.714 -12.376   3.886  1.00  0.00    -0.368 OA
HETATM   22  H   UNL     1      40.952 -11.432   3.806  1.00  0.00     0.212 HD
ENDBRANCH   9  21
ENDBRANCH   2   3
ENDBRANCH   1   2
BRANCH   1  23
HETATM   23  N   UNL     1      43.922 -10.509   7.893  1.00  0.00    -0.359 N 
HETATM   24  C   UNL     1      45.193  -9.984   7.922  1.00  0.00     0.217 C 
HETATM   25  O   UNL     1      46.082 -10.372   7.170  1.00  0.00    -0.274 OA
HETATM   26  H   UNL     1      43.287 -10.281   8.647  1.00  0.00     0.162 HD
BRANCH  24  27
HETATM   27  C   UNL     1      45.407  -8.867   8.928  1.00  0.00     0.107 C 
BRANCH  27  28
HETATM   28  C   UNL     1      44.440  -7.689   8.790  1.00  0.00     0.048 C 
BRANCH  28  29
HETATM   29  C   UNL     1      43.488  -7.387   9.931  1.00  0.00    -0.057 A 
HETATM   30  C   UNL     1      43.093  -8.338  10.878  1.00  0.00     0.018 A 
HETATM   31  C   UNL     1      42.175  -8.059  11.913  1.00  0.00    -0.016 A 
HETATM   32  C   UNL     1      41.708  -6.730  11.990  1.00  0.00     0.079 A 
HETATM   33  C   UNL     1      42.099  -5.712  11.082  1.00  0.00    -0.016 A 
HETATM   34  C   UNL     1      42.978  -6.087  10.048  1.00  0.00     0.018 A 
BRANCH  31  35
HETATM   35  C   UNL     1      41.863  -9.191  12.932  1.00  0.00    -0.021 C 
HETATM   36  C   UNL     1      42.755 -10.399  12.581  1.00  0.00     0.019 C 
HETATM   37  C   UNL     1      42.099  -8.842  14.419  1.00  0.00     0.019 C 
HETATM   38  C   UNL     1      40.376  -9.640  12.859  1.00  0.00     0.019 C 
ENDBRANCH  31  35
BRANCH  32  39
HETATM   39  O   UNL     1      40.870  -6.361  13.003  1.00  0.00    -0.360 OA
HETATM   40  H   UNL     1      40.193  -5.789  12.607  1.00  0.00     0.217 HD
ENDBRANCH  32  39
BRANCH  33  41
HETATM   41  C   UNL     1      41.622  -4.243  11.228  1.00  0.00    -0.021 C 
HETATM   42  C   UNL     1      42.076  -3.410  10.008  1.00  0.00     0.019 C 
HETATM   43  C   UNL     1      40.079  -4.094  11.301  1.00  0.00     0.019 C 
HETATM   44  C   UNL     1      42.168  -3.613  12.529  1.00  0.00     0.019 C 
ENDBRANCH  33  41
ENDBRANCH  28  29
ENDBRANCH  27  28
ENDBRANCH  24  27
ENDBRANCH   1  23
TORSDOF 10
ENDMDL
