MODEL 1
REMARK VINA RESULT:      -8.7      0.000      0.000
REMARK  3 active torsions:
REMARK  status: ('A' for Active; 'I' for Inactive)
REMARK    1  A    between atoms: C_2  and  N_3 
REMARK       I    between atoms: N_3  and  C_4 
REMARK    2  A    between atoms: C_4  and  C_5 
REMARK    3  A    between atoms: C_22  and  C_23 
REMARK       I    between atoms: C_23  and  N_24 
ROOT
HETATM    1  C   UNL     1      42.862 -16.434   4.461  1.00  0.00     0.109 A 
HETATM    2  C   UNL     1      42.134 -16.746   3.308  1.00  0.00     0.136 A 
HETATM    3  F   UNL     1      41.131 -15.958   2.892  1.00  0.00    -0.205 F 
HETATM    4  C   UNL     1      42.414 -17.881   2.544  1.00  0.00     0.066 A 
HETATM    5  C   UNL     1      43.444 -18.740   2.924  1.00  0.00     0.050 A 
HETATM    6  C   UNL     1      43.735 -19.910   2.150  1.00  0.00     0.099 C 
HETATM    7  N   UNL     1      43.966 -20.857   1.521  1.00  0.00    -0.191 NA
HETATM    8  C   UNL     1      44.186 -18.449   4.069  1.00  0.00     0.066 A 
HETATM    9  C   UNL     1      43.894 -17.308   4.823  1.00  0.00     0.136 A 
HETATM   10  F   UNL     1      44.644 -17.100   5.913  1.00  0.00    -0.205 F 
ENDROOT
BRANCH   1  11
HETATM   11  C   UNL     1      42.573 -15.230   5.301  1.00  0.00     0.262 C 
HETATM   12  N   UNL     1      42.852 -13.998   4.731  1.00  0.00    -0.323 N 
HETATM   13  H   UNL     1      43.270 -13.992   3.807  1.00  0.00     0.169 HD
HETATM   14  O   UNL     1      42.114 -15.395   6.424  1.00  0.00    -0.267 OA
BRANCH  12  15
HETATM   15  C   UNL     1      42.627 -12.717   5.284  1.00  0.00     0.036 A 
HETATM   16  C   UNL     1      41.516 -11.922   4.995  1.00  0.00     0.032 A 
HETATM   17  C   UNL     1      41.351 -10.649   5.561  1.00  0.00     0.034 A 
HETATM   18  C   UNL     1      42.346 -10.202   6.432  1.00  0.00     0.063 A 
HETATM   19  C   UNL     1      43.465 -10.959   6.750  1.00  0.00     0.030 A 
HETATM   20  N   UNL     1      42.485  -9.037   7.133  1.00  0.00    -0.277 N 
HETATM   21  C   UNL     1      43.608 -12.235   6.168  1.00  0.00     0.046 A 
HETATM   22  C   UNL     1      44.213 -10.151   7.657  1.00  0.00     0.156 A 
HETATM   23  N   UNL     1      43.598  -8.968   7.883  1.00  0.00    -0.168 NA
HETATM   24  H   UNL     1      41.850  -8.246   7.139  1.00  0.00     0.189 HD
BRANCH  22  25
HETATM   25  C   UNL     1      45.490 -10.489   8.299  1.00  0.00     0.270 C 
HETATM   26  N   UNL     1      46.578 -10.362   7.481  1.00  0.00    -0.365 N 
HETATM   27  H   UNL     1      46.434 -10.054   6.527  1.00  0.00     0.159 HD
HETATM   28  H   UNL     1      47.500 -10.568   7.833  1.00  0.00     0.159 HD
HETATM   29  O   UNL     1      45.606 -10.854   9.465  1.00  0.00    -0.266 OA
ENDBRANCH  22  25
ENDBRANCH  12  15
ENDBRANCH   1  11
TORSDOF 3
ENDMDL
MODEL 2
REMARK VINA RESULT:      -8.6      0.065      1.657
REMARK  3 active torsions:
REMARK  status: ('A' for Active; 'I' for Inactive)
REMARK    1  A    between atoms: C_2  and  N_3 
REMARK       I    between atoms: N_3  and  C_4 
REMARK    2  A    between atoms: C_4  and  C_5 
REMARK    3  A    between atoms: C_22  and  C_23 
REMARK       I    between atoms: C_23  and  N_24 
ROOT
HETATM    1  C   UNL     1      42.901 -16.480   4.554  1.00  0.00     0.109 A 
HETATM    2  C   UNL     1      43.926 -17.374   4.880  1.00  0.00     0.136 A 
HETATM    3  F   UNL     1      44.687 -17.183   5.967  1.00  0.00    -0.205 F 
HETATM    4  C   UNL     1      44.203 -18.496   4.095  1.00  0.00     0.066 A 
HETATM    5  C   UNL     1      43.447 -18.749   2.951  1.00  0.00     0.050 A 
HETATM    6  C   UNL     1      43.728 -19.895   2.136  1.00  0.00     0.099 C 
HETATM    7  N   UNL     1      43.960 -20.822   1.479  1.00  0.00    -0.191 NA
HETATM    8  C   UNL     1      42.418 -17.873   2.607  1.00  0.00     0.066 A 
HETATM    9  C   UNL     1      42.153 -16.755   3.403  1.00  0.00     0.136 A 
HETATM   10  F   UNL     1      41.155 -15.956   3.003  1.00  0.00    -0.205 F 
ENDROOT
BRANCH   1  11
HETATM   11  C   UNL     1      42.594 -15.267   5.373  1.00  0.00     0.262 C 
HETATM   12  N   UNL     1      42.891 -14.041   4.798  1.00  0.00    -0.323 N 
HETATM   13  H   UNL     1      43.333 -14.047   3.885  1.00  0.00     0.169 HD
HETATM   14  O   UNL     1      42.104 -15.418   6.486  1.00  0.00    -0.267 OA
BRANCH  12  15
HETATM   15  C   UNL     1      42.656 -12.754   5.331  1.00  0.00     0.036 A 
HETATM   16  C   UNL     1      41.540 -11.972   5.028  1.00  0.00     0.032 A 
HETATM   17  C   UNL     1      41.364 -10.692   5.574  1.00  0.00     0.034 A 
HETATM   18  C   UNL     1      42.354 -10.224   6.440  1.00  0.00     0.063 A 
HETATM   19  C   UNL     1      43.478 -10.967   6.771  1.00  0.00     0.030 A 
HETATM   20  N   UNL     1      42.484  -9.047   7.123  1.00  0.00    -0.277 N 
HETATM   21  C   UNL     1      43.632 -12.251   6.209  1.00  0.00     0.046 A 
HETATM   22  C   UNL     1      44.219 -10.140   7.666  1.00  0.00     0.156 A 
HETATM   23  N   UNL     1      43.595  -8.959   7.874  1.00  0.00    -0.168 NA
HETATM   24  H   UNL     1      41.843  -8.261   7.116  1.00  0.00     0.189 HD
BRANCH  22  25
HETATM   25  C   UNL     1      45.497 -10.459   8.316  1.00  0.00     0.270 C 
HETATM   26  N   UNL     1      46.589 -10.306   7.507  1.00  0.00    -0.365 N 
HETATM   27  H   UNL     1      46.446  -9.994   6.554  1.00  0.00     0.159 HD
HETATM   28  H   UNL     1      47.512 -10.497   7.864  1.00  0.00     0.159 HD
HETATM   29  O   UNL     1      45.611 -10.831   9.480  1.00  0.00    -0.266 OA
ENDBRANCH  22  25
ENDBRANCH  12  15
ENDBRANCH   1  11
TORSDOF 3
ENDMDL
MODEL 3
REMARK VINA RESULT:      -8.4      5.008      7.067
REMARK  3 active torsions:
REMARK  status: ('A' for Active; 'I' for Inactive)
REMARK    1  A    between atoms: C_2  and  N_3 
REMARK       I    between atoms: N_3  and  C_4 
REMARK    2  A    between atoms: C_4  and  C_5 
REMARK    3  A    between atoms: C_22  and  C_23 
REMARK       I    between atoms: C_23  and  N_24 
ROOT
HETATM    1  C   UNL     1      42.750 -16.245   3.339  1.00  0.00     0.109 A 
HETATM    2  C   UNL     1      42.798 -16.487   4.715  1.00  0.00     0.136 A 
HETATM    3  F   UNL     1      42.361 -15.570   5.591  1.00  0.00    -0.205 F 
HETATM    4  C   UNL     1      43.299 -17.682   5.238  1.00  0.00     0.066 A 
HETATM    5  C   UNL     1      43.769 -18.674   4.379  1.00  0.00     0.050 A 
HETATM    6  C   UNL     1      44.289 -19.901   4.906  1.00  0.00     0.099 C 
HETATM    7  N   UNL     1      44.711 -20.892   5.337  1.00  0.00    -0.191 NA
HETATM    8  C   UNL     1      43.729 -18.458   3.002  1.00  0.00     0.066 A 
HETATM    9  C   UNL     1      43.225 -17.257   2.494  1.00  0.00     0.136 A 
HETATM   10  F   UNL     1      43.228 -17.119   1.162  1.00  0.00    -0.205 F 
ENDROOT
BRANCH   1  11
HETATM   11  C   UNL     1      42.229 -14.970   2.758  1.00  0.00     0.262 C 
HETATM   12  N   UNL     1      40.957 -15.015   2.208  1.00  0.00    -0.323 N 
HETATM   13  H   UNL     1      40.483 -15.912   2.198  1.00  0.00     0.169 HD
HETATM   14  O   UNL     1      42.940 -13.973   2.797  1.00  0.00    -0.267 OA
BRANCH  12  15
HETATM   15  C   UNL     1      40.218 -13.950   1.646  1.00  0.00     0.036 A 
HETATM   16  C   UNL     1      39.638 -12.920   2.389  1.00  0.00     0.032 A 
HETATM   17  C   UNL     1      38.899 -11.894   1.779  1.00  0.00     0.034 A 
HETATM   18  C   UNL     1      38.765 -11.942   0.390  1.00  0.00     0.063 A 
HETATM   19  C   UNL     1      39.326 -12.945  -0.388  1.00  0.00     0.030 A 
HETATM   20  N   UNL     1      38.122 -11.117  -0.490  1.00  0.00    -0.277 N 
HETATM   21  C   UNL     1      40.063 -13.964   0.248  1.00  0.00     0.046 A 
HETATM   22  C   UNL     1      38.960 -12.623  -1.728  1.00  0.00     0.156 A 
HETATM   23  N   UNL     1      38.217 -11.494  -1.777  1.00  0.00    -0.168 NA
HETATM   24  H   UNL     1      37.597 -10.277  -0.272  1.00  0.00     0.189 HD
BRANCH  22  25
HETATM   25  C   UNL     1      39.304 -13.369  -2.946  1.00  0.00     0.270 C 
HETATM   26  N   UNL     1      38.225 -13.884  -3.610  1.00  0.00    -0.365 N 
HETATM   27  H   UNL     1      37.300 -13.719  -3.233  1.00  0.00     0.159 HD
HETATM   28  H   UNL     1      38.361 -14.409  -4.460  1.00  0.00     0.159 HD
HETATM   29  O   UNL     1      40.448 -13.535  -3.358  1.00  0.00    -0.266 OA
ENDBRANCH  22  25
ENDBRANCH  12  15
ENDBRANCH   1  11
TORSDOF 3
ENDMDL
MODEL 4
REMARK VINA RESULT:      -8.3      4.990      6.951
REMARK  3 active torsions:
REMARK  status: ('A' for Active; 'I' for Inactive)
REMARK    1  A    between atoms: C_2  and  N_3 
REMARK       I    between atoms: N_3  and  C_4 
REMARK    2  A    between atoms: C_4  and  C_5 
REMARK    3  A    between atoms: C_22  and  C_23 
REMARK       I    between atoms: C_23  and  N_24 
ROOT
HETATM    1  C   UNL     1      42.716 -16.188   3.435  1.00  0.00     0.109 A 
HETATM    2  C   UNL     1      43.265 -17.144   2.574  1.00  0.00     0.136 A 
HETATM    3  F   UNL     1      43.315 -16.930   1.250  1.00  0.00    -0.205 F 
HETATM    4  C   UNL     1      43.780 -18.353   3.046  1.00  0.00     0.066 A 
HETATM    5  C   UNL     1      43.756 -18.635   4.411  1.00  0.00     0.050 A 
HETATM    6  C   UNL     1      44.278 -19.875   4.904  1.00  0.00     0.099 C 
HETATM    7  N   UNL     1      44.699 -20.881   5.299  1.00  0.00    -0.191 NA
HETATM    8  C   UNL     1      43.216 -17.697   5.291  1.00  0.00     0.066 A 
HETATM    9  C   UNL     1      42.704 -16.491   4.803  1.00  0.00     0.136 A 
HETATM   10  F   UNL     1      42.194 -15.644   5.707  1.00  0.00    -0.205 F 
ENDROOT
BRANCH   1  11
HETATM   11  C   UNL     1      42.148 -14.892   2.952  1.00  0.00     0.262 C 
HETATM   12  N   UNL     1      40.987 -14.969   2.199  1.00  0.00    -0.323 N 
HETATM   13  H   UNL     1      40.623 -15.893   1.990  1.00  0.00     0.169 HD
HETATM   14  O   UNL     1      42.727 -13.853   3.241  1.00  0.00    -0.267 OA
BRANCH  12  15
HETATM   15  C   UNL     1      40.225 -13.902   1.669  1.00  0.00     0.036 A 
HETATM   16  C   UNL     1      39.642 -12.896   2.441  1.00  0.00     0.032 A 
HETATM   17  C   UNL     1      38.881 -11.869   1.863  1.00  0.00     0.034 A 
HETATM   18  C   UNL     1      38.728 -11.889   0.476  1.00  0.00     0.063 A 
HETATM   19  C   UNL     1      39.292 -12.867  -0.330  1.00  0.00     0.030 A 
HETATM   20  N   UNL     1      38.062 -11.055  -0.378  1.00  0.00    -0.277 N 
HETATM   21  C   UNL     1      40.052 -13.889   0.274  1.00  0.00     0.046 A 
HETATM   22  C   UNL     1      38.903 -12.522  -1.658  1.00  0.00     0.156 A 
HETATM   23  N   UNL     1      38.144 -11.403  -1.673  1.00  0.00    -0.168 NA
HETATM   24  H   UNL     1      37.529 -10.227  -0.134  1.00  0.00     0.189 HD
BRANCH  22  25
HETATM   25  C   UNL     1      39.241 -13.237  -2.896  1.00  0.00     0.270 C 
HETATM   26  N   UNL     1      38.161 -13.765  -3.549  1.00  0.00    -0.365 N 
HETATM   27  H   UNL     1      37.240 -13.630  -3.151  1.00  0.00     0.159 HD
HETATM   28  H   UNL     1      38.292 -14.272  -4.411  1.00  0.00     0.159 HD
HETATM   29  O   UNL     1      40.380 -13.368  -3.334  1.00  0.00    -0.266 OA
ENDBRANCH  22  25
ENDBRANCH  12  15
ENDBRANCH   1  11
TORSDOF 3
ENDMDL
MODEL 5
REMARK VINA RESULT:      -7.9      1.720      3.002
REMARK  3 active torsions:
REMARK  status: ('A' for Active; 'I' for Inactive)
REMARK    1  A    between atoms: C_2  and  N_3 
REMARK       I    between atoms: N_3  and  C_4 
REMARK    2  A    between atoms: C_4  and  C_5 
REMARK    3  A    between atoms: C_22  and  C_23 
REMARK       I    between atoms: C_23  and  N_24 
ROOT
HETATM    1  C   UNL     1      42.909 -16.402   4.693  1.00  0.00     0.109 A 
HETATM    2  C   UNL     1      42.126 -16.636   3.558  1.00  0.00     0.136 A 
HETATM    3  F   UNL     1      41.127 -15.804   3.227  1.00  0.00    -0.205 F 
HETATM    4  C   UNL     1      42.344 -17.736   2.725  1.00  0.00     0.066 A 
HETATM    5  C   UNL     1      43.366 -18.638   3.016  1.00  0.00     0.050 A 
HETATM    6  C   UNL     1      43.594 -19.773   2.171  1.00  0.00     0.099 C 
HETATM    7  N   UNL     1      43.774 -20.690   1.485  1.00  0.00    -0.191 NA
HETATM    8  C   UNL     1      44.163 -18.425   4.142  1.00  0.00     0.066 A 
HETATM    9  C   UNL     1      43.932 -17.319   4.965  1.00  0.00     0.136 A 
HETATM   10  F   UNL     1      44.732 -17.187   6.031  1.00  0.00    -0.205 F 
ENDROOT
BRANCH   1  11
HETATM   11  C   UNL     1      42.686 -15.238   5.605  1.00  0.00     0.262 C 
HETATM   12  N   UNL     1      43.175 -14.014   5.175  1.00  0.00    -0.323 N 
HETATM   13  H   UNL     1      43.684 -13.995   4.298  1.00  0.00     0.169 HD
HETATM   14  O   UNL     1      42.096 -15.425   6.662  1.00  0.00    -0.267 OA
BRANCH  12  15
HETATM   15  C   UNL     1      43.055 -12.760   5.816  1.00  0.00     0.036 A 
HETATM   16  C   UNL     1      44.060 -12.174   6.587  1.00  0.00     0.032 A 
HETATM   17  C   UNL     1      43.880 -10.932   7.214  1.00  0.00     0.034 A 
HETATM   18  C   UNL     1      42.649 -10.298   7.038  1.00  0.00     0.063 A 
HETATM   19  C   UNL     1      41.623 -10.843   6.279  1.00  0.00     0.030 A 
HETATM   20  N   UNL     1      42.163  -9.109   7.505  1.00  0.00    -0.277 N 
HETATM   21  C   UNL     1      41.827 -12.092   5.659  1.00  0.00     0.046 A 
HETATM   22  C   UNL     1      40.562  -9.892   6.354  1.00  0.00     0.156 A 
HETATM   23  N   UNL     1      40.908  -8.829   7.114  1.00  0.00    -0.168 NA
HETATM   24  H   UNL     1      42.643  -8.442   8.099  1.00  0.00     0.189 HD
BRANCH  22  25
HETATM   25  C   UNL     1      39.241  -9.986   5.720  1.00  0.00     0.270 C 
HETATM   26  N   UNL     1      39.251  -9.766   4.370  1.00  0.00    -0.365 N 
HETATM   27  H   UNL     1      40.135  -9.564   3.919  1.00  0.00     0.159 HD
HETATM   28  H   UNL     1      38.392  -9.813   3.846  1.00  0.00     0.159 HD
HETATM   29  O   UNL     1      38.199 -10.238   6.319  1.00  0.00    -0.266 OA
ENDBRANCH  22  25
ENDBRANCH  12  15
ENDBRANCH   1  11
TORSDOF 3
ENDMDL
MODEL 6
REMARK VINA RESULT:      -7.9      3.268      3.826
REMARK  3 active torsions:
REMARK  status: ('A' for Active; 'I' for Inactive)
REMARK    1  A    between atoms: C_2  and  N_3 
REMARK       I    between atoms: N_3  and  C_4 
REMARK    2  A    between atoms: C_4  and  C_5 
REMARK    3  A    between atoms: C_22  and  C_23 
REMARK       I    between atoms: C_23  and  N_24 
ROOT
HETATM    1  C   UNL     1      42.457 -15.865   3.308  1.00  0.00     0.109 A 
HETATM    2  C   UNL     1      42.680 -16.517   2.091  1.00  0.00     0.136 A 
HETATM    3  F   UNL     1      42.485 -15.884   0.924  1.00  0.00    -0.205 F 
HETATM    4  C   UNL     1      43.109 -17.845   2.033  1.00  0.00     0.066 A 
HETATM    5  C   UNL     1      43.328 -18.557   3.211  1.00  0.00     0.050 A 
HETATM    6  C   UNL     1      43.763 -19.922   3.162  1.00  0.00     0.099 C 
HETATM    7  N   UNL     1      44.113 -21.027   3.118  1.00  0.00    -0.191 NA
HETATM    8  C   UNL     1      43.115 -17.928   4.438  1.00  0.00     0.066 A 
HETATM    9  C   UNL     1      42.686 -16.598   4.478  1.00  0.00     0.136 A 
HETATM   10  F   UNL     1      42.495 -16.065   5.692  1.00  0.00    -0.205 F 
ENDROOT
BRANCH   1  11
HETATM   11  C   UNL     1      41.987 -14.448   3.393  1.00  0.00     0.262 C 
HETATM   12  N   UNL     1      40.617 -14.246   3.332  1.00  0.00    -0.323 N 
HETATM   13  H   UNL     1      40.029 -15.061   3.191  1.00  0.00     0.169 HD
HETATM   14  O   UNL     1      42.821 -13.558   3.512  1.00  0.00    -0.267 OA
BRANCH  12  15
HETATM   15  C   UNL     1      39.915 -13.024   3.440  1.00  0.00     0.036 A 
HETATM   16  C   UNL     1      39.318 -12.365   2.364  1.00  0.00     0.032 A 
HETATM   17  C   UNL     1      38.646 -11.144   2.526  1.00  0.00     0.034 A 
HETATM   18  C   UNL     1      38.596 -10.608   3.814  1.00  0.00     0.063 A 
HETATM   19  C   UNL     1      39.173 -11.229   4.912  1.00  0.00     0.030 A 
HETATM   20  N   UNL     1      38.034  -9.460   4.300  1.00  0.00    -0.277 N 
HETATM   21  C   UNL     1      39.843 -12.455   4.724  1.00  0.00     0.046 A 
HETATM   22  C   UNL     1      38.895 -10.367   6.014  1.00  0.00     0.156 A 
HETATM   23  N   UNL     1      38.193  -9.280   5.623  1.00  0.00    -0.168 NA
HETATM   24  H   UNL     1      37.527  -8.756   3.776  1.00  0.00     0.189 HD
BRANCH  22  25
HETATM   25  C   UNL     1      39.287 -10.565   7.416  1.00  0.00     0.270 C 
HETATM   26  N   UNL     1      40.593 -10.259   7.680  1.00  0.00    -0.365 N 
HETATM   27  H   UNL     1      41.177  -9.928   6.921  1.00  0.00     0.159 HD
HETATM   28  H   UNL     1      40.955 -10.359   8.616  1.00  0.00     0.159 HD
HETATM   29  O   UNL     1      38.534 -10.967   8.297  1.00  0.00    -0.266 OA
ENDBRANCH  22  25
ENDBRANCH  12  15
ENDBRANCH   1  11
TORSDOF 3
ENDMDL
MODEL 7
REMARK VINA RESULT:      -7.8     15.876     17.410
REMARK  3 active torsions:
REMARK  status: ('A' for Active; 'I' for Inactive)
REMARK    1  A    between atoms: C_2  and  N_3 
REMARK       I    between atoms: N_3  and  C_4 
REMARK    2  A    between atoms: C_4  and  C_5 
REMARK    3  A    between atoms: C_22  and  C_23 
REMARK       I    between atoms: C_23  and  N_24 
ROOT
HETATM    1  C   UNL     1      41.352 -30.796   2.858  1.00  0.00     0.109 A 
HETATM    2  C   UNL     1      40.692 -31.847   2.212  1.00  0.00     0.136 A 
HETATM    3  F   UNL     1      40.928 -32.118   0.920  1.00  0.00    -0.205 F 
HETATM    4  C   UNL     1      39.765 -32.654   2.875  1.00  0.00     0.066 A 
HETATM    5  C   UNL     1      39.476 -32.422   4.219  1.00  0.00     0.050 A 
HETATM    6  C   UNL     1      38.522 -33.242   4.907  1.00  0.00     0.099 C 
HETATM    7  N   UNL     1      37.748 -33.907   5.458  1.00  0.00    -0.191 NA
HETATM    8  C   UNL     1      40.123 -31.382   4.886  1.00  0.00     0.066 A 
HETATM    9  C   UNL     1      41.048 -30.583   4.208  1.00  0.00     0.136 A 
HETATM   10  F   UNL     1      41.622 -29.599   4.913  1.00  0.00    -0.205 F 
ENDROOT
BRANCH   1  11
HETATM   11  C   UNL     1      42.340 -29.912   2.165  1.00  0.00     0.262 C 
HETATM   12  N   UNL     1      43.679 -30.187   2.390  1.00  0.00    -0.323 N 
HETATM   13  H   UNL     1      43.902 -30.936   3.037  1.00  0.00     0.169 HD
HETATM   14  O   UNL     1      41.920 -29.011   1.450  1.00  0.00    -0.267 OA
BRANCH  12  15
HETATM   15  C   UNL     1      44.803 -29.543   1.824  1.00  0.00     0.036 A 
HETATM   16  C   UNL     1      45.881 -29.054   2.563  1.00  0.00     0.032 A 
HETATM   17  C   UNL     1      46.965 -28.408   1.949  1.00  0.00     0.034 A 
HETATM   18  C   UNL     1      46.925 -28.272   0.560  1.00  0.00     0.063 A 
HETATM   19  C   UNL     1      45.875 -28.744  -0.214  1.00  0.00     0.030 A 
HETATM   20  N   UNL     1      47.800 -27.703  -0.323  1.00  0.00    -0.277 N 
HETATM   21  C   UNL     1      44.798 -29.390   0.426  1.00  0.00     0.046 A 
HETATM   22  C   UNL     1      46.224 -28.409  -1.556  1.00  0.00     0.156 A 
HETATM   23  N   UNL     1      47.413 -27.767  -1.609  1.00  0.00    -0.168 NA
HETATM   24  H   UNL     1      48.683 -27.253  -0.108  1.00  0.00     0.189 HD
BRANCH  22  25
HETATM   25  C   UNL     1      45.447 -28.689  -2.771  1.00  0.00     0.270 C 
HETATM   26  N   UNL     1      45.460 -27.676  -3.689  1.00  0.00    -0.365 N 
HETATM   27  H   UNL     1      45.985 -26.836  -3.477  1.00  0.00     0.159 HD
HETATM   28  H   UNL     1      44.958 -27.776  -4.557  1.00  0.00     0.159 HD
HETATM   29  O   UNL     1      44.830 -29.730  -2.976  1.00  0.00    -0.266 OA
ENDBRANCH  22  25
ENDBRANCH  12  15
ENDBRANCH   1  11
TORSDOF 3
ENDMDL
MODEL 8
REMARK VINA RESULT:      -7.7     10.695     13.534
REMARK  3 active torsions:
REMARK  status: ('A' for Active; 'I' for Inactive)
REMARK    1  A    between atoms: C_2  and  N_3 
REMARK       I    between atoms: N_3  and  C_4 
REMARK    2  A    between atoms: C_4  and  C_5 
REMARK    3  A    between atoms: C_22  and  C_23 
REMARK       I    between atoms: C_23  and  N_24 
ROOT
HETATM    1  C   UNL     1      41.779  -8.374  14.050  1.00  0.00     0.109 A 
HETATM    2  C   UNL     1      42.971  -7.871  13.518  1.00  0.00     0.136 A 
HETATM    3  F   UNL     1      43.556  -6.785  14.047  1.00  0.00    -0.205 F 
HETATM    4  C   UNL     1      43.600  -8.466  12.423  1.00  0.00     0.066 A 
HETATM    5  C   UNL     1      43.041  -9.596  11.829  1.00  0.00     0.050 A 
HETATM    6  C   UNL     1      43.676 -10.211  10.701  1.00  0.00     0.099 C 
HETATM    7  N   UNL     1      44.193 -10.705   9.787  1.00  0.00    -0.191 NA
HETATM    8  C   UNL     1      41.854 -10.119  12.342  1.00  0.00     0.066 A 
HETATM    9  C   UNL     1      41.236  -9.512  13.439  1.00  0.00     0.136 A 
HETATM   10  F   UNL     1      40.095 -10.066  13.870  1.00  0.00    -0.205 F 
ENDROOT
BRANCH   1  11
HETATM   11  C   UNL     1      41.082  -7.747  15.214  1.00  0.00     0.262 C 
HETATM   12  N   UNL     1      41.655  -7.948  16.460  1.00  0.00    -0.323 N 
HETATM   13  H   UNL     1      42.480  -8.538  16.507  1.00  0.00     0.169 HD
HETATM   14  O   UNL     1      40.062  -7.100  15.009  1.00  0.00    -0.267 OA
BRANCH  12  15
HETATM   15  C   UNL     1      41.231  -7.428  17.704  1.00  0.00     0.036 A 
HETATM   16  C   UNL     1      41.073  -6.067  17.972  1.00  0.00     0.032 A 
HETATM   17  C   UNL     1      40.664  -5.605  19.232  1.00  0.00     0.034 A 
HETATM   18  C   UNL     1      40.418  -6.564  20.216  1.00  0.00     0.063 A 
HETATM   19  C   UNL     1      40.560  -7.926  19.993  1.00  0.00     0.030 A 
HETATM   20  N   UNL     1      40.018  -6.449  21.518  1.00  0.00    -0.277 N 
HETATM   21  C   UNL     1      40.973  -8.366  18.719  1.00  0.00     0.046 A 
HETATM   22  C   UNL     1      40.215  -8.542  21.233  1.00  0.00     0.156 A 
HETATM   23  N   UNL     1      39.884  -7.620  22.165  1.00  0.00    -0.168 NA
HETATM   24  H   UNL     1      39.820  -5.593  22.025  1.00  0.00     0.189 HD
BRANCH  22  25
HETATM   25  C   UNL     1      40.199  -9.979  21.535  1.00  0.00     0.270 C 
HETATM   26  N   UNL     1      40.880 -10.748  20.632  1.00  0.00    -0.365 N 
HETATM   27  H   UNL     1      41.331 -10.291  19.849  1.00  0.00     0.159 HD
HETATM   28  H   UNL     1      40.929 -11.747  20.756  1.00  0.00     0.159 HD
HETATM   29  O   UNL     1      39.636 -10.479  22.504  1.00  0.00    -0.266 OA
ENDBRANCH  22  25
ENDBRANCH  12  15
ENDBRANCH   1  11
TORSDOF 3
ENDMDL
MODEL 9
REMARK VINA RESULT:      -7.6      5.794     10.532
REMARK  3 active torsions:
REMARK  status: ('A' for Active; 'I' for Inactive)
REMARK    1  A    between atoms: C_2  and  N_3 
REMARK       I    between atoms: N_3  and  C_4 
REMARK    2  A    between atoms: C_4  and  C_5 
REMARK    3  A    between atoms: C_22  and  C_23 
REMARK       I    between atoms: C_23  and  N_24 
ROOT
HETATM    1  C   UNL     1      41.827  -8.473  12.517  1.00  0.00     0.109 A 
HETATM    2  C   UNL     1      42.212  -7.652  13.582  1.00  0.00     0.136 A 
HETATM    3  F   UNL     1      43.506  -7.505  13.905  1.00  0.00    -0.205 F 
HETATM    4  C   UNL     1      41.278  -6.956  14.353  1.00  0.00     0.066 A 
HETATM    5  C   UNL     1      39.918  -7.068  14.067  1.00  0.00     0.050 A 
HETATM    6  C   UNL     1      38.952  -6.362  14.855  1.00  0.00     0.099 C 
HETATM    7  N   UNL     1      38.173  -5.789  15.497  1.00  0.00    -0.191 NA
HETATM    8  C   UNL     1      39.509  -7.879  13.008  1.00  0.00     0.066 A 
HETATM    9  C   UNL     1      40.456  -8.569  12.247  1.00  0.00     0.136 A 
HETATM   10  F   UNL     1      39.986  -9.334  11.252  1.00  0.00    -0.205 F 
ENDROOT
BRANCH   1  11
HETATM   11  C   UNL     1      42.808  -9.237  11.686  1.00  0.00     0.262 C 
HETATM   12  N   UNL     1      43.083  -8.725  10.428  1.00  0.00    -0.323 N 
HETATM   13  H   UNL     1      42.574  -7.897  10.137  1.00  0.00     0.169 HD
HETATM   14  O   UNL     1      43.307 -10.254  12.153  1.00  0.00    -0.267 OA
BRANCH  12  15
HETATM   15  C   UNL     1      44.000  -9.219   9.473  1.00  0.00     0.036 A 
HETATM   16  C   UNL     1      45.269  -8.681   9.253  1.00  0.00     0.032 A 
HETATM   17  C   UNL     1      46.134  -9.202   8.278  1.00  0.00     0.034 A 
HETATM   18  C   UNL     1      45.675 -10.289   7.531  1.00  0.00     0.063 A 
HETATM   19  C   UNL     1      44.423 -10.856   7.717  1.00  0.00     0.030 A 
HETATM   20  N   UNL     1      46.256 -11.012   6.527  1.00  0.00    -0.277 N 
HETATM   21  C   UNL     1      43.572 -10.315   8.702  1.00  0.00     0.046 A 
HETATM   22  C   UNL     1      44.355 -11.922   6.771  1.00  0.00     0.156 A 
HETATM   23  N   UNL     1      45.491 -12.006   6.043  1.00  0.00    -0.168 NA
HETATM   24  H   UNL     1      47.177 -10.874   6.126  1.00  0.00     0.189 HD
BRANCH  22  25
HETATM   25  C   UNL     1      43.234 -12.846   6.555  1.00  0.00     0.270 C 
HETATM   26  N   UNL     1      43.160 -13.859   7.471  1.00  0.00    -0.365 N 
HETATM   27  H   UNL     1      43.856 -13.899   8.206  1.00  0.00     0.159 HD
HETATM   28  H   UNL     1      42.423 -14.543   7.408  1.00  0.00     0.159 HD
HETATM   29  O   UNL     1      42.417 -12.747   5.645  1.00  0.00    -0.266 OA
ENDBRANCH  22  25
ENDBRANCH  12  15
ENDBRANCH   1  11
TORSDOF 3
ENDMDL
MODEL 10
REMARK VINA RESULT:      -7.6      3.248      8.734
REMARK  3 active torsions:
REMARK  status: ('A' for Active; 'I' for Inactive)
REMARK    1  A    between atoms: C_2  and  N_3 
REMARK       I    between atoms: N_3  and  C_4 
REMARK    2  A    between atoms: C_4  and  C_5 
REMARK    3  A    between atoms: C_22  and  C_23 
REMARK       I    between atoms: C_23  and  N_24 
ROOT
HETATM    1  C   UNL     1      43.858 -10.736   7.818  1.00  0.00     0.109 A 
HETATM    2  C   UNL     1      44.721 -10.261   8.811  1.00  0.00     0.136 A 
HETATM    3  F   UNL     1      45.917 -10.833   9.015  1.00  0.00    -0.205 F 
HETATM    4  C   UNL     1      44.381  -9.181   9.629  1.00  0.00     0.066 A 
HETATM    5  C   UNL     1      43.151  -8.545   9.467  1.00  0.00     0.050 A 
HETATM    6  C   UNL     1      42.791  -7.440  10.305  1.00  0.00     0.099 C 
HETATM    7  N   UNL     1      42.503  -6.547  10.987  1.00  0.00    -0.191 NA
HETATM    8  C   UNL     1      42.274  -8.998   8.481  1.00  0.00     0.066 A 
HETATM    9  C   UNL     1      42.629 -10.080   7.670  1.00  0.00     0.136 A 
HETATM   10  F   UNL     1      41.732 -10.464   6.753  1.00  0.00    -0.205 F 
ENDROOT
BRANCH   1  11
HETATM   11  C   UNL     1      44.196 -11.897   6.938  1.00  0.00     0.262 C 
HETATM   12  N   UNL     1      43.424 -13.037   7.095  1.00  0.00    -0.323 N 
HETATM   13  H   UNL     1      42.714 -13.026   7.820  1.00  0.00     0.169 HD
HETATM   14  O   UNL     1      45.119 -11.780   6.140  1.00  0.00    -0.267 OA
BRANCH  12  15
HETATM   15  C   UNL     1      43.500 -14.243   6.363  1.00  0.00     0.036 A 
HETATM   16  C   UNL     1      44.228 -15.363   6.770  1.00  0.00     0.032 A 
HETATM   17  C   UNL     1      44.282 -16.531   5.993  1.00  0.00     0.034 A 
HETATM   18  C   UNL     1      43.575 -16.532   4.789  1.00  0.00     0.063 A 
HETATM   19  C   UNL     1      42.838 -15.443   4.347  1.00  0.00     0.030 A 
HETATM   20  N   UNL     1      43.427 -17.487   3.822  1.00  0.00    -0.277 N 
HETATM   21  C   UNL     1      42.799 -14.281   5.145  1.00  0.00     0.046 A 
HETATM   22  C   UNL     1      42.282 -15.854   3.100  1.00  0.00     0.156 A 
HETATM   23  N   UNL     1      42.653 -17.116   2.788  1.00  0.00    -0.168 NA
HETATM   24  H   UNL     1      43.832 -18.416   3.812  1.00  0.00     0.189 HD
BRANCH  22  25
HETATM   25  C   UNL     1      41.413 -15.067   2.214  1.00  0.00     0.270 C 
HETATM   26  N   UNL     1      42.073 -14.447   1.189  1.00  0.00    -0.365 N 
HETATM   27  H   UNL     1      43.076 -14.570   1.115  1.00  0.00     0.159 HD
HETATM   28  H   UNL     1      41.562 -13.887   0.526  1.00  0.00     0.159 HD
HETATM   29  O   UNL     1      40.198 -14.957   2.351  1.00  0.00    -0.266 OA
ENDBRANCH  22  25
ENDBRANCH  12  15
ENDBRANCH   1  11
TORSDOF 3
ENDMDL
