MODEL 1
REMARK VINA RESULT:      -8.1      0.000      0.000
REMARK  6 active torsions:
REMARK  status: ('A' for Active; 'I' for Inactive)
REMARK    1  A    between atoms: C_2  and  O_3 
REMARK    2  A    between atoms: O_3  and  C_4 
REMARK    3  A    between atoms: C_7  and  N_8 
REMARK    4  A    between atoms: C_9  and  C_11 
REMARK    5  A    between atoms: C_9  and  O_10 
REMARK       I    between atoms: C_11  and  N_12 
REMARK    6  A    between atoms: N_12  and  C_13 
ROOT
HETATM    1  N   UNL     1      42.406 -13.923   3.417  1.00  0.00    -0.254 N 
HETATM    2  C   UNL     1      42.593 -15.017   2.448  1.00  0.00     0.256 C 
HETATM    3  C   UNL     1      43.046 -16.333   3.048  1.00  0.00     0.035 A 
HETATM    4  C   UNL     1      43.440 -16.369   4.378  1.00  0.00     0.048 A 
HETATM    5  N   UNL     1      43.372 -15.211   5.132  1.00  0.00    -0.308 N 
HETATM    6  C   UNL     1      42.845 -14.025   4.726  1.00  0.00     0.330 C 
HETATM    7  O   UNL     1      42.824 -13.110   5.550  1.00  0.00    -0.246 OA
HETATM    8  C   UNL     1      43.118 -17.522   2.297  1.00  0.00     0.034 A 
HETATM    9  C   UNL     1      43.552 -18.707   2.892  1.00  0.00     0.011 A 
HETATM   10 BR   UNL     1      43.604 -20.302   1.879  1.00  0.00    -0.051 Br
HETATM   11  C   UNL     1      43.945 -18.725   4.226  1.00  0.00     0.021 A 
HETATM   12  C   UNL     1      43.896 -17.548   4.972  1.00  0.00     0.031 A 
HETATM   13  H   UNL     1      43.660 -15.220   6.102  1.00  0.00     0.170 HD
ENDROOT
BRANCH   1  14
HETATM   14  C   UNL     1      41.639 -12.768   3.023  1.00  0.00     0.043 A 
HETATM   15  C   UNL     1      42.187 -11.735   2.252  1.00  0.00     0.032 A 
HETATM   16  C   UNL     1      41.392 -10.668   1.818  1.00  0.00     0.039 A 
HETATM   17  C   UNL     1      40.030 -10.629   2.109  1.00  0.00     0.068 A 
HETATM   18  C   UNL     1      39.476 -11.638   2.892  1.00  0.00     0.039 A 
HETATM   19  C   UNL     1      40.278 -12.690   3.350  1.00  0.00     0.032 A 
BRANCH  17  20
HETATM   20  O   UNL     1      39.356  -9.558   1.593  1.00  0.00    -0.352 OA
BRANCH  20  21
HETATM   21  C   UNL     1      39.125  -9.581   0.184  1.00  0.00     0.171 C 
HETATM   22  C   UNL     1      37.695 -10.033  -0.050  1.00  0.00     0.034 C 
ENDBRANCH  20  21
ENDBRANCH  17  20
ENDBRANCH   1  14
BRANCH   2  23
HETATM   23  C   UNL     1      41.227 -15.268   1.674  1.00  0.00     0.279 C 
HETATM   24  N   UNL     1      41.207 -14.675   0.416  1.00  0.00    -0.352 N 
HETATM   25  H   UNL     1      42.047 -14.179   0.131  1.00  0.00     0.163 HD
HETATM   26  O   UNL     1      40.284 -15.905   2.140  1.00  0.00    -0.268 OA
BRANCH  24  27
HETATM   27  C   UNL     1      40.053 -14.652  -0.418  1.00  0.00     0.084 A 
HETATM   28  C   UNL     1      39.276 -13.384  -0.646  1.00  0.00     0.027 A 
HETATM   29  C   UNL     1      40.103 -13.960  -1.754  1.00  0.00     0.027 A 
ENDBRANCH  24  27
ENDBRANCH   2  23
BRANCH   2  30
HETATM   30  O   UNL     1      43.657 -14.622   1.579  1.00  0.00    -0.359 OA
HETATM   31  H   UNL     1      43.235 -13.967   0.996  1.00  0.00     0.213 HD
ENDBRANCH   2  30
TORSDOF 6
ENDMDL
MODEL 2
REMARK VINA RESULT:      -7.9      2.695      6.488
REMARK  6 active torsions:
REMARK  status: ('A' for Active; 'I' for Inactive)
REMARK    1  A    between atoms: C_2  and  O_3 
REMARK    2  A    between atoms: O_3  and  C_4 
REMARK    3  A    between atoms: C_7  and  N_8 
REMARK    4  A    between atoms: C_9  and  C_11 
REMARK    5  A    between atoms: C_9  and  O_10 
REMARK       I    between atoms: C_11  and  N_12 
REMARK    6  A    between atoms: N_12  and  C_13 
ROOT
HETATM    1  N   UNL     1      40.071 -13.587   3.776  1.00  0.00    -0.254 N 
HETATM    2  C   UNL     1      40.131 -14.340   2.510  1.00  0.00     0.256 C 
HETATM    3  C   UNL     1      39.691 -13.565   1.283  1.00  0.00     0.035 A 
HETATM    4  C   UNL     1      39.088 -12.326   1.447  1.00  0.00     0.048 A 
HETATM    5  N   UNL     1      38.941 -11.812   2.724  1.00  0.00    -0.308 N 
HETATM    6  C   UNL     1      39.432 -12.362   3.866  1.00  0.00     0.330 C 
HETATM    7  O   UNL     1      39.247 -11.739   4.912  1.00  0.00    -0.246 OA
HETATM    8  C   UNL     1      39.836 -14.071  -0.022  1.00  0.00     0.034 A 
HETATM    9  C   UNL     1      39.405 -13.325  -1.120  1.00  0.00     0.011 A 
HETATM   10 BR   UNL     1      39.644 -14.002  -2.868  1.00  0.00    -0.051 Br
HETATM   11  C   UNL     1      38.802 -12.084  -0.938  1.00  0.00     0.021 A 
HETATM   12  C   UNL     1      38.635 -11.585   0.353  1.00  0.00     0.031 A 
HETATM   13  H   UNL     1      38.500 -10.911   2.859  1.00  0.00     0.170 HD
ENDROOT
BRANCH   1  14
HETATM   14  C   UNL     1      40.799 -14.084   4.916  1.00  0.00     0.043 A 
HETATM   15  C   UNL     1      40.491 -15.308   5.523  1.00  0.00     0.032 A 
HETATM   16  C   UNL     1      41.270 -15.800   6.577  1.00  0.00     0.039 A 
HETATM   17  C   UNL     1      42.392 -15.102   7.020  1.00  0.00     0.068 A 
HETATM   18  C   UNL     1      42.698 -13.875   6.439  1.00  0.00     0.039 A 
HETATM   19  C   UNL     1      41.902 -13.369   5.404  1.00  0.00     0.032 A 
BRANCH  17  20
HETATM   20  O   UNL     1      43.093 -15.707   8.025  1.00  0.00    -0.352 OA
BRANCH  20  21
HETATM   21  C   UNL     1      43.848 -16.862   7.657  1.00  0.00     0.171 C 
HETATM   22  C   UNL     1      44.865 -16.444   6.611  1.00  0.00     0.034 C 
ENDBRANCH  20  21
ENDBRANCH  17  20
ENDBRANCH   1  14
BRANCH   2  23
HETATM   23  C   UNL     1      41.620 -14.842   2.271  1.00  0.00     0.279 C 
HETATM   24  N   UNL     1      41.735 -16.227   2.332  1.00  0.00    -0.352 N 
HETATM   25  H   UNL     1      40.879 -16.750   2.498  1.00  0.00     0.163 HD
HETATM   26  O   UNL     1      42.572 -14.090   2.070  1.00  0.00    -0.268 OA
BRANCH  24  27
HETATM   27  C   UNL     1      42.983 -16.911   2.275  1.00  0.00     0.084 A 
HETATM   28  C   UNL     1      43.518 -17.666   3.461  1.00  0.00     0.027 A 
HETATM   29  C   UNL     1      43.017 -18.416   2.264  1.00  0.00     0.027 A 
ENDBRANCH  24  27
ENDBRANCH   2  23
BRANCH   2  30
HETATM   30  O   UNL     1      39.195 -15.414   2.623  1.00  0.00    -0.359 OA
HETATM   31  H   UNL     1      39.756 -16.205   2.541  1.00  0.00     0.213 HD
ENDBRANCH   2  30
TORSDOF 6
ENDMDL
MODEL 3
REMARK VINA RESULT:      -7.5      3.242      6.711
REMARK  6 active torsions:
REMARK  status: ('A' for Active; 'I' for Inactive)
REMARK    1  A    between atoms: C_2  and  O_3 
REMARK    2  A    between atoms: O_3  and  C_4 
REMARK    3  A    between atoms: C_7  and  N_8 
REMARK    4  A    between atoms: C_9  and  C_11 
REMARK    5  A    between atoms: C_9  and  O_10 
REMARK       I    between atoms: C_11  and  N_12 
REMARK    6  A    between atoms: N_12  and  C_13 
ROOT
HETATM    1  N   UNL     1      40.688 -13.441   3.293  1.00  0.00    -0.254 N 
HETATM    2  C   UNL     1      39.623 -12.920   2.418  1.00  0.00     0.256 C 
HETATM    3  C   UNL     1      39.170 -11.508   2.732  1.00  0.00     0.035 A 
HETATM    4  C   UNL     1      39.614 -10.900   3.898  1.00  0.00     0.048 A 
HETATM    5  N   UNL     1      40.490 -11.584   4.723  1.00  0.00    -0.308 N 
HETATM    6  C   UNL     1      41.063 -12.788   4.454  1.00  0.00     0.330 C 
HETATM    7  O   UNL     1      41.860 -13.226   5.284  1.00  0.00    -0.246 OA
HETATM    8  C   UNL     1      38.283 -10.796   1.903  1.00  0.00     0.034 A 
HETATM    9  C   UNL     1      37.886  -9.501   2.242  1.00  0.00     0.011 A 
HETATM   10 BR   UNL     1      36.726  -8.545   1.096  1.00  0.00    -0.051 Br
HETATM   11  C   UNL     1      38.340  -8.907   3.415  1.00  0.00     0.021 A 
HETATM   12  C   UNL     1      39.202  -9.613   4.252  1.00  0.00     0.031 A 
HETATM   13  H   UNL     1      40.819 -11.156   5.579  1.00  0.00     0.170 HD
ENDROOT
BRANCH   1  14
HETATM   14  C   UNL     1      41.437 -14.595   2.864  1.00  0.00     0.043 A 
HETATM   15  C   UNL     1      42.707 -14.488   2.283  1.00  0.00     0.032 A 
HETATM   16  C   UNL     1      43.442 -15.633   1.953  1.00  0.00     0.039 A 
HETATM   17  C   UNL     1      42.943 -16.904   2.231  1.00  0.00     0.068 A 
HETATM   18  C   UNL     1      41.675 -17.027   2.789  1.00  0.00     0.039 A 
HETATM   19  C   UNL     1      40.927 -15.881   3.092  1.00  0.00     0.032 A 
BRANCH  17  20
HETATM   20  O   UNL     1      43.773 -17.938   1.900  1.00  0.00    -0.352 OA
BRANCH  20  21
HETATM   21  C   UNL     1      43.754 -19.064   2.779  1.00  0.00     0.171 C 
HETATM   22  C   UNL     1      43.460 -20.301   1.949  1.00  0.00     0.034 C 
ENDBRANCH  20  21
ENDBRANCH  17  20
ENDBRANCH   1  14
BRANCH   2  23
HETATM   23  C   UNL     1      40.123 -12.956   0.909  1.00  0.00     0.279 C 
HETATM   24  N   UNL     1      39.378 -13.824   0.118  1.00  0.00    -0.352 N 
HETATM   25  H   UNL     1      38.609 -14.310   0.571  1.00  0.00     0.163 HD
HETATM   26  O   UNL     1      41.074 -12.300   0.487  1.00  0.00    -0.268 OA
BRANCH  24  27
HETATM   27  C   UNL     1      39.707 -14.124  -1.235  1.00  0.00     0.084 A 
HETATM   28  C   UNL     1      38.931 -15.147  -2.021  1.00  0.00     0.027 A 
HETATM   29  C   UNL     1      38.789 -13.691  -2.347  1.00  0.00     0.027 A 
ENDBRANCH  24  27
ENDBRANCH   2  23
BRANCH   2  30
HETATM   30  O   UNL     1      38.470 -13.735   2.638  1.00  0.00    -0.359 OA
HETATM   31  H   UNL     1      38.042 -13.753   1.764  1.00  0.00     0.213 HD
ENDBRANCH   2  30
TORSDOF 6
ENDMDL
MODEL 4
REMARK VINA RESULT:      -7.4      3.652      6.850
REMARK  6 active torsions:
REMARK  status: ('A' for Active; 'I' for Inactive)
REMARK    1  A    between atoms: C_2  and  O_3 
REMARK    2  A    between atoms: O_3  and  C_4 
REMARK    3  A    between atoms: C_7  and  N_8 
REMARK    4  A    between atoms: C_9  and  C_11 
REMARK    5  A    between atoms: C_9  and  O_10 
REMARK       I    between atoms: C_11  and  N_12 
REMARK    6  A    between atoms: N_12  and  C_13 
ROOT
HETATM    1  N   UNL     1      41.854 -13.478   5.661  1.00  0.00    -0.254 N 
HETATM    2  C   UNL     1      40.574 -12.871   5.255  1.00  0.00     0.256 C 
HETATM    3  C   UNL     1      40.424 -11.402   5.598  1.00  0.00     0.035 A 
HETATM    4  C   UNL     1      41.367 -10.801   6.420  1.00  0.00     0.048 A 
HETATM    5  N   UNL     1      42.441 -11.549   6.872  1.00  0.00    -0.308 N 
HETATM    6  C   UNL     1      42.737 -12.823   6.502  1.00  0.00     0.330 C 
HETATM    7  O   UNL     1      43.763 -13.317   6.969  1.00  0.00    -0.246 OA
HETATM    8  C   UNL     1      39.341 -10.626   5.144  1.00  0.00     0.034 A 
HETATM    9  C   UNL     1      39.242  -9.279   5.497  1.00  0.00     0.011 A 
HETATM   10 BR   UNL     1      37.802  -8.242   4.845  1.00  0.00    -0.051 Br
HETATM   11  C   UNL     1      40.195  -8.693   6.322  1.00  0.00     0.021 A 
HETATM   12  C   UNL     1      41.260  -9.460   6.793  1.00  0.00     0.031 A 
HETATM   13  H   UNL     1      43.134 -11.126   7.476  1.00  0.00     0.170 HD
ENDROOT
BRANCH   1  14
HETATM   14  C   UNL     1      42.247 -14.732   5.070  1.00  0.00     0.043 A 
HETATM   15  C   UNL     1      43.021 -14.798   3.904  1.00  0.00     0.032 A 
HETATM   16  C   UNL     1      43.454 -16.031   3.402  1.00  0.00     0.039 A 
HETATM   17  C   UNL     1      43.158 -17.217   4.071  1.00  0.00     0.068 A 
HETATM   18  C   UNL     1      42.373 -17.168   5.219  1.00  0.00     0.039 A 
HETATM   19  C   UNL     1      41.916 -15.937   5.705  1.00  0.00     0.032 A 
BRANCH  17  20
HETATM   20  O   UNL     1      43.674 -18.348   3.504  1.00  0.00    -0.352 OA
BRANCH  20  21
HETATM   21  C   UNL     1      43.112 -18.733   2.248  1.00  0.00     0.171 C 
HETATM   22  C   UNL     1      43.430 -20.200   2.023  1.00  0.00     0.034 C 
ENDBRANCH  20  21
ENDBRANCH  17  20
ENDBRANCH   1  14
BRANCH   2  23
HETATM   23  C   UNL     1      40.393 -13.034   3.684  1.00  0.00     0.279 C 
HETATM   24  N   UNL     1      39.698 -14.190   3.341  1.00  0.00    -0.352 N 
HETATM   25  H   UNL     1      39.375 -14.774   4.108  1.00  0.00     0.163 HD
HETATM   26  O   UNL     1      40.832 -12.236   2.858  1.00  0.00    -0.268 OA
BRANCH  24  27
HETATM   27  C   UNL     1      39.517 -14.622   1.996  1.00  0.00     0.084 A 
HETATM   28  C   UNL     1      40.691 -14.889   1.095  1.00  0.00     0.027 A 
HETATM   29  C   UNL     1      39.868 -16.033   1.605  1.00  0.00     0.027 A 
ENDBRANCH  24  27
ENDBRANCH   2  23
BRANCH   2  30
HETATM   30  O   UNL     1      39.548 -13.530   6.002  1.00  0.00    -0.359 OA
HETATM   31  H   UNL     1      39.925 -13.580   6.898  1.00  0.00     0.213 HD
ENDBRANCH   2  30
TORSDOF 6
ENDMDL
MODEL 5
REMARK VINA RESULT:      -7.2      3.219      7.567
REMARK  6 active torsions:
REMARK  status: ('A' for Active; 'I' for Inactive)
REMARK    1  A    between atoms: C_2  and  O_3 
REMARK    2  A    between atoms: O_3  and  C_4 
REMARK    3  A    between atoms: C_7  and  N_8 
REMARK    4  A    between atoms: C_9  and  C_11 
REMARK    5  A    between atoms: C_9  and  O_10 
REMARK       I    between atoms: C_11  and  N_12 
REMARK    6  A    between atoms: N_12  and  C_13 
ROOT
HETATM    1  N   UNL     1      40.644 -13.627   1.386  1.00  0.00    -0.254 N 
HETATM    2  C   UNL     1      40.685 -12.419   2.230  1.00  0.00     0.256 C 
HETATM    3  C   UNL     1      39.545 -11.445   2.009  1.00  0.00     0.035 A 
HETATM    4  C   UNL     1      38.690 -11.638   0.933  1.00  0.00     0.048 A 
HETATM    5  N   UNL     1      38.878 -12.737   0.113  1.00  0.00    -0.308 N 
HETATM    6  C   UNL     1      39.776 -13.738   0.315  1.00  0.00     0.330 C 
HETATM    7  O   UNL     1      39.770 -14.666  -0.495  1.00  0.00    -0.246 OA
HETATM    8  C   UNL     1      39.337 -10.324   2.835  1.00  0.00     0.034 A 
HETATM    9  C   UNL     1      38.278  -9.450   2.585  1.00  0.00     0.011 A 
HETATM   10 BR   UNL     1      37.990  -7.972   3.728  1.00  0.00    -0.051 Br
HETATM   11  C   UNL     1      37.432  -9.658   1.501  1.00  0.00     0.021 A 
HETATM   12  C   UNL     1      37.643 -10.753   0.666  1.00  0.00     0.031 A 
HETATM   13  H   UNL     1      38.265 -12.889  -0.679  1.00  0.00     0.170 HD
ENDROOT
BRANCH   1  14
HETATM   14  C   UNL     1      41.444 -14.765   1.763  1.00  0.00     0.043 A 
HETATM   15  C   UNL     1      40.895 -15.886   2.398  1.00  0.00     0.032 A 
HETATM   16  C   UNL     1      41.685 -17.008   2.677  1.00  0.00     0.039 A 
HETATM   17  C   UNL     1      43.024 -17.051   2.293  1.00  0.00     0.068 A 
HETATM   18  C   UNL     1      43.587 -15.936   1.679  1.00  0.00     0.039 A 
HETATM   19  C   UNL     1      42.805 -14.802   1.427  1.00  0.00     0.032 A 
BRANCH  17  20
HETATM   20  O   UNL     1      43.674 -18.217   2.583  1.00  0.00    -0.352 OA
BRANCH  20  21
HETATM   21  C   UNL     1      42.946 -19.421   2.334  1.00  0.00     0.171 C 
HETATM   22  C   UNL     1      43.935 -20.480   1.883  1.00  0.00     0.034 C 
ENDBRANCH  20  21
ENDBRANCH  17  20
ENDBRANCH   1  14
BRANCH   2  23
HETATM   23  C   UNL     1      40.680 -12.850   3.761  1.00  0.00     0.279 C 
HETATM   24  N   UNL     1      41.918 -12.675   4.371  1.00  0.00    -0.352 N 
HETATM   25  H   UNL     1      42.660 -12.285   3.796  1.00  0.00     0.163 HD
HETATM   26  O   UNL     1      39.695 -13.304   4.340  1.00  0.00    -0.268 OA
BRANCH  24  27
HETATM   27  C   UNL     1      42.200 -13.103   5.700  1.00  0.00     0.084 A 
HETATM   28  C   UNL     1      42.650 -14.509   5.991  1.00  0.00     0.027 A 
HETATM   29  C   UNL     1      43.621 -13.375   6.116  1.00  0.00     0.027 A 
ENDBRANCH  24  27
ENDBRANCH   2  23
BRANCH   2  30
HETATM   30  O   UNL     1      41.863 -11.697   1.862  1.00  0.00    -0.359 OA
HETATM   31  H   UNL     1      42.126 -12.116   1.024  1.00  0.00     0.213 HD
ENDBRANCH   2  30
TORSDOF 6
ENDMDL
MODEL 6
REMARK VINA RESULT:      -7.1      3.554      7.380
REMARK  6 active torsions:
REMARK  status: ('A' for Active; 'I' for Inactive)
REMARK    1  A    between atoms: C_2  and  O_3 
REMARK    2  A    between atoms: O_3  and  C_4 
REMARK    3  A    between atoms: C_7  and  N_8 
REMARK    4  A    between atoms: C_9  and  C_11 
REMARK    5  A    between atoms: C_9  and  O_10 
REMARK       I    between atoms: C_11  and  N_12 
REMARK    6  A    between atoms: N_12  and  C_13 
ROOT
HETATM    1  N   UNL     1      40.986 -13.218   3.209  1.00  0.00    -0.254 N 
HETATM    2  C   UNL     1      41.356 -12.557   4.472  1.00  0.00     0.256 C 
HETATM    3  C   UNL     1      40.395 -11.481   4.938  1.00  0.00     0.035 A 
HETATM    4  C   UNL     1      39.387 -11.059   4.081  1.00  0.00     0.048 A 
HETATM    5  N   UNL     1      39.263 -11.660   2.841  1.00  0.00    -0.308 N 
HETATM    6  C   UNL     1      39.981 -12.725   2.395  1.00  0.00     0.330 C 
HETATM    7  O   UNL     1      39.701 -13.160   1.277  1.00  0.00    -0.246 OA
HETATM    8  C   UNL     1      40.504 -10.862   6.197  1.00  0.00     0.034 A 
HETATM    9  C   UNL     1      39.600  -9.869   6.576  1.00  0.00     0.011 A 
HETATM   10 BR   UNL     1      39.738  -9.077   8.287  1.00  0.00    -0.051 Br
HETATM   11  C   UNL     1      38.597  -9.456   5.705  1.00  0.00     0.021 A 
HETATM   12  C   UNL     1      38.495 -10.049   4.447  1.00  0.00     0.031 A 
HETATM   13  H   UNL     1      38.536 -11.359   2.203  1.00  0.00     0.170 HD
ENDROOT
BRANCH   1  14
HETATM   14  C   UNL     1      41.605 -14.476   2.875  1.00  0.00     0.043 A 
HETATM   15  C   UNL     1      42.868 -14.550   2.273  1.00  0.00     0.032 A 
HETATM   16  C   UNL     1      43.475 -15.789   2.036  1.00  0.00     0.039 A 
HETATM   17  C   UNL     1      42.856 -16.973   2.429  1.00  0.00     0.068 A 
HETATM   18  C   UNL     1      41.592 -16.916   3.009  1.00  0.00     0.039 A 
HETATM   19  C   UNL     1      40.972 -15.678   3.220  1.00  0.00     0.032 A 
BRANCH  17  20
HETATM   20  O   UNL     1      43.569 -18.112   2.181  1.00  0.00    -0.352 OA
BRANCH  20  21
HETATM   21  C   UNL     1      42.831 -19.335   2.210  1.00  0.00     0.171 C 
HETATM   22  C   UNL     1      43.775 -20.460   1.828  1.00  0.00     0.034 C 
ENDBRANCH  20  21
ENDBRANCH  17  20
ENDBRANCH   1  14
BRANCH   2  23
HETATM   23  C   UNL     1      41.469 -13.651   5.621  1.00  0.00     0.279 C 
HETATM   24  N   UNL     1      42.786 -14.000   5.901  1.00  0.00    -0.352 N 
HETATM   25  H   UNL     1      43.509 -13.518   5.372  1.00  0.00     0.163 HD
HETATM   26  O   UNL     1      40.499 -14.148   6.190  1.00  0.00    -0.268 OA
BRANCH  24  27
HETATM   27  C   UNL     1      43.143 -15.045   6.800  1.00  0.00     0.084 A 
HETATM   28  C   UNL     1      42.851 -16.486   6.481  1.00  0.00     0.027 A 
HETATM   29  C   UNL     1      44.264 -15.987   6.451  1.00  0.00     0.027 A 
ENDBRANCH  24  27
ENDBRANCH   2  23
BRANCH   2  30
HETATM   30  O   UNL     1      42.588 -11.873   4.236  1.00  0.00    -0.359 OA
HETATM   31  H   UNL     1      43.242 -12.433   4.688  1.00  0.00     0.213 HD
ENDBRANCH   2  30
TORSDOF 6
ENDMDL
MODEL 7
REMARK VINA RESULT:      -6.7     16.140     17.708
REMARK  6 active torsions:
REMARK  status: ('A' for Active; 'I' for Inactive)
REMARK    1  A    between atoms: C_2  and  O_3 
REMARK    2  A    between atoms: O_3  and  C_4 
REMARK    3  A    between atoms: C_7  and  N_8 
REMARK    4  A    between atoms: C_9  and  C_11 
REMARK    5  A    between atoms: C_9  and  O_10 
REMARK       I    between atoms: C_11  and  N_12 
REMARK    6  A    between atoms: N_12  and  C_13 
ROOT
HETATM    1  N   UNL     1      48.869 -30.560   0.648  1.00  0.00    -0.254 N 
HETATM    2  C   UNL     1      48.102 -31.225   1.716  1.00  0.00     0.256 C 
HETATM    3  C   UNL     1      48.859 -31.431   3.014  1.00  0.00     0.035 A 
HETATM    4  C   UNL     1      50.224 -31.185   3.046  1.00  0.00     0.048 A 
HETATM    5  N   UNL     1      50.851 -30.719   1.903  1.00  0.00    -0.308 N 
HETATM    6  C   UNL     1      50.236 -30.367   0.743  1.00  0.00     0.330 C 
HETATM    7  O   UNL     1      50.950 -29.925  -0.158  1.00  0.00    -0.246 OA
HETATM    8  C   UNL     1      48.237 -31.901   4.186  1.00  0.00     0.034 A 
HETATM    9  C   UNL     1      48.979 -32.085   5.353  1.00  0.00     0.011 A 
HETATM   10 BR   UNL     1      48.119 -32.677   6.929  1.00  0.00    -0.051 Br
HETATM   11  C   UNL     1      50.347 -31.834   5.368  1.00  0.00     0.021 A 
HETATM   12  C   UNL     1      50.975 -31.389   4.205  1.00  0.00     0.031 A 
HETATM   13  H   UNL     1      51.848 -30.539   1.910  1.00  0.00     0.170 HD
ENDROOT
BRANCH   1  14
HETATM   14  C   UNL     1      48.156 -29.990  -0.468  1.00  0.00     0.043 A 
HETATM   15  C   UNL     1      47.659 -30.776  -1.516  1.00  0.00     0.032 A 
HETATM   16  C   UNL     1      46.900 -30.200  -2.543  1.00  0.00     0.039 A 
HETATM   17  C   UNL     1      46.590 -28.842  -2.524  1.00  0.00     0.068 A 
HETATM   18  C   UNL     1      47.094 -28.046  -1.500  1.00  0.00     0.039 A 
HETATM   19  C   UNL     1      47.878 -28.616  -0.489  1.00  0.00     0.032 A 
BRANCH  17  20
HETATM   20  O   UNL     1      45.808 -28.411  -3.559  1.00  0.00    -0.352 OA
BRANCH  20  21
HETATM   21  C   UNL     1      45.033 -29.412  -4.220  1.00  0.00     0.171 C 
HETATM   22  C   UNL     1      43.633 -29.384  -3.634  1.00  0.00     0.034 C 
ENDBRANCH  20  21
ENDBRANCH  17  20
ENDBRANCH   1  14
BRANCH   2  23
HETATM   23  C   UNL     1      46.798 -30.372   2.033  1.00  0.00     0.279 C 
HETATM   24  N   UNL     1      45.648 -30.925   1.479  1.00  0.00    -0.352 N 
HETATM   25  H   UNL     1      45.761 -31.795   0.966  1.00  0.00     0.163 HD
HETATM   26  O   UNL     1      46.805 -29.329   2.683  1.00  0.00    -0.268 OA
BRANCH  24  27
HETATM   27  C   UNL     1      44.378 -30.283   1.517  1.00  0.00     0.084 A 
HETATM   28  C   UNL     1      43.923 -29.379   0.403  1.00  0.00     0.027 A 
HETATM   29  C   UNL     1      43.284 -30.723   0.580  1.00  0.00     0.027 A 
ENDBRANCH  24  27
ENDBRANCH   2  23
BRANCH   2  30
HETATM   30  O   UNL     1      47.802 -32.543   1.251  1.00  0.00    -0.359 OA
HETATM   31  H   UNL     1      48.524 -32.726   0.625  1.00  0.00     0.213 HD
ENDBRANCH   2  30
TORSDOF 6
ENDMDL
MODEL 8
REMARK VINA RESULT:      -6.7     15.684     17.253
REMARK  6 active torsions:
REMARK  status: ('A' for Active; 'I' for Inactive)
REMARK    1  A    between atoms: C_2  and  O_3 
REMARK    2  A    between atoms: O_3  and  C_4 
REMARK    3  A    between atoms: C_7  and  N_8 
REMARK    4  A    between atoms: C_9  and  C_11 
REMARK    5  A    between atoms: C_9  and  O_10 
REMARK       I    between atoms: C_11  and  N_12 
REMARK    6  A    between atoms: N_12  and  C_13 
ROOT
HETATM    1  N   UNL     1      46.803 -29.526  -0.837  1.00  0.00    -0.254 N 
HETATM    2  C   UNL     1      46.739 -30.607   0.163  1.00  0.00     0.256 C 
HETATM    3  C   UNL     1      47.204 -30.220   1.554  1.00  0.00     0.035 A 
HETATM    4  C   UNL     1      47.829 -28.995   1.741  1.00  0.00     0.048 A 
HETATM    5  N   UNL     1      47.974 -28.142   0.661  1.00  0.00    -0.308 N 
HETATM    6  C   UNL     1      47.463 -28.337  -0.584  1.00  0.00     0.330 C 
HETATM    7  O   UNL     1      47.651 -27.445  -1.412  1.00  0.00    -0.246 OA
HETATM    8  C   UNL     1      47.061 -31.074   2.664  1.00  0.00     0.034 A 
HETATM    9  C   UNL     1      47.515 -30.677   3.922  1.00  0.00     0.011 A 
HETATM   10 BR   UNL     1      47.278 -31.820   5.409  1.00  0.00    -0.051 Br
HETATM   11  C   UNL     1      48.140 -29.446   4.092  1.00  0.00     0.021 A 
HETATM   12  C   UNL     1      48.305 -28.603   2.994  1.00  0.00     0.031 A 
HETATM   13  H   UNL     1      48.432 -27.247   0.781  1.00  0.00     0.170 HD
ENDROOT
BRANCH   1  14
HETATM   14  C   UNL     1      46.055 -29.667  -2.061  1.00  0.00     0.043 A 
HETATM   15  C   UNL     1      46.486 -30.492  -3.108  1.00  0.00     0.032 A 
HETATM   16  C   UNL     1      45.696 -30.669  -4.250  1.00  0.00     0.039 A 
HETATM   17  C   UNL     1      44.446 -30.061  -4.353  1.00  0.00     0.068 A 
HETATM   18  C   UNL     1      44.014 -29.223  -3.330  1.00  0.00     0.039 A 
HETATM   19  C   UNL     1      44.818 -29.023  -2.200  1.00  0.00     0.032 A 
BRANCH  17  20
HETATM   20  O   UNL     1      43.754 -30.347  -5.497  1.00  0.00    -0.352 OA
BRANCH  20  21
HETATM   21  C   UNL     1      44.246 -31.442  -6.272  1.00  0.00     0.171 C 
HETATM   22  C   UNL     1      43.862 -31.200  -7.720  1.00  0.00     0.034 C 
ENDBRANCH  20  21
ENDBRANCH  17  20
ENDBRANCH   1  14
BRANCH   2  23
HETATM   23  C   UNL     1      45.242 -31.133   0.270  1.00  0.00     0.279 C 
HETATM   24  N   UNL     1      44.405 -30.238   0.929  1.00  0.00    -0.352 N 
HETATM   25  H   UNL     1      44.824 -29.366   1.242  1.00  0.00     0.163 HD
HETATM   26  O   UNL     1      44.866 -32.218  -0.168  1.00  0.00    -0.268 OA
BRANCH  24  27
HETATM   27  C   UNL     1      43.052 -30.533   1.259  1.00  0.00     0.084 A 
HETATM   28  C   UNL     1      42.529 -30.349   2.657  1.00  0.00     0.027 A 
HETATM   29  C   UNL     1      42.092 -29.416   1.569  1.00  0.00     0.027 A 
ENDBRANCH  24  27
ENDBRANCH   2  23
BRANCH   2  30
HETATM   30  O   UNL     1      47.653 -31.619  -0.263  1.00  0.00    -0.359 OA
HETATM   31  H   UNL     1      48.184 -31.166  -0.941  1.00  0.00     0.213 HD
ENDBRANCH   2  30
TORSDOF 6
ENDMDL
MODEL 9
REMARK VINA RESULT:      -6.7      3.443      5.713
REMARK  6 active torsions:
REMARK  status: ('A' for Active; 'I' for Inactive)
REMARK    1  A    between atoms: C_2  and  O_3 
REMARK    2  A    between atoms: O_3  and  C_4 
REMARK    3  A    between atoms: C_7  and  N_8 
REMARK    4  A    between atoms: C_9  and  C_11 
REMARK    5  A    between atoms: C_9  and  O_10 
REMARK       I    between atoms: C_11  and  N_12 
REMARK    6  A    between atoms: N_12  and  C_13 
ROOT
HETATM    1  N   UNL     1      42.530 -13.137   4.797  1.00  0.00    -0.254 N 
HETATM    2  C   UNL     1      42.401 -12.915   3.346  1.00  0.00     0.256 C 
HETATM    3  C   UNL     1      41.491 -13.891   2.627  1.00  0.00     0.035 A 
HETATM    4  C   UNL     1      41.024 -15.006   3.309  1.00  0.00     0.048 A 
HETATM    5  N   UNL     1      41.370 -15.177   4.638  1.00  0.00    -0.308 N 
HETATM    6  C   UNL     1      42.056 -14.287   5.403  1.00  0.00     0.330 C 
HETATM    7  O   UNL     1      42.233 -14.585   6.585  1.00  0.00    -0.246 OA
HETATM    8  C   UNL     1      41.126 -13.732   1.277  1.00  0.00     0.034 A 
HETATM    9  C   UNL     1      40.293 -14.664   0.656  1.00  0.00     0.011 A 
HETATM   10 BR   UNL     1      39.781 -14.413  -1.146  1.00  0.00    -0.051 Br
HETATM   11  C   UNL     1      39.835 -15.777   1.354  1.00  0.00     0.021 A 
HETATM   12  C   UNL     1      40.209 -15.954   2.685  1.00  0.00     0.031 A 
HETATM   13  H   UNL     1      41.041 -15.988   5.147  1.00  0.00     0.170 HD
ENDROOT
BRANCH   1  14
HETATM   14  C   UNL     1      43.054 -12.075   5.618  1.00  0.00     0.043 A 
HETATM   15  C   UNL     1      42.223 -11.212   6.343  1.00  0.00     0.032 A 
HETATM   16  C   UNL     1      42.766 -10.243   7.195  1.00  0.00     0.039 A 
HETATM   17  C   UNL     1      44.145 -10.142   7.371  1.00  0.00     0.068 A 
HETATM   18  C   UNL     1      44.984 -10.979   6.642  1.00  0.00     0.039 A 
HETATM   19  C   UNL     1      44.440 -11.929   5.768  1.00  0.00     0.032 A 
BRANCH  17  20
HETATM   20  O   UNL     1      44.548  -9.186   8.261  1.00  0.00    -0.352 OA
BRANCH  20  21
HETATM   21  C   UNL     1      45.557  -9.581   9.192  1.00  0.00     0.171 C 
HETATM   22  C   UNL     1      44.865 -10.080  10.448  1.00  0.00     0.034 C 
ENDBRANCH  20  21
ENDBRANCH  17  20
ENDBRANCH   1  14
BRANCH   2  23
HETATM   23  C   UNL     1      41.853 -11.445   3.088  1.00  0.00     0.279 C 
HETATM   24  N   UNL     1      40.528 -11.291   3.481  1.00  0.00    -0.352 N 
HETATM   25  H   UNL     1      40.076 -12.102   3.894  1.00  0.00     0.163 HD
HETATM   26  O   UNL     1      42.521 -10.544   2.584  1.00  0.00    -0.268 OA
BRANCH  24  27
HETATM   27  C   UNL     1      39.775 -10.106   3.240  1.00  0.00     0.084 A 
HETATM   28  C   UNL     1      38.343 -10.167   2.782  1.00  0.00     0.027 A 
HETATM   29  C   UNL     1      38.661  -9.719   4.176  1.00  0.00     0.027 A 
ENDBRANCH  24  27
ENDBRANCH   2  23
BRANCH   2  30
HETATM   30  O   UNL     1      43.695 -13.131   2.777  1.00  0.00    -0.359 OA
HETATM   31  H   UNL     1      44.286 -13.083   3.549  1.00  0.00     0.213 HD
ENDBRANCH   2  30
TORSDOF 6
ENDMDL
MODEL 10
REMARK VINA RESULT:      -6.7      3.046      7.344
REMARK  6 active torsions:
REMARK  status: ('A' for Active; 'I' for Inactive)
REMARK    1  A    between atoms: C_2  and  O_3 
REMARK    2  A    between atoms: O_3  and  C_4 
REMARK    3  A    between atoms: C_7  and  N_8 
REMARK    4  A    between atoms: C_9  and  C_11 
REMARK    5  A    between atoms: C_9  and  O_10 
REMARK       I    between atoms: C_11  and  N_12 
REMARK    6  A    between atoms: N_12  and  C_13 
ROOT
HETATM    1  N   UNL     1      41.236 -14.790   1.985  1.00  0.00    -0.254 N 
HETATM    2  C   UNL     1      41.758 -13.412   2.003  1.00  0.00     0.256 C 
HETATM    3  C   UNL     1      40.826 -12.367   1.422  1.00  0.00     0.035 A 
HETATM    4  C   UNL     1      39.684 -12.779   0.750  1.00  0.00     0.048 A 
HETATM    5  N   UNL     1      39.405 -14.132   0.663  1.00  0.00    -0.308 N 
HETATM    6  C   UNL     1      40.099 -15.130   1.273  1.00  0.00     0.330 C 
HETATM    7  O   UNL     1      39.677 -16.277   1.124  1.00  0.00    -0.246 OA
HETATM    8  C   UNL     1      41.091 -10.987   1.504  1.00  0.00     0.034 A 
HETATM    9  C   UNL     1      40.207 -10.064   0.943  1.00  0.00     0.011 A 
HETATM   10 BR   UNL     1      40.559  -8.213   1.098  1.00  0.00    -0.051 Br
HETATM   11  C   UNL     1      39.067 -10.495   0.271  1.00  0.00     0.021 A 
HETATM   12  C   UNL     1      38.808 -11.860   0.167  1.00  0.00     0.031 A 
HETATM   13  H   UNL     1      38.579 -14.449   0.172  1.00  0.00     0.170 HD
ENDROOT
BRANCH   1  14
HETATM   14  C   UNL     1      41.858 -15.779   2.828  1.00  0.00     0.043 A 
HETATM   15  C   UNL     1      43.003 -16.483   2.434  1.00  0.00     0.032 A 
HETATM   16  C   UNL     1      43.629 -17.378   3.309  1.00  0.00     0.039 A 
HETATM   17  C   UNL     1      43.151 -17.560   4.605  1.00  0.00     0.068 A 
HETATM   18  C   UNL     1      42.002 -16.884   5.004  1.00  0.00     0.039 A 
HETATM   19  C   UNL     1      41.359 -16.010   4.118  1.00  0.00     0.032 A 
BRANCH  17  20
HETATM   20  O   UNL     1      43.874 -18.428   5.375  1.00  0.00    -0.352 OA
BRANCH  20  21
HETATM   21  C   UNL     1      44.422 -19.560   4.698  1.00  0.00     0.171 C 
HETATM   22  C   UNL     1      43.921 -20.811   5.397  1.00  0.00     0.034 C 
ENDBRANCH  20  21
ENDBRANCH  17  20
ENDBRANCH   1  14
BRANCH   2  23
HETATM   23  C   UNL     1      42.092 -12.999   3.502  1.00  0.00     0.279 C 
HETATM   24  N   UNL     1      40.950 -12.767   4.261  1.00  0.00    -0.352 N 
HETATM   25  H   UNL     1      40.056 -12.901   3.796  1.00  0.00     0.163 HD
HETATM   26  O   UNL     1      43.235 -12.882   3.941  1.00  0.00    -0.268 OA
BRANCH  24  27
HETATM   27  C   UNL     1      40.987 -12.266   5.594  1.00  0.00     0.084 A 
HETATM   28  C   UNL     1      41.005 -10.787   5.874  1.00  0.00     0.027 A 
HETATM   29  C   UNL     1      39.775 -11.588   6.177  1.00  0.00     0.027 A 
ENDBRANCH  24  27
ENDBRANCH   2  23
BRANCH   2  30
HETATM   30  O   UNL     1      42.907 -13.394   1.154  1.00  0.00    -0.359 OA
HETATM   31  H   UNL     1      43.570 -12.924   1.690  1.00  0.00     0.213 HD
ENDBRANCH   2  30
TORSDOF 6
ENDMDL
