MODEL 1
REMARK VINA RESULT:      -8.0      0.000      0.000
REMARK  7 active torsions:
REMARK  status: ('A' for Active; 'I' for Inactive)
REMARK    1  A    between atoms: C_2  and  N_3 
REMARK    2  A    between atoms: C_2  and  C_17 
REMARK       I    between atoms: N_3  and  C_4 
REMARK    3  A    between atoms: C_4  and  C_5 
REMARK    4  A    between atoms: C_6  and  N_7 
REMARK    5  A    between atoms: C_17  and  O_18 
REMARK    6  A    between atoms: C_17  and  C_19 
REMARK    7  A    between atoms: C_22  and  O_23 
ROOT
HETATM    1  N   UNL     1      41.591 -16.537   2.993  1.00  0.00    -0.350 N 
HETATM    2  C   UNL     1      42.816 -16.988   2.543  1.00  0.00     0.255 C 
HETATM    3  O   UNL     1      43.587 -16.373   1.822  1.00  0.00    -0.268 OA
HETATM    4  H   UNL     1      41.044 -17.137   3.598  1.00  0.00     0.163 HD
ENDROOT
BRANCH   1   5
HETATM    5  C   UNL     1      40.975 -15.261   2.582  1.00  0.00     0.114 C 
HETATM    6  C   UNL     1      39.791 -15.488   1.637  1.00  0.00     0.035 C 
BRANCH   5   7
HETATM    7  C   UNL     1      40.671 -14.323   3.794  1.00  0.00     0.173 C 
BRANCH   7   8
HETATM    8  O   UNL     1      39.502 -13.533   3.591  1.00  0.00    -0.389 OA
HETATM    9  H   UNL     1      39.561 -12.757   4.173  1.00  0.00     0.210 HD
ENDBRANCH   7   8
BRANCH   7  10
HETATM   10  C   UNL     1      41.838 -13.427   4.171  1.00  0.00    -0.028 A 
HETATM   11  C   UNL     1      42.185 -13.239   5.514  1.00  0.00     0.012 A 
HETATM   12  C   UNL     1      43.276 -12.434   5.857  1.00  0.00     0.037 A 
HETATM   13  C   UNL     1      44.043 -11.809   4.871  1.00  0.00     0.068 A 
HETATM   14  C   UNL     1      43.702 -11.985   3.532  1.00  0.00     0.037 A 
HETATM   15  C   UNL     1      42.610 -12.786   3.187  1.00  0.00     0.012 A 
BRANCH  13  16
HETATM   16  O   UNL     1      45.085 -11.059   5.343  1.00  0.00    -0.356 OA
HETATM   17  C   UNL     1      45.389 -11.186   6.727  1.00  0.00     0.210 C 
ENDBRANCH  13  16
ENDBRANCH   7  10
ENDBRANCH   5   7
ENDBRANCH   1   5
BRANCH   2  18
HETATM   18  C   UNL     1      43.202 -18.328   3.016  1.00  0.00     0.079 A 
HETATM   19  C   UNL     1      43.728 -18.598   4.282  1.00  0.00     0.165 A 
HETATM   20  N   UNL     1      44.226 -19.841   4.586  1.00  0.00    -0.241 NA
HETATM   21  C   UNL     1      44.190 -20.808   3.648  1.00  0.00     0.119 A 
HETATM   22  C   UNL     1      43.675 -20.620   2.382  1.00  0.00     0.020 A 
HETATM   23  C   UNL     1      43.184 -19.361   2.060  1.00  0.00     0.022 A 
BRANCH  19  24
HETATM   24  N   UNL     1      43.737 -17.640   5.358  1.00  0.00    -0.226 N 
HETATM   25  N   UNL     1      42.595 -17.413   6.079  1.00  0.00    -0.179 NA
HETATM   26  C   UNL     1      42.934 -16.506   6.992  1.00  0.00     0.141 A 
HETATM   27  C   UNL     1      44.252 -16.061   6.843  1.00  0.00     0.040 A 
HETATM   28  C   UNL     1      44.731 -16.768   5.766  1.00  0.00     0.122 A 
ENDBRANCH  19  24
ENDBRANCH   2  18
TORSDOF 7
ENDMDL
MODEL 2
REMARK VINA RESULT:      -7.2      2.868      4.936
REMARK  7 active torsions:
REMARK  status: ('A' for Active; 'I' for Inactive)
REMARK    1  A    between atoms: C_2  and  N_3 
REMARK    2  A    between atoms: C_2  and  C_17 
REMARK       I    between atoms: N_3  and  C_4 
REMARK    3  A    between atoms: C_4  and  C_5 
REMARK    4  A    between atoms: C_6  and  N_7 
REMARK    5  A    between atoms: C_17  and  O_18 
REMARK    6  A    between atoms: C_17  and  C_19 
REMARK    7  A    between atoms: C_22  and  O_23 
ROOT
HETATM    1  N   UNL     1      41.877 -14.622   2.981  1.00  0.00    -0.350 N 
HETATM    2  C   UNL     1      41.367 -15.848   3.358  1.00  0.00     0.255 C 
HETATM    3  O   UNL     1      40.187 -16.112   3.536  1.00  0.00    -0.268 OA
HETATM    4  H   UNL     1      42.877 -14.529   2.854  1.00  0.00     0.163 HD
ENDROOT
BRANCH   1   5
HETATM    5  C   UNL     1      41.068 -13.398   2.832  1.00  0.00     0.114 C 
HETATM    6  C   UNL     1      40.900 -12.668   4.169  1.00  0.00     0.035 C 
BRANCH   5   7
HETATM    7  C   UNL     1      41.555 -12.494   1.655  1.00  0.00     0.173 C 
BRANCH   7   8
HETATM    8  O   UNL     1      41.288 -11.112   1.880  1.00  0.00    -0.389 OA
HETATM    9  H   UNL     1      40.333 -11.012   2.025  1.00  0.00     0.210 HD
ENDBRANCH   7   8
BRANCH   7  10
HETATM   10  C   UNL     1      41.000 -12.911   0.303  1.00  0.00    -0.028 A 
HETATM   11  C   UNL     1      40.283 -14.106   0.167  1.00  0.00     0.012 A 
HETATM   12  C   UNL     1      39.752 -14.475  -1.072  1.00  0.00     0.037 A 
HETATM   13  C   UNL     1      39.918 -13.660  -2.194  1.00  0.00     0.068 A 
HETATM   14  C   UNL     1      40.635 -12.472  -2.070  1.00  0.00     0.037 A 
HETATM   15  C   UNL     1      41.171 -12.102  -0.833  1.00  0.00     0.012 A 
BRANCH  13  16
HETATM   16  O   UNL     1      39.341 -14.135  -3.340  1.00  0.00    -0.356 OA
HETATM   17  C   UNL     1      37.927 -14.293  -3.325  1.00  0.00     0.210 C 
ENDBRANCH  13  16
ENDBRANCH   7  10
ENDBRANCH   5   7
ENDBRANCH   1   5
BRANCH   2  18
HETATM   18  C   UNL     1      42.366 -16.916   3.527  1.00  0.00     0.079 A 
HETATM   19  C   UNL     1      43.252 -17.005   4.605  1.00  0.00     0.165 A 
HETATM   20  N   UNL     1      44.269 -17.928   4.604  1.00  0.00    -0.241 NA
HETATM   21  C   UNL     1      44.397 -18.761   3.552  1.00  0.00     0.119 A 
HETATM   22  C   UNL     1      43.554 -18.741   2.460  1.00  0.00     0.020 A 
HETATM   23  C   UNL     1      42.532 -17.799   2.445  1.00  0.00     0.022 A 
BRANCH  19  24
HETATM   24  N   UNL     1      43.139 -16.199   5.793  1.00  0.00    -0.226 N 
HETATM   25  N   UNL     1      43.457 -14.868   5.746  1.00  0.00    -0.179 NA
HETATM   26  C   UNL     1      43.233 -14.412   6.977  1.00  0.00     0.141 A 
HETATM   27  C   UNL     1      42.854 -15.426   7.863  1.00  0.00     0.040 A 
HETATM   28  C   UNL     1      42.842 -16.565   7.094  1.00  0.00     0.122 A 
ENDBRANCH  19  24
ENDBRANCH   2  18
TORSDOF 7
ENDMDL
MODEL 3
REMARK VINA RESULT:      -7.2      2.224      4.065
REMARK  7 active torsions:
REMARK  status: ('A' for Active; 'I' for Inactive)
REMARK    1  A    between atoms: C_2  and  N_3 
REMARK    2  A    between atoms: C_2  and  C_17 
REMARK       I    between atoms: N_3  and  C_4 
REMARK    3  A    between atoms: C_4  and  C_5 
REMARK    4  A    between atoms: C_6  and  N_7 
REMARK    5  A    between atoms: C_17  and  O_18 
REMARK    6  A    between atoms: C_17  and  C_19 
REMARK    7  A    between atoms: C_22  and  O_23 
ROOT
HETATM    1  N   UNL     1      42.261 -16.047   3.745  1.00  0.00    -0.350 N 
HETATM    2  C   UNL     1      42.966 -16.737   2.779  1.00  0.00     0.255 C 
HETATM    3  O   UNL     1      43.398 -16.272   1.736  1.00  0.00    -0.268 OA
HETATM    4  H   UNL     1      41.963 -16.542   4.576  1.00  0.00     0.163 HD
ENDROOT
BRANCH   1   5
HETATM    5  C   UNL     1      41.831 -14.642   3.613  1.00  0.00     0.114 C 
HETATM    6  C   UNL     1      42.864 -13.808   2.848  1.00  0.00     0.035 C 
BRANCH   5   7
HETATM    7  C   UNL     1      40.367 -14.507   3.086  1.00  0.00     0.173 C 
BRANCH   7   8
HETATM    8  O   UNL     1      39.605 -15.696   3.281  1.00  0.00    -0.389 OA
HETATM    9  H   UNL     1      38.727 -15.556   2.891  1.00  0.00     0.210 HD
ENDBRANCH   7   8
BRANCH   7  10
HETATM   10  C   UNL     1      40.286 -14.078   1.631  1.00  0.00    -0.028 A 
HETATM   11  C   UNL     1      40.194 -15.032   0.612  1.00  0.00     0.012 A 
HETATM   12  C   UNL     1      40.095 -14.633  -0.725  1.00  0.00     0.037 A 
HETATM   13  C   UNL     1      40.080 -13.279  -1.069  1.00  0.00     0.068 A 
HETATM   14  C   UNL     1      40.178 -12.322  -0.062  1.00  0.00     0.037 A 
HETATM   15  C   UNL     1      40.281 -12.718   1.275  1.00  0.00     0.012 A 
BRANCH  13  16
HETATM   16  O   UNL     1      39.970 -13.028  -2.409  1.00  0.00    -0.356 OA
HETATM   17  C   UNL     1      41.056 -12.344  -3.022  1.00  0.00     0.210 C 
ENDBRANCH  13  16
ENDBRANCH   7  10
ENDBRANCH   5   7
ENDBRANCH   1   5
BRANCH   2  18
HETATM   18  C   UNL     1      43.218 -18.156   3.082  1.00  0.00     0.079 A 
HETATM   19  C   UNL     1      43.751 -18.624   4.286  1.00  0.00     0.165 A 
HETATM   20  N   UNL     1      44.121 -19.939   4.427  1.00  0.00    -0.241 NA
HETATM   21  C   UNL     1      43.949 -20.782   3.390  1.00  0.00     0.119 A 
HETATM   22  C   UNL     1      43.417 -20.396   2.177  1.00  0.00     0.020 A 
HETATM   23  C   UNL     1      43.056 -19.063   2.019  1.00  0.00     0.022 A 
BRANCH  19  24
HETATM   24  N   UNL     1      43.901 -17.802   5.460  1.00  0.00    -0.226 N 
HETATM   25  N   UNL     1      44.843 -16.807   5.481  1.00  0.00    -0.179 NA
HETATM   26  C   UNL     1      44.716 -16.233   6.675  1.00  0.00     0.141 A 
HETATM   27  C   UNL     1      43.770 -16.875   7.481  1.00  0.00     0.040 A 
HETATM   28  C   UNL     1      43.294 -17.900   6.700  1.00  0.00     0.122 A 
ENDBRANCH  19  24
ENDBRANCH   2  18
TORSDOF 7
ENDMDL
MODEL 4
REMARK VINA RESULT:      -7.2      3.844      7.539
REMARK  7 active torsions:
REMARK  status: ('A' for Active; 'I' for Inactive)
REMARK    1  A    between atoms: C_2  and  N_3 
REMARK    2  A    between atoms: C_2  and  C_17 
REMARK       I    between atoms: N_3  and  C_4 
REMARK    3  A    between atoms: C_4  and  C_5 
REMARK    4  A    between atoms: C_6  and  N_7 
REMARK    5  A    between atoms: C_17  and  O_18 
REMARK    6  A    between atoms: C_17  and  C_19 
REMARK    7  A    between atoms: C_22  and  O_23 
ROOT
HETATM    1  N   UNL     1      41.708 -14.262   0.655  1.00  0.00    -0.350 N 
HETATM    2  C   UNL     1      40.404 -13.829   0.526  1.00  0.00     0.255 C 
HETATM    3  O   UNL     1      39.670 -13.477   1.438  1.00  0.00    -0.268 OA
HETATM    4  H   UNL     1      42.220 -14.518  -0.180  1.00  0.00     0.163 HD
ENDROOT
BRANCH   1   5
HETATM    5  C   UNL     1      42.392 -14.462   1.946  1.00  0.00     0.114 C 
HETATM    6  C   UNL     1      42.815 -13.129   2.571  1.00  0.00     0.035 C 
BRANCH   5   7
HETATM    7  C   UNL     1      41.602 -15.408   2.906  1.00  0.00     0.173 C 
BRANCH   7   8
HETATM    8  O   UNL     1      41.033 -14.712   4.012  1.00  0.00    -0.389 OA
HETATM    9  H   UNL     1      40.356 -15.285   4.409  1.00  0.00     0.210 HD
ENDBRANCH   7   8
BRANCH   7  10
HETATM   10  C   UNL     1      42.424 -16.584   3.405  1.00  0.00    -0.028 A 
HETATM   11  C   UNL     1      42.847 -17.583   2.521  1.00  0.00     0.012 A 
HETATM   12  C   UNL     1      43.625 -18.651   2.979  1.00  0.00     0.037 A 
HETATM   13  C   UNL     1      44.000 -18.740   4.322  1.00  0.00     0.068 A 
HETATM   14  C   UNL     1      43.578 -17.754   5.211  1.00  0.00     0.037 A 
HETATM   15  C   UNL     1      42.797 -16.687   4.756  1.00  0.00     0.012 A 
BRANCH  13  16
HETATM   16  O   UNL     1      44.767 -19.829   4.633  1.00  0.00    -0.356 OA
HETATM   17  C   UNL     1      44.130 -20.873   5.359  1.00  0.00     0.210 C 
ENDBRANCH  13  16
ENDBRANCH   7  10
ENDBRANCH   5   7
ENDBRANCH   1   5
BRANCH   2  18
HETATM   18  C   UNL     1      39.894 -13.780  -0.855  1.00  0.00     0.079 A 
HETATM   19  C   UNL     1      39.752 -12.608  -1.603  1.00  0.00     0.165 A 
HETATM   20  N   UNL     1      39.106 -12.622  -2.815  1.00  0.00    -0.241 NA
HETATM   21  C   UNL     1      38.621 -13.789  -3.284  1.00  0.00     0.119 A 
HETATM   22  C   UNL     1      38.735 -14.986  -2.609  1.00  0.00     0.020 A 
HETATM   23  C   UNL     1      39.371 -14.978  -1.374  1.00  0.00     0.022 A 
BRANCH  19  24
HETATM   24  N   UNL     1      40.303 -11.339  -1.202  1.00  0.00    -0.226 N 
HETATM   25  N   UNL     1      39.538 -10.461  -0.480  1.00  0.00    -0.179 NA
HETATM   26  C   UNL     1      40.328  -9.413  -0.257  1.00  0.00     0.141 A 
HETATM   27  C   UNL     1      41.572  -9.536  -0.884  1.00  0.00     0.040 A 
HETATM   28  C   UNL     1      41.517 -10.755  -1.517  1.00  0.00     0.122 A 
ENDBRANCH  19  24
ENDBRANCH   2  18
TORSDOF 7
ENDMDL
MODEL 5
REMARK VINA RESULT:      -7.0      2.418      5.766
REMARK  7 active torsions:
REMARK  status: ('A' for Active; 'I' for Inactive)
REMARK    1  A    between atoms: C_2  and  N_3 
REMARK    2  A    between atoms: C_2  and  C_17 
REMARK       I    between atoms: N_3  and  C_4 
REMARK    3  A    between atoms: C_4  and  C_5 
REMARK    4  A    between atoms: C_6  and  N_7 
REMARK    5  A    between atoms: C_17  and  O_18 
REMARK    6  A    between atoms: C_17  and  C_19 
REMARK    7  A    between atoms: C_22  and  O_23 
ROOT
HETATM    1  N   UNL     1      40.958 -12.810   3.882  1.00  0.00    -0.350 N 
HETATM    2  C   UNL     1      40.909 -12.982   5.251  1.00  0.00     0.255 C 
HETATM    3  O   UNL     1      40.017 -13.539   5.873  1.00  0.00    -0.268 OA
HETATM    4  H   UNL     1      41.759 -12.339   3.480  1.00  0.00     0.163 HD
ENDROOT
BRANCH   1   5
HETATM    5  C   UNL     1      39.874 -13.192   2.958  1.00  0.00     0.114 C 
HETATM    6  C   UNL     1      38.857 -12.059   2.785  1.00  0.00     0.035 C 
BRANCH   5   7
HETATM    7  C   UNL     1      40.408 -13.797   1.620  1.00  0.00     0.173 C 
BRANCH   7   8
HETATM    8  O   UNL     1      39.357 -14.221   0.755  1.00  0.00    -0.389 OA
HETATM    9  H   UNL     1      39.279 -15.186   0.832  1.00  0.00     0.210 HD
ENDBRANCH   7   8
BRANCH   7  10
HETATM   10  C   UNL     1      41.397 -14.932   1.824  1.00  0.00    -0.028 A 
HETATM   11  C   UNL     1      40.962 -16.183   2.276  1.00  0.00     0.012 A 
HETATM   12  C   UNL     1      41.871 -17.232   2.438  1.00  0.00     0.037 A 
HETATM   13  C   UNL     1      43.226 -17.058   2.147  1.00  0.00     0.068 A 
HETATM   14  C   UNL     1      43.670 -15.815   1.702  1.00  0.00     0.037 A 
HETATM   15  C   UNL     1      42.764 -14.762   1.542  1.00  0.00     0.012 A 
BRANCH  13  16
HETATM   16  O   UNL     1      44.003 -18.167   2.340  1.00  0.00    -0.356 OA
HETATM   17  C   UNL     1      43.326 -19.370   2.681  1.00  0.00     0.210 C 
ENDBRANCH  13  16
ENDBRANCH   7  10
ENDBRANCH   5   7
ENDBRANCH   1   5
BRANCH   2  18
HETATM   18  C   UNL     1      42.067 -12.452   5.991  1.00  0.00     0.079 A 
HETATM   19  C   UNL     1      43.001 -13.242   6.665  1.00  0.00     0.165 A 
HETATM   20  N   UNL     1      43.950 -12.669   7.477  1.00  0.00    -0.241 NA
HETATM   21  C   UNL     1      43.978 -11.328   7.605  1.00  0.00     0.119 A 
HETATM   22  C   UNL     1      43.098 -10.484   6.960  1.00  0.00     0.020 A 
HETATM   23  C   UNL     1      42.123 -11.056   6.151  1.00  0.00     0.022 A 
BRANCH  19  24
HETATM   24  N   UNL     1      43.080 -14.673   6.525  1.00  0.00    -0.226 N 
HETATM   25  N   UNL     1      42.749 -15.481   7.581  1.00  0.00    -0.179 NA
HETATM   26  C   UNL     1      42.905 -16.724   7.131  1.00  0.00     0.141 A 
HETATM   27  C   UNL     1      43.413 -16.763   5.829  1.00  0.00     0.040 A 
HETATM   28  C   UNL     1      43.557 -15.442   5.478  1.00  0.00     0.122 A 
ENDBRANCH  19  24
ENDBRANCH   2  18
TORSDOF 7
ENDMDL
MODEL 6
REMARK VINA RESULT:      -7.0      2.356      4.347
REMARK  7 active torsions:
REMARK  status: ('A' for Active; 'I' for Inactive)
REMARK    1  A    between atoms: C_2  and  N_3 
REMARK    2  A    between atoms: C_2  and  C_17 
REMARK       I    between atoms: N_3  and  C_4 
REMARK    3  A    between atoms: C_4  and  C_5 
REMARK    4  A    between atoms: C_6  and  N_7 
REMARK    5  A    between atoms: C_17  and  O_18 
REMARK    6  A    between atoms: C_17  and  C_19 
REMARK    7  A    between atoms: C_22  and  O_23 
ROOT
HETATM    1  N   UNL     1      43.160 -14.527   4.744  1.00  0.00    -0.350 N 
HETATM    2  C   UNL     1      42.823 -15.800   5.159  1.00  0.00     0.255 C 
HETATM    3  O   UNL     1      42.220 -16.086   6.183  1.00  0.00    -0.268 OA
HETATM    4  H   UNL     1      43.653 -14.417   3.867  1.00  0.00     0.163 HD
ENDROOT
BRANCH   1   5
HETATM    5  C   UNL     1      42.926 -13.307   5.538  1.00  0.00     0.114 C 
HETATM    6  C   UNL     1      41.433 -13.077   5.789  1.00  0.00     0.035 C 
BRANCH   5   7
HETATM    7  C   UNL     1      43.819 -13.242   6.819  1.00  0.00     0.173 C 
BRANCH   7   8
HETATM    8  O   UNL     1      43.271 -13.987   7.904  1.00  0.00    -0.389 OA
HETATM    9  H   UNL     1      42.675 -14.658   7.534  1.00  0.00     0.210 HD
ENDBRANCH   7   8
BRANCH   7  10
HETATM   10  C   UNL     1      44.123 -11.823   7.271  1.00  0.00    -0.028 A 
HETATM   11  C   UNL     1      45.443 -11.357   7.310  1.00  0.00     0.012 A 
HETATM   12  C   UNL     1      45.717 -10.044   7.702  1.00  0.00     0.037 A 
HETATM   13  C   UNL     1      44.685  -9.170   8.055  1.00  0.00     0.068 A 
HETATM   14  C   UNL     1      43.370  -9.627   8.024  1.00  0.00     0.037 A 
HETATM   15  C   UNL     1      43.092 -10.941   7.636  1.00  0.00     0.012 A 
BRANCH  13  16
HETATM   16  O   UNL     1      45.092  -7.913   8.409  1.00  0.00    -0.356 OA
HETATM   17  C   UNL     1      44.123  -7.080   9.033  1.00  0.00     0.210 C 
ENDBRANCH  13  16
ENDBRANCH   7  10
ENDBRANCH   5   7
ENDBRANCH   1   5
BRANCH   2  18
HETATM   18  C   UNL     1      43.223 -16.884   4.246  1.00  0.00     0.079 A 
HETATM   19  C   UNL     1      42.670 -17.095   2.980  1.00  0.00     0.165 A 
HETATM   20  N   UNL     1      42.969 -18.226   2.262  1.00  0.00    -0.241 NA
HETATM   21  C   UNL     1      43.819 -19.130   2.789  1.00  0.00     0.119 A 
HETATM   22  C   UNL     1      44.414 -18.984   4.025  1.00  0.00     0.020 A 
HETATM   23  C   UNL     1      44.103 -17.850   4.766  1.00  0.00     0.022 A 
BRANCH  19  24
HETATM   24  N   UNL     1      41.811 -16.144   2.321  1.00  0.00    -0.226 N 
HETATM   25  N   UNL     1      42.358 -15.110   1.610  1.00  0.00    -0.179 NA
HETATM   26  C   UNL     1      41.319 -14.437   1.119  1.00  0.00     0.141 A 
HETATM   27  C   UNL     1      40.093 -14.950   1.555  1.00  0.00     0.040 A 
HETATM   28  C   UNL     1      40.434 -16.013   2.357  1.00  0.00     0.122 A 
ENDBRANCH  19  24
ENDBRANCH   2  18
TORSDOF 7
ENDMDL
MODEL 7
REMARK VINA RESULT:      -7.0      3.220      6.960
REMARK  7 active torsions:
REMARK  status: ('A' for Active; 'I' for Inactive)
REMARK    1  A    between atoms: C_2  and  N_3 
REMARK    2  A    between atoms: C_2  and  C_17 
REMARK       I    between atoms: N_3  and  C_4 
REMARK    3  A    between atoms: C_4  and  C_5 
REMARK    4  A    between atoms: C_6  and  N_7 
REMARK    5  A    between atoms: C_17  and  O_18 
REMARK    6  A    between atoms: C_17  and  C_19 
REMARK    7  A    between atoms: C_22  and  O_23 
ROOT
HETATM    1  N   UNL     1      42.222 -13.567   4.269  1.00  0.00    -0.350 N 
HETATM    2  C   UNL     1      42.044 -13.556   5.638  1.00  0.00     0.255 C 
HETATM    3  O   UNL     1      41.459 -14.407   6.293  1.00  0.00    -0.268 OA
HETATM    4  H   UNL     1      42.735 -12.807   3.840  1.00  0.00     0.163 HD
ENDROOT
BRANCH   1   5
HETATM    5  C   UNL     1      41.637 -14.574   3.364  1.00  0.00     0.114 C 
HETATM    6  C   UNL     1      40.418 -14.020   2.619  1.00  0.00     0.035 C 
BRANCH   5   7
HETATM    7  C   UNL     1      42.706 -15.252   2.448  1.00  0.00     0.173 C 
BRANCH   7   8
HETATM    8  O   UNL     1      42.233 -15.459   1.119  1.00  0.00    -0.389 OA
HETATM    9  H   UNL     1      41.358 -15.045   1.046  1.00  0.00     0.210 HD
ENDBRANCH   7   8
BRANCH   7  10
HETATM   10  C   UNL     1      43.243 -16.557   3.013  1.00  0.00    -0.028 A 
HETATM   11  C   UNL     1      43.719 -16.621   4.328  1.00  0.00     0.012 A 
HETATM   12  C   UNL     1      44.189 -17.828   4.852  1.00  0.00     0.037 A 
HETATM   13  C   UNL     1      44.187 -18.993   4.081  1.00  0.00     0.068 A 
HETATM   14  C   UNL     1      43.721 -18.939   2.770  1.00  0.00     0.037 A 
HETATM   15  C   UNL     1      43.254 -17.731   2.241  1.00  0.00     0.012 A 
BRANCH  13  16
HETATM   16  O   UNL     1      44.665 -20.105   4.718  1.00  0.00    -0.356 OA
HETATM   17  C   UNL     1      43.704 -20.941   5.352  1.00  0.00     0.210 C 
ENDBRANCH  13  16
ENDBRANCH   7  10
ENDBRANCH   5   7
ENDBRANCH   1   5
BRANCH   2  18
HETATM   18  C   UNL     1      42.647 -12.411   6.340  1.00  0.00     0.079 A 
HETATM   19  C   UNL     1      42.098 -11.126   6.371  1.00  0.00     0.165 A 
HETATM   20  N   UNL     1      42.805 -10.072   6.896  1.00  0.00    -0.241 NA
HETATM   21  C   UNL     1      44.038 -10.295   7.395  1.00  0.00     0.119 A 
HETATM   22  C   UNL     1      44.639 -11.536   7.410  1.00  0.00     0.020 A 
HETATM   23  C   UNL     1      43.937 -12.605   6.866  1.00  0.00     0.022 A 
BRANCH  19  24
HETATM   24  N   UNL     1      40.764 -10.822   5.922  1.00  0.00    -0.226 N 
HETATM   25  N   UNL     1      39.700 -11.021   6.762  1.00  0.00    -0.179 NA
HETATM   26  C   UNL     1      38.631 -10.634   6.068  1.00  0.00     0.141 A 
HETATM   27  C   UNL     1      38.949 -10.262   4.758  1.00  0.00     0.040 A 
HETATM   28  C   UNL     1      40.310 -10.431   4.675  1.00  0.00     0.122 A 
ENDBRANCH  19  24
ENDBRANCH   2  18
TORSDOF 7
ENDMDL
MODEL 8
REMARK VINA RESULT:      -6.9      3.287      7.122
REMARK  7 active torsions:
REMARK  status: ('A' for Active; 'I' for Inactive)
REMARK    1  A    between atoms: C_2  and  N_3 
REMARK    2  A    between atoms: C_2  and  C_17 
REMARK       I    between atoms: N_3  and  C_4 
REMARK    3  A    between atoms: C_4  and  C_5 
REMARK    4  A    between atoms: C_6  and  N_7 
REMARK    5  A    between atoms: C_17  and  O_18 
REMARK    6  A    between atoms: C_17  and  C_19 
REMARK    7  A    between atoms: C_22  and  O_23 
ROOT
HETATM    1  N   UNL     1      41.290 -13.253   3.485  1.00  0.00    -0.350 N 
HETATM    2  C   UNL     1      40.919 -12.670   4.680  1.00  0.00     0.255 C 
HETATM    3  O   UNL     1      40.667 -13.261   5.719  1.00  0.00    -0.268 OA
HETATM    4  H   UNL     1      41.485 -12.654   2.692  1.00  0.00     0.163 HD
ENDROOT
BRANCH   1   5
HETATM    5  C   UNL     1      41.344 -14.708   3.253  1.00  0.00     0.114 C 
HETATM    6  C   UNL     1      40.098 -15.205   2.514  1.00  0.00     0.035 C 
BRANCH   5   7
HETATM    7  C   UNL     1      42.699 -15.168   2.626  1.00  0.00     0.173 C 
BRANCH   7   8
HETATM    8  O   UNL     1      42.641 -15.256   1.204  1.00  0.00    -0.389 OA
HETATM    9  H   UNL     1      42.756 -16.188   0.958  1.00  0.00     0.210 HD
ENDBRANCH   7   8
BRANCH   7  10
HETATM   10  C   UNL     1      43.217 -16.476   3.201  1.00  0.00    -0.028 A 
HETATM   11  C   UNL     1      43.307 -17.620   2.399  1.00  0.00     0.012 A 
HETATM   12  C   UNL     1      43.808 -18.814   2.925  1.00  0.00     0.037 A 
HETATM   13  C   UNL     1      44.232 -18.890   4.254  1.00  0.00     0.068 A 
HETATM   14  C   UNL     1      44.140 -17.759   5.062  1.00  0.00     0.037 A 
HETATM   15  C   UNL     1      43.636 -16.564   4.540  1.00  0.00     0.012 A 
BRANCH  13  16
HETATM   16  O   UNL     1      44.707 -20.114   4.637  1.00  0.00    -0.356 OA
HETATM   17  C   UNL     1      43.855 -20.903   5.459  1.00  0.00     0.210 C 
ENDBRANCH  13  16
ENDBRANCH   7  10
ENDBRANCH   5   7
ENDBRANCH   1   5
BRANCH   2  18
HETATM   18  C   UNL     1      40.853 -11.199   4.666  1.00  0.00     0.079 A 
HETATM   19  C   UNL     1      41.790 -10.361   5.276  1.00  0.00     0.165 A 
HETATM   20  N   UNL     1      41.568  -9.009   5.370  1.00  0.00    -0.241 NA
HETATM   21  C   UNL     1      40.435  -8.494   4.852  1.00  0.00     0.119 A 
HETATM   22  C   UNL     1      39.472  -9.256   4.223  1.00  0.00     0.020 A 
HETATM   23  C   UNL     1      39.681 -10.627   4.139  1.00  0.00     0.022 A 
BRANCH  19  24
HETATM   24  N   UNL     1      43.053 -10.824   5.790  1.00  0.00    -0.226 N 
HETATM   25  N   UNL     1      44.073 -11.123   4.926  1.00  0.00    -0.179 NA
HETATM   26  C   UNL     1      45.089 -11.497   5.701  1.00  0.00     0.141 A 
HETATM   27  C   UNL     1      44.743 -11.535   7.056  1.00  0.00     0.040 A 
HETATM   28  C   UNL     1      43.426 -11.143   7.084  1.00  0.00     0.122 A 
ENDBRANCH  19  24
ENDBRANCH   2  18
TORSDOF 7
ENDMDL
MODEL 9
REMARK VINA RESULT:      -6.8      3.073      6.972
REMARK  7 active torsions:
REMARK  status: ('A' for Active; 'I' for Inactive)
REMARK    1  A    between atoms: C_2  and  N_3 
REMARK    2  A    between atoms: C_2  and  C_17 
REMARK       I    between atoms: N_3  and  C_4 
REMARK    3  A    between atoms: C_4  and  C_5 
REMARK    4  A    between atoms: C_6  and  N_7 
REMARK    5  A    between atoms: C_17  and  O_18 
REMARK    6  A    between atoms: C_17  and  C_19 
REMARK    7  A    between atoms: C_22  and  O_23 
ROOT
HETATM    1  N   UNL     1      42.716 -13.069   4.166  1.00  0.00    -0.350 N 
HETATM    2  C   UNL     1      43.301 -11.819   4.213  1.00  0.00     0.255 C 
HETATM    3  O   UNL     1      43.491 -11.078   3.260  1.00  0.00    -0.268 OA
HETATM    4  H   UNL     1      42.603 -13.585   5.029  1.00  0.00     0.163 HD
ENDROOT
BRANCH   1   5
HETATM    5  C   UNL     1      42.317 -13.751   2.921  1.00  0.00     0.114 C 
HETATM    6  C   UNL     1      43.523 -14.022   2.016  1.00  0.00     0.035 C 
BRANCH   5   7
HETATM    7  C   UNL     1      41.406 -14.994   3.181  1.00  0.00     0.173 C 
BRANCH   7   8
HETATM    8  O   UNL     1      40.485 -14.782   4.248  1.00  0.00    -0.389 OA
HETATM    9  H   UNL     1      39.643 -15.196   4.003  1.00  0.00     0.210 HD
ENDBRANCH   7   8
BRANCH   7  10
HETATM   10  C   UNL     1      42.188 -16.274   3.422  1.00  0.00    -0.028 A 
HETATM   11  C   UNL     1      42.363 -17.205   2.392  1.00  0.00     0.012 A 
HETATM   12  C   UNL     1      43.104 -18.371   2.610  1.00  0.00     0.037 A 
HETATM   13  C   UNL     1      43.688 -18.626   3.853  1.00  0.00     0.068 A 
HETATM   14  C   UNL     1      43.514 -17.709   4.886  1.00  0.00     0.037 A 
HETATM   15  C   UNL     1      42.770 -16.544   4.672  1.00  0.00     0.012 A 
BRANCH  13  16
HETATM   16  O   UNL     1      44.392 -19.796   3.928  1.00  0.00    -0.356 OA
HETATM   17  C   UNL     1      44.274 -20.538   5.135  1.00  0.00     0.210 C 
ENDBRANCH  13  16
ENDBRANCH   7  10
ENDBRANCH   5   7
ENDBRANCH   1   5
BRANCH   2  18
HETATM   18  C   UNL     1      43.697 -11.363   5.556  1.00  0.00     0.079 A 
HETATM   19  C   UNL     1      42.839 -10.735   6.462  1.00  0.00     0.165 A 
HETATM   20  N   UNL     1      43.323 -10.183   7.623  1.00  0.00    -0.241 NA
HETATM   21  C   UNL     1      44.642 -10.266   7.886  1.00  0.00     0.119 A 
HETATM   22  C   UNL     1      45.548 -10.882   7.047  1.00  0.00     0.020 A 
HETATM   23  C   UNL     1      45.069 -11.428   5.862  1.00  0.00     0.022 A 
BRANCH  19  24
HETATM   24  N   UNL     1      41.411 -10.667   6.285  1.00  0.00    -0.226 N 
HETATM   25  N   UNL     1      40.676 -11.821   6.224  1.00  0.00    -0.179 NA
HETATM   26  C   UNL     1      39.414 -11.423   6.079  1.00  0.00     0.141 A 
HETATM   27  C   UNL     1      39.300 -10.035   5.957  1.00  0.00     0.040 A 
HETATM   28  C   UNL     1      40.592  -9.576   6.049  1.00  0.00     0.122 A 
ENDBRANCH  19  24
ENDBRANCH   2  18
TORSDOF 7
ENDMDL
MODEL 10
REMARK VINA RESULT:      -6.8      1.886      2.177
REMARK  7 active torsions:
REMARK  status: ('A' for Active; 'I' for Inactive)
REMARK    1  A    between atoms: C_2  and  N_3 
REMARK    2  A    between atoms: C_2  and  C_17 
REMARK       I    between atoms: N_3  and  C_4 
REMARK    3  A    between atoms: C_4  and  C_5 
REMARK    4  A    between atoms: C_6  and  N_7 
REMARK    5  A    between atoms: C_17  and  O_18 
REMARK    6  A    between atoms: C_17  and  C_19 
REMARK    7  A    between atoms: C_22  and  O_23 
ROOT
HETATM    1  N   UNL     1      41.771 -16.502   3.338  1.00  0.00    -0.350 N 
HETATM    2  C   UNL     1      42.857 -17.027   2.667  1.00  0.00     0.255 C 
HETATM    3  O   UNL     1      43.526 -16.452   1.822  1.00  0.00    -0.268 OA
HETATM    4  H   UNL     1      41.302 -17.076   4.028  1.00  0.00     0.163 HD
ENDROOT
BRANCH   1   5
HETATM    5  C   UNL     1      41.184 -15.178   3.060  1.00  0.00     0.114 C 
HETATM    6  C   UNL     1      39.867 -15.298   2.287  1.00  0.00     0.035 C 
BRANCH   5   7
HETATM    7  C   UNL     1      41.113 -14.271   4.330  1.00  0.00     0.173 C 
BRANCH   7   8
HETATM    8  O   UNL     1      40.001 -14.587   5.164  1.00  0.00    -0.389 OA
HETATM    9  H   UNL     1      39.480 -15.276   4.719  1.00  0.00     0.210 HD
ENDBRANCH   7   8
BRANCH   7  10
HETATM   10  C   UNL     1      41.112 -12.786   4.012  1.00  0.00    -0.028 A 
HETATM   11  C   UNL     1      40.007 -11.990   4.335  1.00  0.00     0.012 A 
HETATM   12  C   UNL     1      40.020 -10.618   4.063  1.00  0.00     0.037 A 
HETATM   13  C   UNL     1      41.133 -10.015   3.474  1.00  0.00     0.068 A 
HETATM   14  C   UNL     1      42.235 -10.799   3.144  1.00  0.00     0.037 A 
HETATM   15  C   UNL     1      42.224 -12.172   3.410  1.00  0.00     0.012 A 
BRANCH  13  16
HETATM   16  O   UNL     1      41.016  -8.667   3.272  1.00  0.00    -0.356 OA
HETATM   17  C   UNL     1      41.190  -7.833   4.411  1.00  0.00     0.210 C 
ENDBRANCH  13  16
ENDBRANCH   7  10
ENDBRANCH   5   7
ENDBRANCH   1   5
BRANCH   2  18
HETATM   18  C   UNL     1      43.224 -18.401   3.049  1.00  0.00     0.079 A 
HETATM   19  C   UNL     1      43.772 -18.758   4.284  1.00  0.00     0.165 A 
HETATM   20  N   UNL     1      44.250 -20.027   4.500  1.00  0.00    -0.241 NA
HETATM   21  C   UNL     1      44.173 -20.934   3.506  1.00  0.00     0.119 A 
HETATM   22  C   UNL     1      43.634 -20.659   2.266  1.00  0.00     0.020 A 
HETATM   23  C   UNL     1      43.163 -19.373   2.033  1.00  0.00     0.022 A 
BRANCH  19  24
HETATM   24  N   UNL     1      43.827 -17.867   5.415  1.00  0.00    -0.226 N 
HETATM   25  N   UNL     1      44.567 -16.717   5.341  1.00  0.00    -0.179 NA
HETATM   26  C   UNL     1      44.398 -16.119   6.518  1.00  0.00     0.141 A 
HETATM   27  C   UNL     1      43.631 -16.883   7.403  1.00  0.00     0.040 A 
HETATM   28  C   UNL     1      43.313 -18.014   6.691  1.00  0.00     0.122 A 
ENDBRANCH  19  24
ENDBRANCH   2  18
TORSDOF 7
ENDMDL
