MODEL 1
REMARK VINA RESULT:      -8.0      0.000      0.000
REMARK  4 active torsions:
REMARK  status: ('A' for Active; 'I' for Inactive)
REMARK    1  A    between atoms: N_6  and  N_7 
REMARK       I    between atoms: N_7  and  C_8 
REMARK    2  A    between atoms: C_8  and  C_9 
REMARK    3  A    between atoms: C_10  and  O_11 
REMARK    4  A    between atoms: C_14  and  N_15 
ROOT
HETATM    1  N   UNL     1      42.672 -15.340   1.350  1.00  0.00    -0.242 N 
HETATM    2  C   UNL     1      41.424 -14.770   1.169  1.00  0.00     0.274 C 
HETATM    3  O   UNL     1      40.343 -15.344   1.276  1.00  0.00    -0.266 OA
HETATM    4  H   UNL     1      43.511 -14.784   1.268  1.00  0.00     0.192 HD
ENDROOT
BRANCH   1   5
HETATM    5  N   UNL     1      42.802 -16.681   1.525  1.00  0.00    -0.166 NA
HETATM    6  C   UNL     1      43.163 -17.128   2.686  1.00  0.00     0.157 A 
HETATM    7  C   UNL     1      43.534 -18.609   2.892  1.00  0.00     0.279 A 
HETATM    8  C   UNL     1      43.326 -16.485   3.999  1.00  0.00     0.029 A 
HETATM    9  N   UNL     1      43.949 -18.700   4.209  1.00  0.00    -0.316 N 
HETATM   10  O   UNL     1      43.483 -19.474   2.044  1.00  0.00    -0.265 OA
HETATM   11  C   UNL     1      44.382 -19.919   4.839  1.00  0.00     0.159 C 
HETATM   12  C   UNL     1      43.821 -17.469   4.863  1.00  0.00     0.050 A 
HETATM   13  C   UNL     1      44.090 -17.187   6.193  1.00  0.00     0.032 A 
HETATM   14  C   UNL     1      43.836 -15.892   6.655  1.00  0.00     0.026 A 
HETATM   15  C   UNL     1      43.303 -14.921   5.793  1.00  0.00     0.035 A 
HETATM   16  C   UNL     1      43.029 -15.210   4.454  1.00  0.00     0.040 A 
HETATM   17 CL   UNL     1      42.973 -13.344   6.398  1.00  0.00    -0.084 Cl
ENDBRANCH   1   5
BRANCH   2  18
HETATM   18  C   UNL     1      41.422 -13.302   0.935  1.00  0.00     0.068 A 
HETATM   19  C   UNL     1      40.967 -12.807  -0.293  1.00  0.00     0.081 A 
HETATM   20  C   UNL     1      40.836 -11.438  -0.490  1.00  0.00     0.039 A 
HETATM   21  C   UNL     1      41.197 -10.551   0.528  1.00  0.00     0.026 A 
HETATM   22  C   UNL     1      41.753 -11.022   1.721  1.00  0.00     0.006 A 
HETATM   23  C   UNL     1      41.824 -12.402   1.935  1.00  0.00     0.043 A 
BRANCH  19  24
HETATM   24  O   UNL     1      40.600 -13.615  -1.335  1.00  0.00    -0.360 OA
HETATM   25  H   UNL     1      41.247 -13.480  -2.065  1.00  0.00     0.217 HD
ENDBRANCH  19  24
BRANCH  22  26
HETATM   26  N   UNL     1      42.008 -10.137   2.776  1.00  0.00    -0.303 NA
HETATM   27  H   UNL     1      42.738 -10.456   3.408  1.00  0.00     0.124 HD
HETATM   28  H   UNL     1      41.180  -9.838   3.282  1.00  0.00     0.124 HD
ENDBRANCH  22  26
ENDBRANCH   2  18
TORSDOF 4
ENDMDL
MODEL 2
REMARK VINA RESULT:      -8.0      3.875      6.082
REMARK  4 active torsions:
REMARK  status: ('A' for Active; 'I' for Inactive)
REMARK    1  A    between atoms: N_6  and  N_7 
REMARK       I    between atoms: N_7  and  C_8 
REMARK    2  A    between atoms: C_8  and  C_9 
REMARK    3  A    between atoms: C_10  and  O_11 
REMARK    4  A    between atoms: C_14  and  N_15 
ROOT
HETATM    1  N   UNL     1      41.845 -12.114   5.363  1.00  0.00    -0.242 N 
HETATM    2  C   UNL     1      42.971 -11.342   5.135  1.00  0.00     0.274 C 
HETATM    3  O   UNL     1      43.206 -10.685   4.123  1.00  0.00    -0.266 OA
HETATM    4  H   UNL     1      41.722 -12.601   6.238  1.00  0.00     0.192 HD
ENDROOT
BRANCH   1   5
HETATM    5  N   UNL     1      40.939 -12.326   4.373  1.00  0.00    -0.166 NA
HETATM    6  C   UNL     1      41.045 -13.394   3.646  1.00  0.00     0.157 A 
HETATM    7  C   UNL     1      40.188 -13.587   2.381  1.00  0.00     0.279 A 
HETATM    8  C   UNL     1      41.887 -14.595   3.750  1.00  0.00     0.029 A 
HETATM    9  N   UNL     1      40.629 -14.773   1.821  1.00  0.00    -0.316 N 
HETATM   10  O   UNL     1      39.336 -12.823   1.982  1.00  0.00    -0.265 OA
HETATM   11  C   UNL     1      40.091 -15.350   0.618  1.00  0.00     0.159 C 
HETATM   12  C   UNL     1      41.611 -15.372   2.620  1.00  0.00     0.050 A 
HETATM   13  C   UNL     1      42.247 -16.585   2.408  1.00  0.00     0.032 A 
HETATM   14  C   UNL     1      43.164 -17.022   3.369  1.00  0.00     0.026 A 
HETATM   15  C   UNL     1      43.407 -16.257   4.521  1.00  0.00     0.035 A 
HETATM   16  C   UNL     1      42.760 -15.037   4.732  1.00  0.00     0.040 A 
HETATM   17 CL   UNL     1      44.518 -16.836   5.701  1.00  0.00    -0.084 Cl
ENDBRANCH   1   5
BRANCH   2  18
HETATM   18  C   UNL     1      43.910 -11.230   6.281  1.00  0.00     0.068 A 
HETATM   19  C   UNL     1      45.281 -11.103   6.030  1.00  0.00     0.081 A 
HETATM   20  C   UNL     1      46.166 -10.871   7.077  1.00  0.00     0.039 A 
HETATM   21  C   UNL     1      45.688 -10.802   8.388  1.00  0.00     0.026 A 
HETATM   22  C   UNL     1      44.339 -11.031   8.669  1.00  0.00     0.006 A 
HETATM   23  C   UNL     1      43.447 -11.204   7.606  1.00  0.00     0.043 A 
BRANCH  19  24
HETATM   24  O   UNL     1      45.821 -11.164   4.773  1.00  0.00    -0.360 OA
HETATM   25  H   UNL     1      46.565 -10.520   4.732  1.00  0.00     0.217 HD
ENDBRANCH  19  24
BRANCH  22  26
HETATM   26  N   UNL     1      43.850 -10.852   9.969  1.00  0.00    -0.303 NA
HETATM   27  H   UNL     1      43.642 -11.723  10.450  1.00  0.00     0.124 HD
HETATM   28  H   UNL     1      43.080 -10.193  10.040  1.00  0.00     0.124 HD
ENDBRANCH  22  26
ENDBRANCH   2  18
TORSDOF 4
ENDMDL
MODEL 3
REMARK VINA RESULT:      -7.8      2.472      6.669
REMARK  4 active torsions:
REMARK  status: ('A' for Active; 'I' for Inactive)
REMARK    1  A    between atoms: N_6  and  N_7 
REMARK       I    between atoms: N_7  and  C_8 
REMARK    2  A    between atoms: C_8  and  C_9 
REMARK    3  A    between atoms: C_10  and  O_11 
REMARK    4  A    between atoms: C_14  and  N_15 
ROOT
HETATM    1  N   UNL     1      41.519 -16.086   1.651  1.00  0.00    -0.242 N 
HETATM    2  C   UNL     1      42.874 -16.121   1.926  1.00  0.00     0.274 C 
HETATM    3  O   UNL     1      43.676 -15.210   1.735  1.00  0.00    -0.266 OA
HETATM    4  H   UNL     1      40.928 -16.876   1.866  1.00  0.00     0.192 HD
ENDROOT
BRANCH   1   5
HETATM    5  N   UNL     1      40.975 -15.038   0.979  1.00  0.00    -0.166 NA
HETATM    6  C   UNL     1      40.388 -14.100   1.652  1.00  0.00     0.157 A 
HETATM    7  C   UNL     1      39.570 -13.002   0.946  1.00  0.00     0.279 A 
HETATM    8  C   UNL     1      40.301 -13.805   3.091  1.00  0.00     0.029 A 
HETATM    9  N   UNL     1      39.024 -12.243   1.966  1.00  0.00    -0.316 N 
HETATM   10  O   UNL     1      39.439 -12.880  -0.253  1.00  0.00    -0.265 OA
HETATM   11  C   UNL     1      38.186 -11.092   1.760  1.00  0.00     0.159 C 
HETATM   12  C   UNL     1      39.454 -12.699   3.218  1.00  0.00     0.050 A 
HETATM   13  C   UNL     1      39.156 -12.162   4.460  1.00  0.00     0.032 A 
HETATM   14  C   UNL     1      39.743 -12.746   5.587  1.00  0.00     0.026 A 
HETATM   15  C   UNL     1      40.623 -13.831   5.449  1.00  0.00     0.035 A 
HETATM   16  C   UNL     1      40.923 -14.367   4.194  1.00  0.00     0.040 A 
HETATM   17 CL   UNL     1      41.353 -14.511   6.851  1.00  0.00    -0.084 Cl
ENDBRANCH   1   5
BRANCH   2  18
HETATM   18  C   UNL     1      43.352 -17.346   2.619  1.00  0.00     0.068 A 
HETATM   19  C   UNL     1      43.712 -17.268   3.970  1.00  0.00     0.081 A 
HETATM   20  C   UNL     1      44.042 -18.420   4.674  1.00  0.00     0.039 A 
HETATM   21  C   UNL     1      44.050 -19.655   4.020  1.00  0.00     0.026 A 
HETATM   22  C   UNL     1      43.797 -19.739   2.648  1.00  0.00     0.006 A 
HETATM   23  C   UNL     1      43.408 -18.585   1.962  1.00  0.00     0.043 A 
BRANCH  19  24
HETATM   24  O   UNL     1      43.731 -16.094   4.673  1.00  0.00    -0.360 OA
HETATM   25  H   UNL     1      44.113 -16.279   5.562  1.00  0.00     0.217 HD
ENDBRANCH  19  24
BRANCH  22  26
HETATM   26  N   UNL     1      43.699 -20.989   2.025  1.00  0.00    -0.303 NA
HETATM   27  H   UNL     1      44.453 -21.178   1.369  1.00  0.00     0.124 HD
HETATM   28  H   UNL     1      42.790 -21.183   1.615  1.00  0.00     0.124 HD
ENDBRANCH  22  26
ENDBRANCH   2  18
TORSDOF 4
ENDMDL
MODEL 4
REMARK VINA RESULT:      -7.8      2.953      7.240
REMARK  4 active torsions:
REMARK  status: ('A' for Active; 'I' for Inactive)
REMARK    1  A    between atoms: N_6  and  N_7 
REMARK       I    between atoms: N_7  and  C_8 
REMARK    2  A    between atoms: C_8  and  C_9 
REMARK    3  A    between atoms: C_10  and  O_11 
REMARK    4  A    between atoms: C_14  and  N_15 
ROOT
HETATM    1  N   UNL     1      42.810 -15.883   5.113  1.00  0.00    -0.242 N 
HETATM    2  C   UNL     1      43.927 -16.694   5.204  1.00  0.00     0.274 C 
HETATM    3  O   UNL     1      44.939 -16.463   5.862  1.00  0.00    -0.266 OA
HETATM    4  H   UNL     1      42.009 -16.166   4.568  1.00  0.00     0.192 HD
ENDROOT
BRANCH   1   5
HETATM    5  N   UNL     1      42.813 -14.638   5.658  1.00  0.00    -0.166 NA
HETATM    6  C   UNL     1      42.384 -13.643   4.947  1.00  0.00     0.157 A 
HETATM    7  C   UNL     1      42.559 -12.188   5.421  1.00  0.00     0.279 A 
HETATM    8  C   UNL     1      41.700 -13.564   3.647  1.00  0.00     0.029 A 
HETATM    9  N   UNL     1      42.074 -11.408   4.387  1.00  0.00    -0.316 N 
HETATM   10  O   UNL     1      43.045 -11.843   6.477  1.00  0.00    -0.265 OA
HETATM   11  C   UNL     1      42.035  -9.970   4.407  1.00  0.00     0.159 C 
HETATM   12  C   UNL     1      41.563 -12.203   3.354  1.00  0.00     0.050 A 
HETATM   13  C   UNL     1      40.954 -11.778   2.184  1.00  0.00     0.032 A 
HETATM   14  C   UNL     1      40.461 -12.751   1.309  1.00  0.00     0.026 A 
HETATM   15  C   UNL     1      40.567 -14.114   1.627  1.00  0.00     0.035 A 
HETATM   16  C   UNL     1      41.178 -14.538   2.810  1.00  0.00     0.040 A 
HETATM   17 CL   UNL     1      39.925 -15.287   0.544  1.00  0.00    -0.084 Cl
ENDBRANCH   1   5
BRANCH   2  18
HETATM   18  C   UNL     1      43.816 -18.010   4.522  1.00  0.00     0.068 A 
HETATM   19  C   UNL     1      43.642 -18.047   3.134  1.00  0.00     0.081 A 
HETATM   20  C   UNL     1      43.661 -19.261   2.458  1.00  0.00     0.039 A 
HETATM   21  C   UNL     1      43.817 -20.451   3.172  1.00  0.00     0.026 A 
HETATM   22  C   UNL     1      43.886 -20.443   4.568  1.00  0.00     0.006 A 
HETATM   23  C   UNL     1      43.927 -19.215   5.235  1.00  0.00     0.043 A 
BRANCH  19  24
HETATM   24  O   UNL     1      43.479 -16.922   2.371  1.00  0.00    -0.360 OA
HETATM   25  H   UNL     1      42.937 -16.282   2.886  1.00  0.00     0.217 HD
ENDBRANCH  19  24
BRANCH  22  26
HETATM   26  N   UNL     1      44.152 -21.627   5.267  1.00  0.00    -0.303 NA
HETATM   27  H   UNL     1      43.617 -22.425   4.936  1.00  0.00     0.124 HD
HETATM   28  H   UNL     1      44.102 -21.537   6.277  1.00  0.00     0.124 HD
ENDBRANCH  22  26
ENDBRANCH   2  18
TORSDOF 4
ENDMDL
MODEL 5
REMARK VINA RESULT:      -7.6      1.960      6.570
REMARK  4 active torsions:
REMARK  status: ('A' for Active; 'I' for Inactive)
REMARK    1  A    between atoms: N_6  and  N_7 
REMARK       I    between atoms: N_7  and  C_8 
REMARK    2  A    between atoms: C_8  and  C_9 
REMARK    3  A    between atoms: C_10  and  O_11 
REMARK    4  A    between atoms: C_14  and  N_15 
ROOT
HETATM    1  N   UNL     1      40.987 -16.143   2.382  1.00  0.00    -0.242 N 
HETATM    2  C   UNL     1      42.278 -16.622   2.511  1.00  0.00     0.274 C 
HETATM    3  O   UNL     1      43.142 -16.622   1.637  1.00  0.00    -0.266 OA
HETATM    4  H   UNL     1      40.350 -16.158   3.165  1.00  0.00     0.192 HD
ENDROOT
BRANCH   1   5
HETATM    5  N   UNL     1      40.512 -15.750   1.171  1.00  0.00    -0.166 NA
HETATM    6  C   UNL     1      40.562 -14.494   0.856  1.00  0.00     0.157 A 
HETATM    7  C   UNL     1      39.851 -13.956  -0.400  1.00  0.00     0.279 A 
HETATM    8  C   UNL     1      41.201 -13.329   1.488  1.00  0.00     0.029 A 
HETATM    9  N   UNL     1      40.040 -12.586  -0.365  1.00  0.00    -0.316 N 
HETATM   10  O   UNL     1      39.245 -14.625  -1.209  1.00  0.00    -0.265 OA
HETATM   11  C   UNL     1      39.546 -11.675  -1.364  1.00  0.00     0.159 C 
HETATM   12  C   UNL     1      40.834 -12.215   0.726  1.00  0.00     0.050 A 
HETATM   13  C   UNL     1      41.273 -10.942   1.057  1.00  0.00     0.032 A 
HETATM   14  C   UNL     1      42.111 -10.805   2.168  1.00  0.00     0.026 A 
HETATM   15  C   UNL     1      42.508 -11.932   2.904  1.00  0.00     0.035 A 
HETATM   16  C   UNL     1      42.066 -13.213   2.565  1.00  0.00     0.040 A 
HETATM   17 CL   UNL     1      43.564 -11.735   4.248  1.00  0.00    -0.084 Cl
ENDBRANCH   1   5
BRANCH   2  18
HETATM   18  C   UNL     1      42.658 -17.068   3.877  1.00  0.00     0.068 A 
HETATM   19  C   UNL     1      43.634 -18.062   4.024  1.00  0.00     0.081 A 
HETATM   20  C   UNL     1      44.097 -18.407   5.288  1.00  0.00     0.039 A 
HETATM   21  C   UNL     1      43.560 -17.786   6.418  1.00  0.00     0.026 A 
HETATM   22  C   UNL     1      42.511 -16.869   6.299  1.00  0.00     0.006 A 
HETATM   23  C   UNL     1      42.093 -16.483   5.022  1.00  0.00     0.043 A 
BRANCH  19  24
HETATM   24  O   UNL     1      44.202 -18.715   2.963  1.00  0.00    -0.360 OA
HETATM   25  H   UNL     1      43.524 -19.318   2.580  1.00  0.00     0.217 HD
ENDBRANCH  19  24
BRANCH  22  26
HETATM   26  N   UNL     1      42.054 -16.172   7.424  1.00  0.00    -0.303 NA
HETATM   27  H   UNL     1      42.275 -16.629   8.305  1.00  0.00     0.124 HD
HETATM   28  H   UNL     1      41.077 -15.899   7.379  1.00  0.00     0.124 HD
ENDBRANCH  22  26
ENDBRANCH   2  18
TORSDOF 4
ENDMDL
MODEL 6
REMARK VINA RESULT:      -7.6      3.895      7.675
REMARK  4 active torsions:
REMARK  status: ('A' for Active; 'I' for Inactive)
REMARK    1  A    between atoms: N_6  and  N_7 
REMARK       I    between atoms: N_7  and  C_8 
REMARK    2  A    between atoms: C_8  and  C_9 
REMARK    3  A    between atoms: C_10  and  O_11 
REMARK    4  A    between atoms: C_14  and  N_15 
ROOT
HETATM    1  N   UNL     1      40.682 -14.876   5.959  1.00  0.00    -0.242 N 
HETATM    2  C   UNL     1      42.055 -14.942   6.115  1.00  0.00     0.274 C 
HETATM    3  O   UNL     1      42.748 -14.162   6.764  1.00  0.00    -0.266 OA
HETATM    4  H   UNL     1      40.188 -15.578   5.427  1.00  0.00     0.192 HD
ENDROOT
BRANCH   1   5
HETATM    5  N   UNL     1      39.983 -13.805   6.417  1.00  0.00    -0.166 NA
HETATM    6  C   UNL     1      39.630 -12.882   5.578  1.00  0.00     0.157 A 
HETATM    7  C   UNL     1      39.029 -11.549   6.063  1.00  0.00     0.279 A 
HETATM    8  C   UNL     1      39.677 -12.794   4.111  1.00  0.00     0.029 A 
HETATM    9  N   UNL     1      38.862 -10.789   4.919  1.00  0.00    -0.316 N 
HETATM   10  O   UNL     1      38.792 -11.259   7.215  1.00  0.00    -0.265 OA
HETATM   11  C   UNL     1      38.314  -9.459   4.903  1.00  0.00     0.159 C 
HETATM   12  C   UNL     1      39.228 -11.512   3.776  1.00  0.00     0.050 A 
HETATM   13  C   UNL     1      39.151 -11.099   2.456  1.00  0.00     0.032 A 
HETATM   14  C   UNL     1      39.519 -12.009   1.461  1.00  0.00     0.026 A 
HETATM   15  C   UNL     1      39.931 -13.308   1.801  1.00  0.00     0.035 A 
HETATM   16  C   UNL     1      40.003 -13.721   3.133  1.00  0.00     0.040 A 
HETATM   17 CL   UNL     1      40.349 -14.416   0.552  1.00  0.00    -0.084 Cl
ENDBRANCH   1   5
BRANCH   2  18
HETATM   18  C   UNL     1      42.707 -16.139   5.524  1.00  0.00     0.068 A 
HETATM   19  C   UNL     1      43.231 -17.120   6.374  1.00  0.00     0.081 A 
HETATM   20  C   UNL     1      43.732 -18.306   5.849  1.00  0.00     0.039 A 
HETATM   21  C   UNL     1      43.746 -18.502   4.466  1.00  0.00     0.026 A 
HETATM   22  C   UNL     1      43.326 -17.492   3.597  1.00  0.00     0.006 A 
HETATM   23  C   UNL     1      42.768 -16.328   4.134  1.00  0.00     0.043 A 
BRANCH  19  24
HETATM   24  O   UNL     1      43.253 -16.995   7.737  1.00  0.00    -0.360 OA
HETATM   25  H   UNL     1      42.775 -16.166   7.972  1.00  0.00     0.217 HD
ENDBRANCH  19  24
BRANCH  22  26
HETATM   26  N   UNL     1      43.241 -17.737   2.220  1.00  0.00    -0.303 NA
HETATM   27  H   UNL     1      43.287 -18.723   1.978  1.00  0.00     0.124 HD
HETATM   28  H   UNL     1      43.879 -17.184   1.656  1.00  0.00     0.124 HD
ENDBRANCH  22  26
ENDBRANCH   2  18
TORSDOF 4
ENDMDL
MODEL 7
REMARK VINA RESULT:      -7.5      1.733      2.024
REMARK  4 active torsions:
REMARK  status: ('A' for Active; 'I' for Inactive)
REMARK    1  A    between atoms: N_6  and  N_7 
REMARK       I    between atoms: N_7  and  C_8 
REMARK    2  A    between atoms: C_8  and  C_9 
REMARK    3  A    between atoms: C_10  and  O_11 
REMARK    4  A    between atoms: C_14  and  N_15 
ROOT
HETATM    1  N   UNL     1      42.089 -15.075   1.382  1.00  0.00    -0.242 N 
HETATM    2  C   UNL     1      40.761 -14.920   1.026  1.00  0.00     0.274 C 
HETATM    3  O   UNL     1      39.908 -15.804   1.007  1.00  0.00    -0.266 OA
HETATM    4  H   UNL     1      42.716 -14.284   1.395  1.00  0.00     0.192 HD
ENDROOT
BRANCH   1   5
HETATM    5  N   UNL     1      42.606 -16.311   1.608  1.00  0.00    -0.166 NA
HETATM    6  C   UNL     1      42.715 -16.730   2.829  1.00  0.00     0.157 A 
HETATM    7  C   UNL     1      43.484 -18.022   3.165  1.00  0.00     0.279 A 
HETATM    8  C   UNL     1      42.230 -16.203   4.115  1.00  0.00     0.029 A 
HETATM    9  N   UNL     1      43.470 -18.104   4.546  1.00  0.00    -0.316 N 
HETATM   10  O   UNL     1      43.997 -18.767   2.359  1.00  0.00    -0.265 OA
HETATM   11  C   UNL     1      44.072 -19.171   5.300  1.00  0.00     0.159 C 
HETATM   12  C   UNL     1      42.733 -17.053   5.106  1.00  0.00     0.050 A 
HETATM   13  C   UNL     1      42.460 -16.833   6.447  1.00  0.00     0.032 A 
HETATM   14  C   UNL     1      41.649 -15.745   6.782  1.00  0.00     0.026 A 
HETATM   15  C   UNL     1      41.116 -14.919   5.780  1.00  0.00     0.035 A 
HETATM   16  C   UNL     1      41.390 -15.146   4.429  1.00  0.00     0.040 A 
HETATM   17 CL   UNL     1      40.097 -13.604   6.222  1.00  0.00    -0.084 Cl
ENDBRANCH   1   5
BRANCH   2  18
HETATM   18  C   UNL     1      40.333 -13.523   0.755  1.00  0.00     0.068 A 
HETATM   19  C   UNL     1      39.395 -12.920   1.602  1.00  0.00     0.081 A 
HETATM   20  C   UNL     1      39.072 -11.577   1.447  1.00  0.00     0.039 A 
HETATM   21  C   UNL     1      39.659 -10.837   0.418  1.00  0.00     0.026 A 
HETATM   22  C   UNL     1      40.516 -11.447  -0.503  1.00  0.00     0.006 A 
HETATM   23  C   UNL     1      40.882 -12.781  -0.303  1.00  0.00     0.043 A 
BRANCH  19  24
HETATM   24  O   UNL     1      38.778 -13.585   2.628  1.00  0.00    -0.360 OA
HETATM   25  H   UNL     1      39.104 -13.203   3.475  1.00  0.00     0.217 HD
ENDBRANCH  19  24
BRANCH  22  26
HETATM   26  N   UNL     1      41.183 -10.675  -1.462  1.00  0.00    -0.303 NA
HETATM   27  H   UNL     1      40.690 -10.611  -2.349  1.00  0.00     0.124 HD
HETATM   28  H   UNL     1      42.159 -10.924  -1.595  1.00  0.00     0.124 HD
ENDBRANCH  22  26
ENDBRANCH   2  18
TORSDOF 4
ENDMDL
MODEL 8
REMARK VINA RESULT:      -7.5      3.908      4.863
REMARK  4 active torsions:
REMARK  status: ('A' for Active; 'I' for Inactive)
REMARK    1  A    between atoms: N_6  and  N_7 
REMARK       I    between atoms: N_7  and  C_8 
REMARK    2  A    between atoms: C_8  and  C_9 
REMARK    3  A    between atoms: C_10  and  O_11 
REMARK    4  A    between atoms: C_14  and  N_15 
ROOT
HETATM    1  N   UNL     1      41.747 -13.172   6.123  1.00  0.00    -0.242 N 
HETATM    2  C   UNL     1      40.368 -13.285   6.137  1.00  0.00     0.274 C 
HETATM    3  O   UNL     1      39.723 -14.219   6.607  1.00  0.00    -0.266 OA
HETATM    4  H   UNL     1      42.194 -12.353   5.738  1.00  0.00     0.192 HD
ENDROOT
BRANCH   1   5
HETATM    5  N   UNL     1      42.531 -14.208   6.520  1.00  0.00    -0.166 NA
HETATM    6  C   UNL     1      42.869 -15.107   5.649  1.00  0.00     0.157 A 
HETATM    7  C   UNL     1      43.571 -16.410   6.077  1.00  0.00     0.279 A 
HETATM    8  C   UNL     1      42.720 -15.189   4.188  1.00  0.00     0.029 A 
HETATM    9  N   UNL     1      43.693 -17.154   4.917  1.00  0.00    -0.316 N 
HETATM   10  O   UNL     1      43.906 -16.693   7.207  1.00  0.00    -0.265 OA
HETATM   11  C   UNL     1      44.306 -18.454   4.850  1.00  0.00     0.159 C 
HETATM   12  C   UNL     1      43.209 -16.445   3.811  1.00  0.00     0.050 A 
HETATM   13  C   UNL     1      43.210 -16.846   2.484  1.00  0.00     0.032 A 
HETATM   14  C   UNL     1      42.725 -15.950   1.527  1.00  0.00     0.026 A 
HETATM   15  C   UNL     1      42.273 -14.677   1.907  1.00  0.00     0.035 A 
HETATM   16  C   UNL     1      42.277 -14.276   3.245  1.00  0.00     0.040 A 
HETATM   17 CL   UNL     1      41.709 -13.586   0.702  1.00  0.00    -0.084 Cl
ENDBRANCH   1   5
BRANCH   2  18
HETATM   18  C   UNL     1      39.627 -12.102   5.629  1.00  0.00     0.068 A 
HETATM   19  C   UNL     1      39.054 -11.211   6.545  1.00  0.00     0.081 A 
HETATM   20  C   UNL     1      38.465 -10.033   6.101  1.00  0.00     0.039 A 
HETATM   21  C   UNL     1      38.412  -9.756   4.733  1.00  0.00     0.026 A 
HETATM   22  C   UNL     1      38.883 -10.681   3.797  1.00  0.00     0.006 A 
HETATM   23  C   UNL     1      39.527 -11.835   4.254  1.00  0.00     0.043 A 
BRANCH  19  24
HETATM   24  O   UNL     1      39.065 -11.420   7.898  1.00  0.00    -0.360 OA
HETATM   25  H   UNL     1      39.375 -12.340   8.060  1.00  0.00     0.217 HD
ENDBRANCH  19  24
BRANCH  22  26
HETATM   26  N   UNL     1      38.926 -10.349   2.437  1.00  0.00    -0.303 NA
HETATM   27  H   UNL     1      38.893 -11.155   1.819  1.00  0.00     0.124 HD
HETATM   28  H   UNL     1      39.678  -9.715   2.185  1.00  0.00     0.124 HD
ENDBRANCH  22  26
ENDBRANCH   2  18
TORSDOF 4
ENDMDL
MODEL 9
REMARK VINA RESULT:      -7.3      3.195      7.282
REMARK  4 active torsions:
REMARK  status: ('A' for Active; 'I' for Inactive)
REMARK    1  A    between atoms: N_6  and  N_7 
REMARK       I    between atoms: N_7  and  C_8 
REMARK    2  A    between atoms: C_8  and  C_9 
REMARK    3  A    between atoms: C_10  and  O_11 
REMARK    4  A    between atoms: C_14  and  N_15 
ROOT
HETATM    1  N   UNL     1      40.986 -14.484   0.170  1.00  0.00    -0.242 N 
HETATM    2  C   UNL     1      40.438 -15.528   0.893  1.00  0.00     0.274 C 
HETATM    3  O   UNL     1      39.549 -16.285   0.511  1.00  0.00    -0.266 OA
HETATM    4  H   UNL     1      41.736 -13.928   0.554  1.00  0.00     0.192 HD
ENDROOT
BRANCH   1   5
HETATM    5  N   UNL     1      40.450 -14.110  -1.021  1.00  0.00    -0.166 NA
HETATM    6  C   UNL     1      39.502 -13.225  -1.030  1.00  0.00     0.157 A 
HETATM    7  C   UNL     1      38.709 -12.918  -2.315  1.00  0.00     0.279 A 
HETATM    8  C   UNL     1      38.937 -12.354   0.011  1.00  0.00     0.029 A 
HETATM    9  N   UNL     1      37.738 -12.010  -1.933  1.00  0.00    -0.316 N 
HETATM   10  O   UNL     1      38.912 -13.409  -3.404  1.00  0.00    -0.265 OA
HETATM   11  C   UNL     1      36.769 -11.436  -2.829  1.00  0.00     0.159 C 
HETATM   12  C   UNL     1      37.871 -11.668  -0.581  1.00  0.00     0.050 A 
HETATM   13  C   UNL     1      37.114 -10.757   0.138  1.00  0.00     0.032 A 
HETATM   14  C   UNL     1      37.457 -10.527   1.473  1.00  0.00     0.026 A 
HETATM   15  C   UNL     1      38.553 -11.189   2.051  1.00  0.00     0.035 A 
HETATM   16  C   UNL     1      39.315 -12.104   1.321  1.00  0.00     0.040 A 
HETATM   17 CL   UNL     1      38.969 -10.863   3.688  1.00  0.00    -0.084 Cl
ENDBRANCH   1   5
BRANCH   2  18
HETATM   18  C   UNL     1      41.084 -15.804   2.203  1.00  0.00     0.068 A 
HETATM   19  C   UNL     1      42.478 -15.908   2.268  1.00  0.00     0.081 A 
HETATM   20  C   UNL     1      43.114 -16.040   3.497  1.00  0.00     0.039 A 
HETATM   21  C   UNL     1      42.355 -16.107   4.668  1.00  0.00     0.026 A 
HETATM   22  C   UNL     1      40.959 -16.112   4.615  1.00  0.00     0.006 A 
HETATM   23  C   UNL     1      40.329 -15.918   3.381  1.00  0.00     0.043 A 
BRANCH  19  24
HETATM   24  O   UNL     1      43.285 -15.854   1.163  1.00  0.00    -0.360 OA
HETATM   25  H   UNL     1      42.757 -16.158   0.388  1.00  0.00     0.217 HD
ENDBRANCH  19  24
BRANCH  22  26
HETATM   26  N   UNL     1      40.209 -16.068   5.797  1.00  0.00    -0.303 NA
HETATM   27  H   UNL     1      39.406 -16.693   5.793  1.00  0.00     0.124 HD
HETATM   28  H   UNL     1      39.952 -15.132   6.096  1.00  0.00     0.124 HD
ENDBRANCH  22  26
ENDBRANCH   2  18
TORSDOF 4
ENDMDL
MODEL 10
REMARK VINA RESULT:      -7.3      4.076      5.210
REMARK  4 active torsions:
REMARK  status: ('A' for Active; 'I' for Inactive)
REMARK    1  A    between atoms: N_6  and  N_7 
REMARK       I    between atoms: N_7  and  C_8 
REMARK    2  A    between atoms: C_8  and  C_9 
REMARK    3  A    between atoms: C_10  and  O_11 
REMARK    4  A    between atoms: C_14  and  N_15 
ROOT
HETATM    1  N   UNL     1      42.708 -13.461   6.765  1.00  0.00    -0.242 N 
HETATM    2  C   UNL     1      43.486 -12.317   6.708  1.00  0.00     0.274 C 
HETATM    3  O   UNL     1      44.706 -12.264   6.842  1.00  0.00    -0.266 OA
HETATM    4  H   UNL     1      41.711 -13.415   6.615  1.00  0.00     0.192 HD
ENDROOT
BRANCH   1   5
HETATM    5  N   UNL     1      43.251 -14.649   7.138  1.00  0.00    -0.166 NA
HETATM    6  C   UNL     1      43.325 -15.605   6.265  1.00  0.00     0.157 A 
HETATM    7  C   UNL     1      43.727 -17.033   6.678  1.00  0.00     0.279 A 
HETATM    8  C   UNL     1      43.082 -15.656   4.815  1.00  0.00     0.029 A 
HETATM    9  N   UNL     1      43.611 -17.790   5.525  1.00  0.00    -0.316 N 
HETATM   10  O   UNL     1      44.048 -17.382   7.793  1.00  0.00    -0.265 OA
HETATM   11  C   UNL     1      43.901 -19.197   5.448  1.00  0.00     0.159 C 
HETATM   12  C   UNL     1      43.245 -16.992   4.434  1.00  0.00     0.050 A 
HETATM   13  C   UNL     1      43.083 -17.388   3.116  1.00  0.00     0.032 A 
HETATM   14  C   UNL     1      42.767 -16.408   2.170  1.00  0.00     0.026 A 
HETATM   15  C   UNL     1      42.644 -15.063   2.553  1.00  0.00     0.035 A 
HETATM   16  C   UNL     1      42.812 -14.668   3.882  1.00  0.00     0.040 A 
HETATM   17 CL   UNL     1      42.284 -13.875   1.361  1.00  0.00    -0.084 Cl
ENDBRANCH   1   5
BRANCH   2  18
HETATM   18  C   UNL     1      42.763 -11.073   6.338  1.00  0.00     0.068 A 
HETATM   19  C   UNL     1      42.502 -10.116   7.325  1.00  0.00     0.081 A 
HETATM   20  C   UNL     1      41.941  -8.891   6.983  1.00  0.00     0.039 A 
HETATM   21  C   UNL     1      41.601  -8.630   5.653  1.00  0.00     0.026 A 
HETATM   22  C   UNL     1      41.756  -9.612   4.670  1.00  0.00     0.006 A 
HETATM   23  C   UNL     1      42.377 -10.818   5.012  1.00  0.00     0.043 A 
BRANCH  19  24
HETATM   24  O   UNL     1      42.803 -10.304   8.647  1.00  0.00    -0.360 OA
HETATM   25  H   UNL     1      43.783 -10.279   8.741  1.00  0.00     0.217 HD
ENDBRANCH  19  24
BRANCH  22  26
HETATM   26  N   UNL     1      41.517  -9.306   3.324  1.00  0.00    -0.303 NA
HETATM   27  H   UNL     1      40.677  -8.754   3.175  1.00  0.00     0.124 HD
HETATM   28  H   UNL     1      41.555 -10.106   2.700  1.00  0.00     0.124 HD
ENDBRANCH  22  26
ENDBRANCH   2  18
TORSDOF 4
ENDMDL
