MODEL 1
REMARK VINA RESULT:      -8.5      0.000      0.000
REMARK  5 active torsions:
REMARK  status: ('A' for Active; 'I' for Inactive)
REMARK    1  A    between atoms: C_7  and  C_8 
REMARK    2  A    between atoms: C_11  and  N_12 
REMARK       I    between atoms: N_12  and  C_13 
REMARK    3  A    between atoms: C_13  and  C_14 
REMARK    4  A    between atoms: C_16  and  O_17 
REMARK    5  A    between atoms: C_20  and  O_21 
ROOT
HETATM    1  C   UNL     1      42.683  -8.807  12.415  1.00  0.00     0.017 A 
HETATM    2  C   UNL     1      43.260  -7.813  13.215  1.00  0.00     0.018 A 
HETATM    3  C   UNL     1      42.761  -7.537  14.495  1.00  0.00     0.030 A 
HETATM    4  C   UNL     1      41.677  -8.254  15.003  1.00  0.00     0.035 A 
HETATM    5  C   UNL     1      41.066  -9.214  14.190  1.00  0.00     0.030 A 
HETATM    6  C   UNL     1      41.562  -9.487  12.910  1.00  0.00     0.018 A 
ENDROOT
BRANCH   4   7
HETATM    7  N   UNL     1      41.178  -8.111  16.315  1.00  0.00    -0.323 N 
HETATM    8  C   UNL     1      40.543  -7.004  16.849  1.00  0.00     0.256 C 
HETATM    9  O   UNL     1      40.209  -5.984  16.260  1.00  0.00    -0.267 OA
HETATM   10  H   UNL     1      41.438  -8.847  16.958  1.00  0.00     0.169 HD
BRANCH   8  11
HETATM   11  C   UNL     1      40.321  -7.075  18.318  1.00  0.00     0.037 A 
HETATM   12  C   UNL     1      40.533  -5.913  19.067  1.00  0.00     0.054 A 
HETATM   13  C   UNL     1      40.402  -5.936  20.454  1.00  0.00     0.071 A 
HETATM   14  C   UNL     1      40.032  -7.127  21.082  1.00  0.00     0.073 A 
HETATM   15  C   UNL     1      39.793  -8.289  20.336  1.00  0.00     0.071 A 
HETATM   16  C   UNL     1      39.935  -8.264  18.948  1.00  0.00     0.054 A 
BRANCH  13  17
HETATM   17  O   UNL     1      40.664  -4.746  21.073  1.00  0.00    -0.356 OA
HETATM   18  C   UNL     1      40.725  -4.758  22.493  1.00  0.00     0.210 C 
ENDBRANCH  13  17
BRANCH  15  19
HETATM   19  O   UNL     1      39.433  -9.376  21.085  1.00  0.00    -0.356 OA
HETATM   20  C   UNL     1      40.479 -10.133  21.683  1.00  0.00     0.210 C 
ENDBRANCH  15  19
ENDBRANCH   8  11
ENDBRANCH   4   7
BRANCH   1  21
HETATM   21  C   UNL     1      43.240  -9.183  11.117  1.00  0.00     0.180 A 
HETATM   22  O   UNL     1      44.538  -8.807  10.871  1.00  0.00    -0.289 OA
HETATM   23  C   UNL     1      44.820  -9.370   9.661  1.00  0.00     0.106 A 
HETATM   24  C   UNL     1      43.688 -10.038   9.231  1.00  0.00     0.094 A 
HETATM   25  C   UNL     1      46.021  -9.317   8.968  1.00  0.00     0.040 A 
HETATM   26  C   UNL     1      43.727 -10.723   8.009  1.00  0.00     0.041 A 
HETATM   27  N   UNL     1      42.685  -9.904  10.157  1.00  0.00    -0.221 NA
HETATM   28  C   UNL     1      44.925 -10.709   7.267  1.00  0.00    -0.060 A 
HETATM   29  C   UNL     1      45.019 -11.451   5.965  1.00  0.00     0.048 C 
HETATM   30  C   UNL     1      46.049 -10.011   7.751  1.00  0.00     0.009 A 
ENDBRANCH   1  21
TORSDOF 5
ENDMDL
MODEL 2
REMARK VINA RESULT:      -8.5      4.215      8.431
REMARK  5 active torsions:
REMARK  status: ('A' for Active; 'I' for Inactive)
REMARK    1  A    between atoms: C_7  and  C_8 
REMARK    2  A    between atoms: C_11  and  N_12 
REMARK       I    between atoms: N_12  and  C_13 
REMARK    3  A    between atoms: C_13  and  C_14 
REMARK    4  A    between atoms: C_16  and  O_17 
REMARK    5  A    between atoms: C_20  and  O_21 
ROOT
HETATM    1  C   UNL     1      43.300 -12.591   6.061  1.00  0.00     0.017 A 
HETATM    2  C   UNL     1      44.456 -12.357   6.815  1.00  0.00     0.018 A 
HETATM    3  C   UNL     1      44.517 -11.299   7.733  1.00  0.00     0.030 A 
HETATM    4  C   UNL     1      43.420 -10.458   7.920  1.00  0.00     0.035 A 
HETATM    5  C   UNL     1      42.280 -10.658   7.134  1.00  0.00     0.030 A 
HETATM    6  C   UNL     1      42.221 -11.711   6.215  1.00  0.00     0.018 A 
ENDROOT
BRANCH   4   7
HETATM    7  N   UNL     1      43.361  -9.437   8.891  1.00  0.00    -0.323 N 
HETATM    8  C   UNL     1      43.360  -9.593  10.265  1.00  0.00     0.256 C 
HETATM    9  O   UNL     1      43.508 -10.633  10.895  1.00  0.00    -0.267 OA
HETATM   10  H   UNL     1      43.164  -8.512   8.533  1.00  0.00     0.169 HD
BRANCH   8  11
HETATM   11  C   UNL     1      43.078  -8.345  11.023  1.00  0.00     0.037 A 
HETATM   12  C   UNL     1      43.074  -8.415  12.420  1.00  0.00     0.054 A 
HETATM   13  C   UNL     1      42.753  -7.293  13.181  1.00  0.00     0.071 A 
HETATM   14  C   UNL     1      42.461  -6.093  12.531  1.00  0.00     0.073 A 
HETATM   15  C   UNL     1      42.489  -6.006  11.132  1.00  0.00     0.071 A 
HETATM   16  C   UNL     1      42.800  -7.136  10.374  1.00  0.00     0.054 A 
BRANCH  13  17
HETATM   17  O   UNL     1      42.755  -7.499  14.532  1.00  0.00    -0.356 OA
HETATM   18  C   UNL     1      41.710  -8.305  15.062  1.00  0.00     0.210 C 
ENDBRANCH  13  17
BRANCH  15  19
HETATM   19  O   UNL     1      42.188  -4.767  10.637  1.00  0.00    -0.356 OA
HETATM   20  C   UNL     1      42.656  -3.640  11.368  1.00  0.00     0.210 C 
ENDBRANCH  15  19
ENDBRANCH   8  11
ENDBRANCH   4   7
BRANCH   1  21
HETATM   21  C   UNL     1      43.172 -13.741   5.169  1.00  0.00     0.180 A 
HETATM   22  O   UNL     1      43.182 -13.479   3.821  1.00  0.00    -0.289 OA
HETATM   23  C   UNL     1      43.156 -14.714   3.244  1.00  0.00     0.106 A 
HETATM   24  C   UNL     1      43.116 -15.654   4.259  1.00  0.00     0.094 A 
HETATM   25  C   UNL     1      43.182 -15.011   1.889  1.00  0.00     0.040 A 
HETATM   26  C   UNL     1      43.103 -17.015   3.924  1.00  0.00     0.041 A 
HETATM   27  N   UNL     1      43.116 -15.026   5.478  1.00  0.00    -0.221 NA
HETATM   28  C   UNL     1      43.136 -17.373   2.562  1.00  0.00    -0.060 A 
HETATM   29  C   UNL     1      43.149 -18.820   2.158  1.00  0.00     0.048 C 
HETATM   30  C   UNL     1      43.174 -16.376   1.568  1.00  0.00     0.009 A 
ENDBRANCH   1  21
TORSDOF 5
ENDMDL
MODEL 3
REMARK VINA RESULT:      -8.3      4.416      8.632
REMARK  5 active torsions:
REMARK  status: ('A' for Active; 'I' for Inactive)
REMARK    1  A    between atoms: C_7  and  C_8 
REMARK    2  A    between atoms: C_11  and  N_12 
REMARK       I    between atoms: N_12  and  C_13 
REMARK    3  A    between atoms: C_13  and  C_14 
REMARK    4  A    between atoms: C_16  and  O_17 
REMARK    5  A    between atoms: C_20  and  O_21 
ROOT
HETATM    1  C   UNL     1      43.268 -12.949   5.900  1.00  0.00     0.017 A 
HETATM    2  C   UNL     1      44.416 -12.683   6.655  1.00  0.00     0.018 A 
HETATM    3  C   UNL     1      44.459 -11.606   7.551  1.00  0.00     0.030 A 
HETATM    4  C   UNL     1      43.350 -10.776   7.714  1.00  0.00     0.035 A 
HETATM    5  C   UNL     1      42.217 -11.006   6.927  1.00  0.00     0.030 A 
HETATM    6  C   UNL     1      42.176 -12.080   6.030  1.00  0.00     0.018 A 
ENDROOT
BRANCH   4   7
HETATM    7  N   UNL     1      43.273  -9.735   8.663  1.00  0.00    -0.323 N 
HETATM    8  C   UNL     1      43.478  -9.834  10.027  1.00  0.00     0.256 C 
HETATM    9  O   UNL     1      43.858 -10.816  10.651  1.00  0.00    -0.267 OA
HETATM   10  H   UNL     1      42.897  -8.863   8.317  1.00  0.00     0.169 HD
BRANCH   8  11
HETATM   11  C   UNL     1      43.120  -8.609  10.791  1.00  0.00     0.037 A 
HETATM   12  C   UNL     1      42.910  -7.429  10.072  1.00  0.00     0.054 A 
HETATM   13  C   UNL     1      42.635  -6.237  10.739  1.00  0.00     0.071 A 
HETATM   14  C   UNL     1      42.547  -6.243  12.132  1.00  0.00     0.073 A 
HETATM   15  C   UNL     1      42.730  -7.427  12.859  1.00  0.00     0.071 A 
HETATM   16  C   UNL     1      43.015  -8.617  12.188  1.00  0.00     0.054 A 
BRANCH  13  17
HETATM   17  O   UNL     1      42.480  -5.149   9.926  1.00  0.00    -0.356 OA
HETATM   18  C   UNL     1      42.441  -3.874  10.555  1.00  0.00     0.210 C 
ENDBRANCH  13  17
BRANCH  15  19
HETATM   19  O   UNL     1      42.608  -7.282  14.215  1.00  0.00    -0.356 OA
HETATM   20  C   UNL     1      41.840  -8.256  14.910  1.00  0.00     0.210 C 
ENDBRANCH  15  19
ENDBRANCH   8  11
ENDBRANCH   4   7
BRANCH   1  21
HETATM   21  C   UNL     1      43.159 -14.119   5.032  1.00  0.00     0.180 A 
HETATM   22  O   UNL     1      43.091 -13.880   3.681  1.00  0.00    -0.289 OA
HETATM   23  C   UNL     1      43.103 -15.124   3.125  1.00  0.00     0.106 A 
HETATM   24  C   UNL     1      43.162 -16.047   4.154  1.00  0.00     0.094 A 
HETATM   25  C   UNL     1      43.081 -15.443   1.775  1.00  0.00     0.040 A 
HETATM   26  C   UNL     1      43.206 -17.413   3.839  1.00  0.00     0.041 A 
HETATM   27  N   UNL     1      43.186 -15.399   5.362  1.00  0.00    -0.221 NA
HETATM   28  C   UNL     1      43.193 -17.792   2.483  1.00  0.00    -0.060 A 
HETATM   29  C   UNL     1      43.265 -19.242   2.100  1.00  0.00     0.048 C 
HETATM   30  C   UNL     1      43.131 -16.811   1.473  1.00  0.00     0.009 A 
ENDBRANCH   1  21
TORSDOF 5
ENDMDL
MODEL 4
REMARK VINA RESULT:      -8.0     25.115     27.112
REMARK  5 active torsions:
REMARK  status: ('A' for Active; 'I' for Inactive)
REMARK    1  A    between atoms: C_7  and  C_8 
REMARK    2  A    between atoms: C_11  and  N_12 
REMARK       I    between atoms: N_12  and  C_13 
REMARK    3  A    between atoms: C_13  and  C_14 
REMARK    4  A    between atoms: C_16  and  O_17 
REMARK    5  A    between atoms: C_20  and  O_21 
ROOT
HETATM    1  C   UNL     1      50.747 -31.237   4.807  1.00  0.00     0.017 A 
HETATM    2  C   UNL     1      51.225 -30.457   3.747  1.00  0.00     0.018 A 
HETATM    3  C   UNL     1      50.385 -30.081   2.691  1.00  0.00     0.030 A 
HETATM    4  C   UNL     1      49.046 -30.472   2.676  1.00  0.00     0.035 A 
HETATM    5  C   UNL     1      48.574 -31.291   3.707  1.00  0.00     0.030 A 
HETATM    6  C   UNL     1      49.415 -31.670   4.760  1.00  0.00     0.018 A 
ENDROOT
BRANCH   4   7
HETATM    7  N   UNL     1      48.109 -30.054   1.707  1.00  0.00    -0.323 N 
HETATM    8  C   UNL     1      47.496 -28.818   1.620  1.00  0.00     0.256 C 
HETATM    9  O   UNL     1      47.721 -27.827   2.302  1.00  0.00    -0.267 OA
HETATM   10  H   UNL     1      47.759 -30.786   1.103  1.00  0.00     0.169 HD
BRANCH   8  11
HETATM   11  C   UNL     1      46.400 -28.748   0.616  1.00  0.00     0.037 A 
HETATM   12  C   UNL     1      45.150 -29.258   0.978  1.00  0.00     0.054 A 
HETATM   13  C   UNL     1      44.103 -29.277   0.057  1.00  0.00     0.071 A 
HETATM   14  C   UNL     1      44.314 -28.757  -1.220  1.00  0.00     0.073 A 
HETATM   15  C   UNL     1      45.557 -28.219  -1.583  1.00  0.00     0.071 A 
HETATM   16  C   UNL     1      46.605 -28.212  -0.661  1.00  0.00     0.054 A 
BRANCH  13  17
HETATM   17  O   UNL     1      42.943 -29.828   0.523  1.00  0.00    -0.356 OA
HETATM   18  C   UNL     1      42.296 -29.156   1.596  1.00  0.00     0.210 C 
ENDBRANCH  13  17
BRANCH  15  19
HETATM   19  O   UNL     1      45.613 -27.742  -2.864  1.00  0.00    -0.356 OA
HETATM   20  C   UNL     1      45.010 -28.530  -3.883  1.00  0.00     0.210 C 
ENDBRANCH  15  19
ENDBRANCH   8  11
ENDBRANCH   4   7
BRANCH   1  21
HETATM   21  C   UNL     1      51.572 -31.564   5.967  1.00  0.00     0.180 A 
HETATM   22  O   UNL     1      52.638 -30.737   6.219  1.00  0.00    -0.289 OA
HETATM   23  C   UNL     1      53.151 -31.207   7.392  1.00  0.00     0.106 A 
HETATM   24  C   UNL     1      52.389 -32.293   7.782  1.00  0.00     0.094 A 
HETATM   25  C   UNL     1      54.229 -30.699   8.102  1.00  0.00     0.040 A 
HETATM   26  C   UNL     1      52.704 -32.949   8.980  1.00  0.00     0.041 A 
HETATM   27  N   UNL     1      51.394 -32.520   6.865  1.00  0.00    -0.221 NA
HETATM   28  C   UNL     1      53.786 -32.470   9.745  1.00  0.00    -0.060 A 
HETATM   29  C   UNL     1      54.142 -33.127  11.048  1.00  0.00     0.048 C 
HETATM   30  C   UNL     1      54.530 -31.360   9.301  1.00  0.00     0.009 A 
ENDBRANCH   1  21
TORSDOF 5
ENDMDL
MODEL 5
REMARK VINA RESULT:      -8.0      5.939      9.657
REMARK  5 active torsions:
REMARK  status: ('A' for Active; 'I' for Inactive)
REMARK    1  A    between atoms: C_7  and  C_8 
REMARK    2  A    between atoms: C_11  and  N_12 
REMARK       I    between atoms: N_12  and  C_13 
REMARK    3  A    between atoms: C_13  and  C_14 
REMARK    4  A    between atoms: C_16  and  O_17 
REMARK    5  A    between atoms: C_20  and  O_21 
ROOT
HETATM    1  C   UNL     1      43.123 -14.018   5.432  1.00  0.00     0.017 A 
HETATM    2  C   UNL     1      44.029 -13.546   6.389  1.00  0.00     0.018 A 
HETATM    3  C   UNL     1      43.778 -12.365   7.100  1.00  0.00     0.030 A 
HETATM    4  C   UNL     1      42.612 -11.634   6.872  1.00  0.00     0.035 A 
HETATM    5  C   UNL     1      41.726 -12.075   5.882  1.00  0.00     0.030 A 
HETATM    6  C   UNL     1      41.979 -13.252   5.170  1.00  0.00     0.018 A 
ENDROOT
BRANCH   4   7
HETATM    7  N   UNL     1      42.234 -10.494   7.611  1.00  0.00    -0.323 N 
HETATM    8  C   UNL     1      43.068  -9.511   8.112  1.00  0.00     0.256 C 
HETATM    9  O   UNL     1      44.273  -9.393   7.924  1.00  0.00    -0.267 OA
HETATM   10  H   UNL     1      41.270 -10.477   7.916  1.00  0.00     0.169 HD
BRANCH   8  11
HETATM   11  C   UNL     1      42.401  -8.549   9.028  1.00  0.00     0.037 A 
HETATM   12  C   UNL     1      42.980  -7.286   9.184  1.00  0.00     0.054 A 
HETATM   13  C   UNL     1      42.434  -6.366  10.078  1.00  0.00     0.071 A 
HETATM   14  C   UNL     1      41.289  -6.714  10.795  1.00  0.00     0.073 A 
HETATM   15  C   UNL     1      40.687  -7.968  10.626  1.00  0.00     0.071 A 
HETATM   16  C   UNL     1      41.243  -8.890   9.738  1.00  0.00     0.054 A 
BRANCH  13  17
HETATM   17  O   UNL     1      43.108  -5.180  10.160  1.00  0.00    -0.356 OA
HETATM   18  C   UNL     1      42.326  -4.003  10.319  1.00  0.00     0.210 C 
ENDBRANCH  13  17
BRANCH  15  19
HETATM   19  O   UNL     1      39.569  -8.166  11.391  1.00  0.00    -0.356 OA
HETATM   20  C   UNL     1      39.633  -9.172  12.394  1.00  0.00     0.210 C 
ENDBRANCH  15  19
ENDBRANCH   8  11
ENDBRANCH   4   7
BRANCH   1  21
HETATM   21  C   UNL     1      43.309 -15.294   4.745  1.00  0.00     0.180 A 
HETATM   22  O   UNL     1      43.907 -16.300   5.464  1.00  0.00    -0.289 OA
HETATM   23  C   UNL     1      43.856 -17.377   4.629  1.00  0.00     0.106 A 
HETATM   24  C   UNL     1      43.250 -16.973   3.453  1.00  0.00     0.094 A 
HETATM   25  C   UNL     1      44.303 -18.665   4.889  1.00  0.00     0.040 A 
HETATM   26  C   UNL     1      43.059 -17.913   2.431  1.00  0.00     0.041 A 
HETATM   27  N   UNL     1      42.916 -15.645   3.532  1.00  0.00    -0.221 NA
HETATM   28  C   UNL     1      43.488 -19.237   2.644  1.00  0.00    -0.060 A 
HETATM   29  C   UNL     1      43.279 -20.282   1.586  1.00  0.00     0.048 C 
HETATM   30  C   UNL     1      44.101 -19.596   3.861  1.00  0.00     0.009 A 
ENDBRANCH   1  21
TORSDOF 5
ENDMDL
MODEL 6
REMARK VINA RESULT:      -7.8     11.826     16.361
REMARK  5 active torsions:
REMARK  status: ('A' for Active; 'I' for Inactive)
REMARK    1  A    between atoms: C_7  and  C_8 
REMARK    2  A    between atoms: C_11  and  N_12 
REMARK       I    between atoms: N_12  and  C_13 
REMARK    3  A    between atoms: C_13  and  C_14 
REMARK    4  A    between atoms: C_16  and  O_17 
REMARK    5  A    between atoms: C_20  and  O_21 
ROOT
HETATM    1  C   UNL     1      39.846 -12.744  -0.455  1.00  0.00     0.017 A 
HETATM    2  C   UNL     1      39.630 -14.127  -0.425  1.00  0.00     0.018 A 
HETATM    3  C   UNL     1      40.269 -14.937   0.522  1.00  0.00     0.030 A 
HETATM    4  C   UNL     1      41.134 -14.379   1.465  1.00  0.00     0.035 A 
HETATM    5  C   UNL     1      41.391 -13.006   1.410  1.00  0.00     0.030 A 
HETATM    6  C   UNL     1      40.755 -12.197   0.461  1.00  0.00     0.018 A 
ENDROOT
BRANCH   4   7
HETATM    7  N   UNL     1      41.737 -15.105   2.513  1.00  0.00    -0.323 N 
HETATM    8  C   UNL     1      42.732 -16.059   2.402  1.00  0.00     0.256 C 
HETATM    9  O   UNL     1      43.343 -16.381   1.391  1.00  0.00    -0.267 OA
HETATM   10  H   UNL     1      41.293 -15.007   3.417  1.00  0.00     0.169 HD
BRANCH   8  11
HETATM   11  C   UNL     1      43.014 -16.800   3.660  1.00  0.00     0.037 A 
HETATM   12  C   UNL     1      43.676 -18.027   3.562  1.00  0.00     0.054 A 
HETATM   13  C   UNL     1      43.911 -18.795   4.701  1.00  0.00     0.071 A 
HETATM   14  C   UNL     1      43.499 -18.310   5.943  1.00  0.00     0.073 A 
HETATM   15  C   UNL     1      42.858 -17.069   6.054  1.00  0.00     0.071 A 
HETATM   16  C   UNL     1      42.616 -16.308   4.910  1.00  0.00     0.054 A 
BRANCH  13  17
HETATM   17  O   UNL     1      44.538 -19.986   4.467  1.00  0.00    -0.356 OA
HETATM   18  C   UNL     1      43.914 -20.874   3.549  1.00  0.00     0.210 C 
ENDBRANCH  13  17
BRANCH  15  19
HETATM   19  O   UNL     1      42.518 -16.722   7.334  1.00  0.00    -0.356 OA
HETATM   20  C   UNL     1      43.110 -15.546   7.872  1.00  0.00     0.210 C 
ENDBRANCH  15  19
ENDBRANCH   8  11
ENDBRANCH   4   7
BRANCH   1  21
HETATM   21  C   UNL     1      39.122 -11.861  -1.367  1.00  0.00     0.180 A 
HETATM   22  O   UNL     1      39.883 -11.055  -2.178  1.00  0.00    -0.289 OA
HETATM   23  C   UNL     1      38.968 -10.435  -2.977  1.00  0.00     0.106 A 
HETATM   24  C   UNL     1      37.712 -10.878  -2.606  1.00  0.00     0.094 A 
HETATM   25  C   UNL     1      39.220  -9.532  -4.000  1.00  0.00     0.040 A 
HETATM   26  C   UNL     1      36.590 -10.398  -3.296  1.00  0.00     0.041 A 
HETATM   27  N   UNL     1      37.819 -11.776  -1.574  1.00  0.00    -0.221 NA
HETATM   28  C   UNL     1      36.789  -9.484  -4.350  1.00  0.00    -0.060 A 
HETATM   29  C   UNL     1      35.618  -8.964  -5.134  1.00  0.00     0.048 C 
HETATM   30  C   UNL     1      38.091  -9.064  -4.687  1.00  0.00     0.009 A 
ENDBRANCH   1  21
TORSDOF 5
ENDMDL
MODEL 7
REMARK VINA RESULT:      -7.7      5.117      9.633
REMARK  5 active torsions:
REMARK  status: ('A' for Active; 'I' for Inactive)
REMARK    1  A    between atoms: C_7  and  C_8 
REMARK    2  A    between atoms: C_11  and  N_12 
REMARK       I    between atoms: N_12  and  C_13 
REMARK    3  A    between atoms: C_13  and  C_14 
REMARK    4  A    between atoms: C_16  and  O_17 
REMARK    5  A    between atoms: C_20  and  O_21 
ROOT
HETATM    1  C   UNL     1      43.461 -13.942   5.613  1.00  0.00     0.017 A 
HETATM    2  C   UNL     1      44.545 -13.410   6.321  1.00  0.00     0.018 A 
HETATM    3  C   UNL     1      44.413 -12.228   7.063  1.00  0.00     0.030 A 
HETATM    4  C   UNL     1      43.191 -11.557   7.115  1.00  0.00     0.035 A 
HETATM    5  C   UNL     1      42.118 -12.057   6.371  1.00  0.00     0.030 A 
HETATM    6  C   UNL     1      42.251 -13.235   5.627  1.00  0.00     0.018 A 
ENDROOT
BRANCH   4   7
HETATM    7  N   UNL     1      42.946 -10.422   7.916  1.00  0.00    -0.323 N 
HETATM    8  C   UNL     1      43.830  -9.398   8.204  1.00  0.00     0.256 C 
HETATM    9  O   UNL     1      44.952  -9.234   7.743  1.00  0.00    -0.267 OA
HETATM   10  H   UNL     1      42.078 -10.440   8.434  1.00  0.00     0.169 HD
BRANCH   8  11
HETATM   11  C   UNL     1      43.350  -8.449   9.244  1.00  0.00     0.037 A 
HETATM   12  C   UNL     1      43.508  -8.816  10.585  1.00  0.00     0.054 A 
HETATM   13  C   UNL     1      43.020  -7.996  11.601  1.00  0.00     0.071 A 
HETATM   14  C   UNL     1      42.397  -6.794  11.264  1.00  0.00     0.073 A 
HETATM   15  C   UNL     1      42.258  -6.407   9.924  1.00  0.00     0.071 A 
HETATM   16  C   UNL     1      42.738  -7.235   8.909  1.00  0.00     0.054 A 
BRANCH  13  17
HETATM   17  O   UNL     1      43.210  -8.480  12.865  1.00  0.00    -0.356 OA
HETATM   18  C   UNL     1      42.064  -8.556  13.704  1.00  0.00     0.210 C 
ENDBRANCH  13  17
BRANCH  15  19
HETATM   19  O   UNL     1      41.632  -5.203   9.746  1.00  0.00    -0.356 OA
HETATM   20  C   UNL     1      40.729  -4.780  10.760  1.00  0.00     0.210 C 
ENDBRANCH  15  19
ENDBRANCH   8  11
ENDBRANCH   4   7
BRANCH   1  21
HETATM   21  C   UNL     1      43.541 -15.221   4.911  1.00  0.00     0.180 A 
HETATM   22  O   UNL     1      44.067 -16.278   5.612  1.00  0.00    -0.289 OA
HETATM   23  C   UNL     1      43.923 -17.338   4.767  1.00  0.00     0.106 A 
HETATM   24  C   UNL     1      43.337 -16.876   3.603  1.00  0.00     0.094 A 
HETATM   25  C   UNL     1      44.272 -18.659   5.009  1.00  0.00     0.040 A 
HETATM   26  C   UNL     1      43.063 -17.786   2.573  1.00  0.00     0.041 A 
HETATM   27  N   UNL     1      43.109 -15.527   3.698  1.00  0.00    -0.221 NA
HETATM   28  C   UNL     1      43.391 -19.142   2.768  1.00  0.00    -0.060 A 
HETATM   29  C   UNL     1      43.091 -20.155   1.701  1.00  0.00     0.048 C 
HETATM   30  C   UNL     1      43.987 -19.560   3.974  1.00  0.00     0.009 A 
ENDBRANCH   1  21
TORSDOF 5
ENDMDL
MODEL 8
REMARK VINA RESULT:      -7.7      5.885     10.120
REMARK  5 active torsions:
REMARK  status: ('A' for Active; 'I' for Inactive)
REMARK    1  A    between atoms: C_7  and  C_8 
REMARK    2  A    between atoms: C_11  and  N_12 
REMARK       I    between atoms: N_12  and  C_13 
REMARK    3  A    between atoms: C_13  and  C_14 
REMARK    4  A    between atoms: C_16  and  O_17 
REMARK    5  A    between atoms: C_20  and  O_21 
ROOT
HETATM    1  C   UNL     1      43.126 -13.949   5.673  1.00  0.00     0.017 A 
HETATM    2  C   UNL     1      41.916 -13.251   5.586  1.00  0.00     0.018 A 
HETATM    3  C   UNL     1      41.775 -11.976   6.152  1.00  0.00     0.030 A 
HETATM    4  C   UNL     1      42.845 -11.371   6.811  1.00  0.00     0.035 A 
HETATM    5  C   UNL     1      44.042 -12.083   6.943  1.00  0.00     0.030 A 
HETATM    6  C   UNL     1      44.181 -13.357   6.381  1.00  0.00     0.018 A 
ENDROOT
BRANCH   4   7
HETATM    7  N   UNL     1      42.821 -10.055   7.318  1.00  0.00    -0.323 N 
HETATM    8  C   UNL     1      42.997  -9.664   8.633  1.00  0.00     0.256 C 
HETATM    9  O   UNL     1      43.304 -10.373   9.583  1.00  0.00    -0.267 OA
HETATM   10  H   UNL     1      42.507  -9.348   6.666  1.00  0.00     0.169 HD
BRANCH   8  11
HETATM   11  C   UNL     1      42.706  -8.229   8.890  1.00  0.00     0.037 A 
HETATM   12  C   UNL     1      42.739  -7.783  10.215  1.00  0.00     0.054 A 
HETATM   13  C   UNL     1      42.413  -6.463  10.522  1.00  0.00     0.071 A 
HETATM   14  C   UNL     1      42.079  -5.588   9.488  1.00  0.00     0.073 A 
HETATM   15  C   UNL     1      42.069  -6.020   8.155  1.00  0.00     0.071 A 
HETATM   16  C   UNL     1      42.385  -7.345   7.852  1.00  0.00     0.054 A 
BRANCH  13  17
HETATM   17  O   UNL     1      42.454  -6.160  11.854  1.00  0.00    -0.356 OA
HETATM   18  C   UNL     1      41.283  -5.586  12.420  1.00  0.00     0.210 C 
ENDBRANCH  13  17
BRANCH  15  19
HETATM   19  O   UNL     1      41.728  -5.051   7.250  1.00  0.00    -0.356 OA
HETATM   20  C   UNL     1      41.029  -5.464   6.082  1.00  0.00     0.210 C 
ENDBRANCH  15  19
ENDBRANCH   8  11
ENDBRANCH   4   7
BRANCH   1  21
HETATM   21  C   UNL     1      43.333 -15.235   5.012  1.00  0.00     0.180 A 
HETATM   22  O   UNL     1      43.723 -16.282   5.810  1.00  0.00    -0.289 OA
HETATM   23  C   UNL     1      43.736 -17.353   4.965  1.00  0.00     0.106 A 
HETATM   24  C   UNL     1      43.373 -16.905   3.708  1.00  0.00     0.094 A 
HETATM   25  C   UNL     1      44.036 -18.670   5.282  1.00  0.00     0.040 A 
HETATM   26  C   UNL     1      43.291 -17.828   2.656  1.00  0.00     0.041 A 
HETATM   27  N   UNL     1      43.130 -15.556   3.745  1.00  0.00    -0.221 NA
HETATM   28  C   UNL     1      43.578 -19.181   2.923  1.00  0.00    -0.060 A 
HETATM   29  C   UNL     1      43.478 -20.207   1.831  1.00  0.00     0.048 C 
HETATM   30  C   UNL     1      43.945 -19.584   4.222  1.00  0.00     0.009 A 
ENDBRANCH   1  21
TORSDOF 5
ENDMDL
MODEL 9
REMARK VINA RESULT:      -7.7      1.400      2.966
REMARK  5 active torsions:
REMARK  status: ('A' for Active; 'I' for Inactive)
REMARK    1  A    between atoms: C_7  and  C_8 
REMARK    2  A    between atoms: C_11  and  N_12 
REMARK       I    between atoms: N_12  and  C_13 
REMARK    3  A    between atoms: C_13  and  C_14 
REMARK    4  A    between atoms: C_16  and  O_17 
REMARK    5  A    between atoms: C_20  and  O_21 
ROOT
HETATM    1  C   UNL     1      42.932  -9.438  11.355  1.00  0.00     0.017 A 
HETATM    2  C   UNL     1      41.870 -10.071  12.013  1.00  0.00     0.018 A 
HETATM    3  C   UNL     1      41.469  -9.666  13.293  1.00  0.00     0.030 A 
HETATM    4  C   UNL     1      42.119  -8.614  13.940  1.00  0.00     0.035 A 
HETATM    5  C   UNL     1      43.211  -8.010  13.308  1.00  0.00     0.030 A 
HETATM    6  C   UNL     1      43.613  -8.417  12.031  1.00  0.00     0.018 A 
ENDROOT
BRANCH   4   7
HETATM    7  N   UNL     1      41.717  -8.079  15.181  1.00  0.00    -0.323 N 
HETATM    8  C   UNL     1      41.098  -6.862  15.403  1.00  0.00     0.256 C 
HETATM    9  O   UNL     1      40.696  -6.069  14.561  1.00  0.00    -0.267 OA
HETATM   10  H   UNL     1      42.042  -8.585  15.994  1.00  0.00     0.169 HD
BRANCH   8  11
HETATM   11  C   UNL     1      40.988  -6.483  16.837  1.00  0.00     0.037 A 
HETATM   12  C   UNL     1      40.419  -7.409  17.716  1.00  0.00     0.054 A 
HETATM   13  C   UNL     1      40.233  -7.084  19.059  1.00  0.00     0.071 A 
HETATM   14  C   UNL     1      40.644  -5.832  19.517  1.00  0.00     0.073 A 
HETATM   15  C   UNL     1      41.239  -4.907  18.648  1.00  0.00     0.071 A 
HETATM   16  C   UNL     1      41.415  -5.233  17.303  1.00  0.00     0.054 A 
BRANCH  13  17
HETATM   17  O   UNL     1      39.641  -8.063  19.806  1.00  0.00    -0.356 OA
HETATM   18  C   UNL     1      40.460  -9.157  20.201  1.00  0.00     0.210 C 
ENDBRANCH  13  17
BRANCH  15  19
HETATM   19  O   UNL     1      41.596  -3.726  19.240  1.00  0.00    -0.356 OA
HETATM   20  C   UNL     1      42.652  -2.986  18.638  1.00  0.00     0.210 C 
ENDBRANCH  15  19
ENDBRANCH   8  11
ENDBRANCH   4   7
BRANCH   1  21
HETATM   21  C   UNL     1      43.310  -9.773   9.984  1.00  0.00     0.180 A 
HETATM   22  O   UNL     1      44.620 -10.129   9.775  1.00  0.00    -0.289 OA
HETATM   23  C   UNL     1      44.659 -10.483   8.459  1.00  0.00     0.106 A 
HETATM   24  C   UNL     1      43.390 -10.311   7.936  1.00  0.00     0.094 A 
HETATM   25  C   UNL     1      45.754 -10.952   7.747  1.00  0.00     0.040 A 
HETATM   26  C   UNL     1      43.162 -10.629   6.590  1.00  0.00     0.041 A 
HETATM   27  N   UNL     1      42.542  -9.850   8.910  1.00  0.00    -0.221 NA
HETATM   28  C   UNL     1      44.237 -11.116   5.822  1.00  0.00    -0.060 A 
HETATM   29  C   UNL     1      44.031 -11.493   4.383  1.00  0.00     0.048 C 
HETATM   30  C   UNL     1      45.511 -11.271   6.404  1.00  0.00     0.009 A 
ENDBRANCH   1  21
TORSDOF 5
ENDMDL
MODEL 10
REMARK VINA RESULT:      -7.7     25.590     26.543
REMARK  5 active torsions:
REMARK  status: ('A' for Active; 'I' for Inactive)
REMARK    1  A    between atoms: C_7  and  C_8 
REMARK    2  A    between atoms: C_11  and  N_12 
REMARK       I    between atoms: N_12  and  C_13 
REMARK    3  A    between atoms: C_13  and  C_14 
REMARK    4  A    between atoms: C_16  and  O_17 
REMARK    5  A    between atoms: C_20  and  O_21 
ROOT
HETATM    1  C   UNL     1      49.057 -29.712   1.842  1.00  0.00     0.017 A 
HETATM    2  C   UNL     1      50.318 -30.291   1.657  1.00  0.00     0.018 A 
HETATM    3  C   UNL     1      51.134 -30.609   2.752  1.00  0.00     0.030 A 
HETATM    4  C   UNL     1      50.702 -30.358   4.054  1.00  0.00     0.035 A 
HETATM    5  C   UNL     1      49.465 -29.735   4.243  1.00  0.00     0.030 A 
HETATM    6  C   UNL     1      48.652 -29.415   3.150  1.00  0.00     0.018 A 
ENDROOT
BRANCH   4   7
HETATM    7  N   UNL     1      51.415 -30.738   5.211  1.00  0.00    -0.323 N 
HETATM    8  C   UNL     1      51.717 -32.024   5.620  1.00  0.00     0.256 C 
HETATM    9  O   UNL     1      51.511 -33.065   5.009  1.00  0.00    -0.267 OA
HETATM   10  H   UNL     1      51.599 -29.991   5.868  1.00  0.00     0.169 HD
BRANCH   8  11
HETATM   11  C   UNL     1      52.294 -32.113   6.987  1.00  0.00     0.037 A 
HETATM   12  C   UNL     1      51.662 -32.951   7.911  1.00  0.00     0.054 A 
HETATM   13  C   UNL     1      52.121 -33.026   9.225  1.00  0.00     0.071 A 
HETATM   14  C   UNL     1      53.233 -32.272   9.599  1.00  0.00     0.073 A 
HETATM   15  C   UNL     1      53.889 -31.448   8.673  1.00  0.00     0.071 A 
HETATM   16  C   UNL     1      53.420 -31.369   7.361  1.00  0.00     0.054 A 
BRANCH  13  17
HETATM   17  O   UNL     1      51.400 -33.857  10.035  1.00  0.00    -0.356 OA
HETATM   18  C   UNL     1      50.062 -33.474  10.325  1.00  0.00     0.210 C 
ENDBRANCH  13  17
BRANCH  15  19
HETATM   19  O   UNL     1      54.967 -30.774   9.181  1.00  0.00    -0.356 OA
HETATM   20  C   UNL     1      55.420 -31.148  10.477  1.00  0.00     0.210 C 
ENDBRANCH  15  19
ENDBRANCH   8  11
ENDBRANCH   4   7
BRANCH   1  21
HETATM   21  C   UNL     1      48.146 -29.458   0.729  1.00  0.00     0.180 A 
HETATM   22  O   UNL     1      46.803 -29.465   1.018  1.00  0.00    -0.289 OA
HETATM   23  C   UNL     1      46.211 -29.103  -0.156  1.00  0.00     0.106 A 
HETATM   24  C   UNL     1      47.211 -28.912  -1.093  1.00  0.00     0.094 A 
HETATM   25  C   UNL     1      44.856 -28.930  -0.397  1.00  0.00     0.040 A 
HETATM   26  C   UNL     1      46.859 -28.512  -2.389  1.00  0.00     0.041 A 
HETATM   27  N   UNL     1      48.436 -29.151  -0.524  1.00  0.00    -0.221 NA
HETATM   28  C   UNL     1      45.496 -28.315  -2.686  1.00  0.00    -0.060 A 
HETATM   29  C   UNL     1      45.077 -27.861  -4.055  1.00  0.00     0.048 C 
HETATM   30  C   UNL     1      44.518 -28.525  -1.695  1.00  0.00     0.009 A 
ENDBRANCH   1  21
TORSDOF 5
ENDMDL
