MODEL 1
REMARK VINA RESULT:      -8.0      0.000      0.000
REMARK  3 active torsions:
REMARK  status: ('A' for Active; 'I' for Inactive)
REMARK    1  A    between atoms: C_4  and  N_5 
REMARK       I    between atoms: N_5  and  C_6 
REMARK    2  A    between atoms: C_6  and  C_7 
REMARK    3  A    between atoms: C_7  and  C_8 
ROOT
HETATM    1  C   UNL     1      40.062 -14.525   3.501  1.00  0.00     0.286 C 
HETATM    2  N   UNL     1      40.763 -13.253   3.035  1.00  0.00    -0.056 N 
HETATM    3  H   UNL     1      41.705 -13.552   2.699  1.00  0.00     0.278 HD
HETATM    4  H   UNL     1      40.288 -12.861   2.214  1.00  0.00     0.278 HD
HETATM    5  C   UNL     1      40.906 -12.224   4.128  1.00  0.00     0.209 C 
HETATM    6  C   UNL     1      41.669 -12.850   5.324  1.00  0.00     0.115 C 
HETATM    7  N   UNL     1      41.086 -14.123   5.737  1.00  0.00    -0.353 N 
HETATM    8  C   UNL     1      40.566 -15.046   4.867  1.00  0.00     0.249 C 
HETATM    9  O   UNL     1      40.426 -16.211   5.222  1.00  0.00    -0.271 OA
HETATM   10  C   UNL     1      41.608 -10.987   3.569  1.00  0.00     0.035 C 
HETATM   11  C   UNL     1      43.093 -11.209   3.290  1.00  0.00     0.002 C 
HETATM   12  C   UNL     1      43.816 -11.757   4.515  1.00  0.00     0.002 C 
HETATM   13  C   UNL     1      43.167 -13.035   5.033  1.00  0.00     0.027 C 
HETATM   14  H   UNL     1      41.393 -14.528   6.621  1.00  0.00     0.163 HD
ENDROOT
BRANCH   1  15
HETATM   15  C   UNL     1      40.137 -15.630   2.438  1.00  0.00     0.146 C 
BRANCH  15  16
HETATM   16  C   UNL     1      41.265 -15.334   1.477  1.00  0.00     0.224 C 
HETATM   17  N   UNL     1      42.509 -15.851   1.630  1.00  0.00    -0.327 N 
HETATM   18  H   UNL     1      43.200 -15.390   1.045  1.00  0.00     0.169 HD
HETATM   19  O   UNL     1      41.041 -14.556   0.538  1.00  0.00    -0.273 OA
BRANCH  17  20
HETATM   20  C   UNL     1      43.020 -16.828   2.503  1.00  0.00     0.035 A 
HETATM   21  C   UNL     1      43.102 -18.187   2.200  1.00  0.00     0.036 A 
HETATM   22  C   UNL     1      43.626 -19.097   3.132  1.00  0.00    -0.059 A 
HETATM   23  C   UNL     1      43.759 -20.553   2.793  1.00  0.00     0.048 C 
HETATM   24  C   UNL     1      44.090 -18.626   4.366  1.00  0.00     0.013 A 
HETATM   25  C   UNL     1      44.030 -17.265   4.678  1.00  0.00    -0.059 A 
HETATM   26  C   UNL     1      43.521 -16.371   3.728  1.00  0.00     0.036 A 
HETATM   27  C   UNL     1      44.555 -16.765   5.993  1.00  0.00     0.048 C 
ENDBRANCH  17  20
ENDBRANCH  15  16
ENDBRANCH   1  15
TORSDOF 3
ENDMDL
MODEL 2
REMARK VINA RESULT:      -7.7      2.497      4.336
REMARK  3 active torsions:
REMARK  status: ('A' for Active; 'I' for Inactive)
REMARK    1  A    between atoms: C_4  and  N_5 
REMARK       I    between atoms: N_5  and  C_6 
REMARK    2  A    between atoms: C_6  and  C_7 
REMARK    3  A    between atoms: C_7  and  C_8 
ROOT
HETATM    1  C   UNL     1      43.085 -12.929   6.676  1.00  0.00     0.286 C 
HETATM    2  N   UNL     1      41.656 -13.117   6.176  1.00  0.00    -0.056 N 
HETATM    3  H   UNL     1      41.736 -13.595   5.252  1.00  0.00     0.278 HD
HETATM    4  H   UNL     1      41.147 -13.770   6.782  1.00  0.00     0.278 HD
HETATM    5  C   UNL     1      40.908 -11.816   6.024  1.00  0.00     0.209 C 
HETATM    6  C   UNL     1      41.693 -10.885   5.065  1.00  0.00     0.115 C 
HETATM    7  N   UNL     1      43.095 -10.757   5.454  1.00  0.00    -0.353 N 
HETATM    8  C   UNL     1      43.845 -11.785   5.965  1.00  0.00     0.249 C 
HETATM    9  O   UNL     1      45.068 -11.723   5.935  1.00  0.00    -0.271 OA
HETATM   10  C   UNL     1      39.490 -12.103   5.530  1.00  0.00     0.035 C 
HETATM   11  C   UNL     1      39.438 -12.552   4.071  1.00  0.00     0.002 C 
HETATM   12  C   UNL     1      40.160 -11.569   3.157  1.00  0.00     0.002 C 
HETATM   13  C   UNL     1      41.600 -11.336   3.599  1.00  0.00     0.027 C 
HETATM   14  H   UNL     1      43.654 -10.033   5.006  1.00  0.00     0.163 HD
ENDROOT
BRANCH   1  15
HETATM   15  C   UNL     1      43.884 -14.238   6.602  1.00  0.00     0.146 C 
BRANCH  15  16
HETATM   16  C   UNL     1      43.126 -15.336   7.311  1.00  0.00     0.224 C 
HETATM   17  N   UNL     1      42.389 -16.261   6.647  1.00  0.00    -0.327 N 
HETATM   18  H   UNL     1      41.771 -16.784   7.260  1.00  0.00     0.169 HD
HETATM   19  O   UNL     1      43.155 -15.358   8.550  1.00  0.00    -0.273 OA
BRANCH  17  20
HETATM   20  C   UNL     1      42.263 -16.555   5.278  1.00  0.00     0.035 A 
HETATM   21  C   UNL     1      41.292 -16.004   4.442  1.00  0.00     0.036 A 
HETATM   22  C   UNL     1      41.237 -16.354   3.083  1.00  0.00    -0.059 A 
HETATM   23  C   UNL     1      40.224 -15.729   2.169  1.00  0.00     0.048 C 
HETATM   24  C   UNL     1      42.183 -17.246   2.564  1.00  0.00     0.013 A 
HETATM   25  C   UNL     1      43.173 -17.793   3.385  1.00  0.00    -0.059 A 
HETATM   26  C   UNL     1      43.222 -17.419   4.733  1.00  0.00     0.036 A 
HETATM   27  C   UNL     1      44.199 -18.729   2.815  1.00  0.00     0.048 C 
ENDBRANCH  17  20
ENDBRANCH  15  16
ENDBRANCH   1  15
TORSDOF 3
ENDMDL
MODEL 3
REMARK VINA RESULT:      -7.5      2.260      4.615
REMARK  3 active torsions:
REMARK  status: ('A' for Active; 'I' for Inactive)
REMARK    1  A    between atoms: C_4  and  N_5 
REMARK       I    between atoms: N_5  and  C_6 
REMARK    2  A    between atoms: C_6  and  C_7 
REMARK    3  A    between atoms: C_7  and  C_8 
ROOT
HETATM    1  C   UNL     1      41.875 -12.768   5.997  1.00  0.00     0.286 C 
HETATM    2  N   UNL     1      43.064 -13.723   5.966  1.00  0.00    -0.056 N 
HETATM    3  H   UNL     1      43.054 -14.162   5.019  1.00  0.00     0.278 HD
HETATM    4  H   UNL     1      43.946 -13.201   6.019  1.00  0.00     0.278 HD
HETATM    5  C   UNL     1      42.993 -14.788   7.031  1.00  0.00     0.209 C 
HETATM    6  C   UNL     1      41.668 -15.577   6.878  1.00  0.00     0.115 C 
HETATM    7  N   UNL     1      40.510 -14.690   6.805  1.00  0.00    -0.353 N 
HETATM    8  C   UNL     1      40.512 -13.480   6.160  1.00  0.00     0.249 C 
HETATM    9  O   UNL     1      39.452 -12.962   5.828  1.00  0.00    -0.271 OA
HETATM   10  C   UNL     1      44.225 -15.687   6.929  1.00  0.00     0.035 C 
HETATM   11  C   UNL     1      44.204 -16.605   5.708  1.00  0.00     0.002 C 
HETATM   12  C   UNL     1      42.913 -17.414   5.639  1.00  0.00     0.002 C 
HETATM   13  C   UNL     1      41.681 -16.518   5.662  1.00  0.00     0.027 C 
HETATM   14  H   UNL     1      39.582 -15.104   6.886  1.00  0.00     0.163 HD
ENDROOT
BRANCH   1  15
HETATM   15  C   UNL     1      41.861 -11.847   4.769  1.00  0.00     0.146 C 
BRANCH  15  16
HETATM   16  C   UNL     1      43.223 -11.854   4.113  1.00  0.00     0.224 C 
HETATM   17  N   UNL     1      43.564 -12.743   3.148  1.00  0.00    -0.327 N 
HETATM   18  H   UNL     1      44.564 -12.765   2.971  1.00  0.00     0.169 HD
HETATM   19  O   UNL     1      44.064 -11.034   4.510  1.00  0.00    -0.273 OA
BRANCH  17  20
HETATM   20  C   UNL     1      42.808 -13.686   2.431  1.00  0.00     0.035 A 
HETATM   21  C   UNL     1      41.752 -13.362   1.578  1.00  0.00     0.036 A 
HETATM   22  C   UNL     1      41.048 -14.368   0.898  1.00  0.00    -0.059 A 
HETATM   23  C   UNL     1      39.942 -14.022  -0.055  1.00  0.00     0.048 C 
HETATM   24  C   UNL     1      41.430 -15.705   1.063  1.00  0.00     0.013 A 
HETATM   25  C   UNL     1      42.496 -16.045   1.900  1.00  0.00    -0.059 A 
HETATM   26  C   UNL     1      43.197 -15.026   2.555  1.00  0.00     0.036 A 
HETATM   27  C   UNL     1      42.915 -17.479   2.051  1.00  0.00     0.048 C 
ENDBRANCH  17  20
ENDBRANCH  15  16
ENDBRANCH   1  15
TORSDOF 3
ENDMDL
MODEL 4
REMARK VINA RESULT:      -7.5      3.135      5.086
REMARK  3 active torsions:
REMARK  status: ('A' for Active; 'I' for Inactive)
REMARK    1  A    between atoms: C_4  and  N_5 
REMARK       I    between atoms: N_5  and  C_6 
REMARK    2  A    between atoms: C_6  and  C_7 
REMARK    3  A    between atoms: C_7  and  C_8 
ROOT
HETATM    1  C   UNL     1      40.321 -12.203   1.498  1.00  0.00     0.286 C 
HETATM    2  N   UNL     1      39.591 -13.091   0.495  1.00  0.00    -0.056 N 
HETATM    3  H   UNL     1      40.303 -13.766   0.139  1.00  0.00     0.278 HD
HETATM    4  H   UNL     1      38.883 -13.662   0.971  1.00  0.00     0.278 HD
HETATM    5  C   UNL     1      38.991 -12.318  -0.651  1.00  0.00     0.209 C 
HETATM    6  C   UNL     1      40.107 -11.511  -1.364  1.00  0.00     0.115 C 
HETATM    7  N   UNL     1      40.894 -10.720  -0.422  1.00  0.00    -0.353 N 
HETATM    8  C   UNL     1      41.234 -11.144   0.838  1.00  0.00     0.249 C 
HETATM    9  O   UNL     1      42.168 -10.614   1.430  1.00  0.00    -0.271 OA
HETATM   10  C   UNL     1      38.276 -13.286  -1.594  1.00  0.00     0.035 C 
HETATM   11  C   UNL     1      39.233 -14.159  -2.403  1.00  0.00     0.002 C 
HETATM   12  C   UNL     1      40.267 -13.318  -3.143  1.00  0.00     0.002 C 
HETATM   13  C   UNL     1      41.038 -12.405  -2.198  1.00  0.00     0.027 C 
HETATM   14  H   UNL     1      41.530 -10.018  -0.797  1.00  0.00     0.163 HD
ENDROOT
BRANCH   1  15
HETATM   15  C   UNL     1      41.108 -13.036   2.520  1.00  0.00     0.146 C 
BRANCH  15  16
HETATM   16  C   UNL     1      40.160 -13.602   3.551  1.00  0.00     0.224 C 
HETATM   17  N   UNL     1      40.413 -14.754   4.220  1.00  0.00    -0.327 N 
HETATM   18  H   UNL     1      39.596 -15.114   4.704  1.00  0.00     0.169 HD
HETATM   19  O   UNL     1      39.096 -13.002   3.756  1.00  0.00    -0.273 OA
BRANCH  17  20
HETATM   20  C   UNL     1      41.556 -15.570   4.286  1.00  0.00     0.035 A 
HETATM   21  C   UNL     1      42.517 -15.497   5.295  1.00  0.00     0.036 A 
HETATM   22  C   UNL     1      43.631 -16.351   5.285  1.00  0.00    -0.059 A 
HETATM   23  C   UNL     1      44.644 -16.307   6.392  1.00  0.00     0.048 C 
HETATM   24  C   UNL     1      43.761 -17.299   4.263  1.00  0.00     0.013 A 
HETATM   25  C   UNL     1      42.797 -17.397   3.254  1.00  0.00    -0.059 A 
HETATM   26  C   UNL     1      41.685 -16.549   3.292  1.00  0.00     0.036 A 
HETATM   27  C   UNL     1      42.931 -18.434   2.177  1.00  0.00     0.048 C 
ENDBRANCH  17  20
ENDBRANCH  15  16
ENDBRANCH   1  15
TORSDOF 3
ENDMDL
MODEL 5
REMARK VINA RESULT:      -7.5      3.366      4.908
REMARK  3 active torsions:
REMARK  status: ('A' for Active; 'I' for Inactive)
REMARK    1  A    between atoms: C_4  and  N_5 
REMARK       I    between atoms: N_5  and  C_6 
REMARK    2  A    between atoms: C_6  and  C_7 
REMARK    3  A    between atoms: C_7  and  C_8 
ROOT
HETATM    1  C   UNL     1      40.982 -13.114   0.749  1.00  0.00     0.286 C 
HETATM    2  N   UNL     1      40.742 -12.130  -0.392  1.00  0.00    -0.056 N 
HETATM    3  H   UNL     1      39.869 -11.614  -0.146  1.00  0.00     0.278 HD
HETATM    4  H   UNL     1      41.484 -11.422  -0.416  1.00  0.00     0.278 HD
HETATM    5  C   UNL     1      40.585 -12.806  -1.730  1.00  0.00     0.209 C 
HETATM    6  C   UNL     1      39.424 -13.830  -1.653  1.00  0.00     0.115 C 
HETATM    7  N   UNL     1      39.566 -14.731  -0.512  1.00  0.00    -0.353 N 
HETATM    8  C   UNL     1      40.048 -14.345   0.713  1.00  0.00     0.249 C 
HETATM    9  O   UNL     1      39.813 -15.027   1.704  1.00  0.00    -0.271 OA
HETATM   10  C   UNL     1      40.360 -11.746  -2.808  1.00  0.00     0.035 C 
HETATM   11  C   UNL     1      38.981 -11.094  -2.735  1.00  0.00     0.002 C 
HETATM   12  C   UNL     1      37.868 -12.137  -2.734  1.00  0.00     0.002 C 
HETATM   13  C   UNL     1      38.045 -13.154  -1.613  1.00  0.00     0.027 C 
HETATM   14  H   UNL     1      38.963 -15.551  -0.469  1.00  0.00     0.163 HD
ENDROOT
BRANCH   1  15
HETATM   15  C   UNL     1      40.909 -12.419   2.117  1.00  0.00     0.146 C 
BRANCH  15  16
HETATM   16  C   UNL     1      42.302 -12.060   2.580  1.00  0.00     0.224 C 
HETATM   17  N   UNL     1      43.064 -12.901   3.322  1.00  0.00    -0.327 N 
HETATM   18  H   UNL     1      43.868 -12.439   3.736  1.00  0.00     0.169 HD
HETATM   19  O   UNL     1      42.738 -10.935   2.296  1.00  0.00    -0.273 OA
BRANCH  17  20
HETATM   20  C   UNL     1      42.892 -14.247   3.688  1.00  0.00     0.035 A 
HETATM   21  C   UNL     1      43.158 -15.330   2.849  1.00  0.00     0.036 A 
HETATM   22  C   UNL     1      42.958 -16.646   3.296  1.00  0.00    -0.059 A 
HETATM   23  C   UNL     1      43.286 -17.815   2.414  1.00  0.00     0.048 C 
HETATM   24  C   UNL     1      42.510 -16.867   4.604  1.00  0.00     0.013 A 
HETATM   25  C   UNL     1      42.256 -15.794   5.462  1.00  0.00    -0.059 A 
HETATM   26  C   UNL     1      42.479 -14.490   5.004  1.00  0.00     0.036 A 
HETATM   27  C   UNL     1      41.801 -16.041   6.872  1.00  0.00     0.048 C 
ENDBRANCH  17  20
ENDBRANCH  15  16
ENDBRANCH   1  15
TORSDOF 3
ENDMDL
MODEL 6
REMARK VINA RESULT:      -7.4      3.813      5.217
REMARK  3 active torsions:
REMARK  status: ('A' for Active; 'I' for Inactive)
REMARK    1  A    between atoms: C_4  and  N_5 
REMARK       I    between atoms: N_5  and  C_6 
REMARK    2  A    between atoms: C_6  and  C_7 
REMARK    3  A    between atoms: C_7  and  C_8 
ROOT
HETATM    1  C   UNL     1      43.991 -11.785   6.430  1.00  0.00     0.286 C 
HETATM    2  N   UNL     1      43.407 -11.192   7.709  1.00  0.00    -0.056 N 
HETATM    3  H   UNL     1      43.068 -10.239   7.454  1.00  0.00     0.278 HD
HETATM    4  H   UNL     1      42.573 -11.715   7.998  1.00  0.00     0.278 HD
HETATM    5  C   UNL     1      44.412 -11.102   8.829  1.00  0.00     0.209 C 
HETATM    6  C   UNL     1      45.629 -10.265   8.358  1.00  0.00     0.115 C 
HETATM    7  N   UNL     1      46.158 -10.742   7.082  1.00  0.00    -0.353 N 
HETATM    8  C   UNL     1      45.377 -11.211   6.057  1.00  0.00     0.249 C 
HETATM    9  O   UNL     1      45.826 -11.254   4.917  1.00  0.00    -0.271 OA
HETATM   10  C   UNL     1      43.738 -10.509  10.066  1.00  0.00     0.035 C 
HETATM   11  C   UNL     1      43.434  -9.018   9.931  1.00  0.00     0.002 C 
HETATM   12  C   UNL     1      44.676  -8.227   9.538  1.00  0.00     0.002 C 
HETATM   13  C   UNL     1      45.310  -8.765   8.261  1.00  0.00     0.027 C 
HETATM   14  H   UNL     1      47.060 -10.384   6.772  1.00  0.00     0.163 HD
ENDROOT
BRANCH   1  15
HETATM   15  C   UNL     1      43.015 -11.651   5.252  1.00  0.00     0.146 C 
BRANCH  15  16
HETATM   16  C   UNL     1      41.666 -12.210   5.644  1.00  0.00     0.224 C 
HETATM   17  N   UNL     1      41.285 -13.475   5.343  1.00  0.00    -0.327 N 
HETATM   18  H   UNL     1      40.289 -13.626   5.471  1.00  0.00     0.169 HD
HETATM   19  O   UNL     1      40.873 -11.458   6.228  1.00  0.00    -0.273 OA
BRANCH  17  20
HETATM   20  C   UNL     1      41.991 -14.567   4.808  1.00  0.00     0.035 A 
HETATM   21  C   UNL     1      42.287 -14.724   3.454  1.00  0.00     0.036 A 
HETATM   22  C   UNL     1      42.999 -15.848   3.003  1.00  0.00    -0.059 A 
HETATM   23  C   UNL     1      43.359 -15.999   1.554  1.00  0.00     0.048 C 
HETATM   24  C   UNL     1      43.432 -16.803   3.930  1.00  0.00     0.013 A 
HETATM   25  C   UNL     1      43.159 -16.652   5.292  1.00  0.00    -0.059 A 
HETATM   26  C   UNL     1      42.464 -15.516   5.724  1.00  0.00     0.036 A 
HETATM   27  C   UNL     1      43.650 -17.668   6.282  1.00  0.00     0.048 C 
ENDBRANCH  17  20
ENDBRANCH  15  16
ENDBRANCH   1  15
TORSDOF 3
ENDMDL
MODEL 7
REMARK VINA RESULT:      -7.4      2.276      3.533
REMARK  3 active torsions:
REMARK  status: ('A' for Active; 'I' for Inactive)
REMARK    1  A    between atoms: C_4  and  N_5 
REMARK       I    between atoms: N_5  and  C_6 
REMARK    2  A    between atoms: C_6  and  C_7 
REMARK    3  A    between atoms: C_7  and  C_8 
ROOT
HETATM    1  C   UNL     1      39.890 -13.674   3.174  1.00  0.00     0.286 C 
HETATM    2  N   UNL     1      38.802 -13.191   2.220  1.00  0.00    -0.056 N 
HETATM    3  H   UNL     1      39.120 -13.463   1.263  1.00  0.00     0.278 HD
HETATM    4  H   UNL     1      37.930 -13.708   2.379  1.00  0.00     0.278 HD
HETATM    5  C   UNL     1      38.576 -11.702   2.287  1.00  0.00     0.209 C 
HETATM    6  C   UNL     1      39.910 -10.968   1.995  1.00  0.00     0.115 C 
HETATM    7  N   UNL     1      41.003 -11.472   2.822  1.00  0.00    -0.353 N 
HETATM    8  C   UNL     1      41.159 -12.791   3.166  1.00  0.00     0.249 C 
HETATM    9  O   UNL     1      42.251 -13.199   3.542  1.00  0.00    -0.271 OA
HETATM   10  C   UNL     1      37.468 -11.314   1.309  1.00  0.00     0.035 C 
HETATM   11  C   UNL     1      37.898 -11.399  -0.154  1.00  0.00     0.002 C 
HETATM   12  C   UNL     1      39.173 -10.604  -0.410  1.00  0.00     0.002 C 
HETATM   13  C   UNL     1      40.306 -11.038   0.511  1.00  0.00     0.027 C 
HETATM   14  H   UNL     1      41.874 -10.943   2.843  1.00  0.00     0.163 HD
ENDROOT
BRANCH   1  15
HETATM   15  C   UNL     1      40.251 -15.144   2.918  1.00  0.00     0.146 C 
BRANCH  15  16
HETATM   16  C   UNL     1      41.055 -15.254   1.643  1.00  0.00     0.224 C 
HETATM   17  N   UNL     1      42.232 -15.924   1.577  1.00  0.00    -0.327 N 
HETATM   18  H   UNL     1      42.752 -15.722   0.728  1.00  0.00     0.169 HD
HETATM   19  O   UNL     1      40.629 -14.673   0.635  1.00  0.00    -0.273 OA
BRANCH  17  20
HETATM   20  C   UNL     1      42.891 -16.758   2.497  1.00  0.00     0.035 A 
HETATM   21  C   UNL     1      43.376 -16.334   3.735  1.00  0.00     0.036 A 
HETATM   22  C   UNL     1      44.023 -17.235   4.595  1.00  0.00    -0.059 A 
HETATM   23  C   UNL     1      44.506 -16.796   5.947  1.00  0.00     0.048 C 
HETATM   24  C   UNL     1      44.159 -18.575   4.212  1.00  0.00     0.013 A 
HETATM   25  C   UNL     1      43.663 -19.019   2.983  1.00  0.00    -0.059 A 
HETATM   26  C   UNL     1      43.005 -18.109   2.147  1.00  0.00     0.036 A 
HETATM   27  C   UNL     1      43.789 -20.463   2.591  1.00  0.00     0.048 C 
ENDBRANCH  17  20
ENDBRANCH  15  16
ENDBRANCH   1  15
TORSDOF 3
ENDMDL
MODEL 8
REMARK VINA RESULT:      -7.3     14.460     17.022
REMARK  3 active torsions:
REMARK  status: ('A' for Active; 'I' for Inactive)
REMARK    1  A    between atoms: C_4  and  N_5 
REMARK       I    between atoms: N_5  and  C_6 
REMARK    2  A    between atoms: C_6  and  C_7 
REMARK    3  A    between atoms: C_7  and  C_8 
ROOT
HETATM    1  C   UNL     1      48.637 -30.072   0.366  1.00  0.00     0.286 C 
HETATM    2  N   UNL     1      48.283 -30.310   1.831  1.00  0.00    -0.056 N 
HETATM    3  H   UNL     1      48.614 -29.466   2.346  1.00  0.00     0.278 HD
HETATM    4  H   UNL     1      47.264 -30.328   1.955  1.00  0.00     0.278 HD
HETATM    5  C   UNL     1      48.926 -31.550   2.399  1.00  0.00     0.209 C 
HETATM    6  C   UNL     1      50.464 -31.452   2.229  1.00  0.00     0.115 C 
HETATM    7  N   UNL     1      50.841 -31.127   0.856  1.00  0.00    -0.353 N 
HETATM    8  C   UNL     1      50.139 -30.266   0.052  1.00  0.00     0.249 C 
HETATM    9  O   UNL     1      50.680 -29.765  -0.927  1.00  0.00    -0.271 OA
HETATM   10  C   UNL     1      48.508 -31.711   3.860  1.00  0.00     0.035 C 
HETATM   11  C   UNL     1      49.156 -30.688   4.791  1.00  0.00     0.002 C 
HETATM   12  C   UNL     1      50.673 -30.678   4.641  1.00  0.00     0.002 C 
HETATM   13  C   UNL     1      51.099 -30.441   3.197  1.00  0.00     0.027 C 
HETATM   14  H   UNL     1      51.822 -31.216   0.594  1.00  0.00     0.163 HD
ENDROOT
BRANCH   1  15
HETATM   15  C   UNL     1      48.158 -28.694  -0.112  1.00  0.00     0.146 C 
BRANCH  15  16
HETATM   16  C   UNL     1      46.964 -28.259   0.707  1.00  0.00     0.224 C 
HETATM   17  N   UNL     1      45.687 -28.480   0.310  1.00  0.00    -0.327 N 
HETATM   18  H   UNL     1      45.011 -27.942   0.845  1.00  0.00     0.169 HD
HETATM   19  O   UNL     1      47.176 -27.644   1.762  1.00  0.00    -0.273 OA
BRANCH  17  20
HETATM   20  C   UNL     1      45.149 -29.233  -0.748  1.00  0.00     0.035 A 
HETATM   21  C   UNL     1      45.087 -28.797  -2.071  1.00  0.00     0.036 A 
HETATM   22  C   UNL     1      44.532 -29.614  -3.068  1.00  0.00    -0.059 A 
HETATM   23  C   UNL     1      44.505 -29.169  -4.501  1.00  0.00     0.048 C 
HETATM   24  C   UNL     1      44.060 -30.888  -2.729  1.00  0.00     0.013 A 
HETATM   25  C   UNL     1      44.131 -31.347  -1.410  1.00  0.00    -0.059 A 
HETATM   26  C   UNL     1      44.704 -30.524  -0.434  1.00  0.00     0.036 A 
HETATM   27  C   UNL     1      43.646 -32.724  -1.059  1.00  0.00     0.048 C 
ENDBRANCH  17  20
ENDBRANCH  15  16
ENDBRANCH   1  15
TORSDOF 3
ENDMDL
MODEL 9
REMARK VINA RESULT:      -7.2      2.455      5.687
REMARK  3 active torsions:
REMARK  status: ('A' for Active; 'I' for Inactive)
REMARK    1  A    between atoms: C_4  and  N_5 
REMARK       I    between atoms: N_5  and  C_6 
REMARK    2  A    between atoms: C_6  and  C_7 
REMARK    3  A    between atoms: C_7  and  C_8 
ROOT
HETATM    1  C   UNL     1      41.846 -13.243   5.684  1.00  0.00     0.286 C 
HETATM    2  N   UNL     1      42.761 -14.125   4.840  1.00  0.00    -0.056 N 
HETATM    3  H   UNL     1      42.501 -13.938   3.846  1.00  0.00     0.278 HD
HETATM    4  H   UNL     1      43.737 -13.821   4.932  1.00  0.00     0.278 HD
HETATM    5  C   UNL     1      42.612 -15.593   5.146  1.00  0.00     0.209 C 
HETATM    6  C   UNL     1      41.132 -16.010   4.948  1.00  0.00     0.115 C 
HETATM    7  N   UNL     1      40.216 -15.127   5.664  1.00  0.00    -0.353 N 
HETATM    8  C   UNL     1      40.398 -13.774   5.791  1.00  0.00     0.249 C 
HETATM    9  O   UNL     1      39.449 -13.053   6.077  1.00  0.00    -0.271 OA
HETATM   10  C   UNL     1      43.569 -16.393   4.263  1.00  0.00     0.035 C 
HETATM   11  C   UNL     1      43.144 -16.437   2.797  1.00  0.00     0.002 C 
HETATM   12  C   UNL     1      41.707 -16.922   2.646  1.00  0.00     0.002 C 
HETATM   13  C   UNL     1      40.735 -16.080   3.464  1.00  0.00     0.027 C 
HETATM   14  H   UNL     1      39.242 -15.414   5.750  1.00  0.00     0.163 HD
ENDROOT
BRANCH   1  15
HETATM   15  C   UNL     1      41.855 -11.788   5.192  1.00  0.00     0.146 C 
BRANCH  15  16
HETATM   16  C   UNL     1      43.099 -11.537   4.372  1.00  0.00     0.224 C 
HETATM   17  N   UNL     1      43.119 -11.652   3.021  1.00  0.00    -0.327 N 
HETATM   18  H   UNL     1      44.062 -11.672   2.643  1.00  0.00     0.169 HD
HETATM   19  O   UNL     1      44.145 -11.254   4.974  1.00  0.00    -0.273 OA
BRANCH  17  20
HETATM   20  C   UNL     1      42.092 -11.838   2.079  1.00  0.00     0.035 A 
HETATM   21  C   UNL     1      41.697 -13.080   1.582  1.00  0.00     0.036 A 
HETATM   22  C   UNL     1      40.659 -13.175   0.641  1.00  0.00    -0.059 A 
HETATM   23  C   UNL     1      40.199 -14.512   0.137  1.00  0.00     0.048 C 
HETATM   24  C   UNL     1      40.005 -12.012   0.219  1.00  0.00     0.013 A 
HETATM   25  C   UNL     1      40.378 -10.762   0.721  1.00  0.00    -0.059 A 
HETATM   26  C   UNL     1      41.402 -10.689   1.672  1.00  0.00     0.036 A 
HETATM   27  C   UNL     1      39.653  -9.522   0.282  1.00  0.00     0.048 C 
ENDBRANCH  17  20
ENDBRANCH  15  16
ENDBRANCH   1  15
TORSDOF 3
ENDMDL
MODEL 10
REMARK VINA RESULT:      -7.1      2.152      3.444
REMARK  3 active torsions:
REMARK  status: ('A' for Active; 'I' for Inactive)
REMARK    1  A    between atoms: C_4  and  N_5 
REMARK       I    between atoms: N_5  and  C_6 
REMARK    2  A    between atoms: C_6  and  C_7 
REMARK    3  A    between atoms: C_7  and  C_8 
ROOT
HETATM    1  C   UNL     1      42.378 -12.790   3.983  1.00  0.00     0.286 C 
HETATM    2  N   UNL     1      40.964 -12.508   4.482  1.00  0.00    -0.056 N 
HETATM    3  H   UNL     1      40.503 -11.946   3.733  1.00  0.00     0.278 HD
HETATM    4  H   UNL     1      40.425 -13.379   4.544  1.00  0.00     0.278 HD
HETATM    5  C   UNL     1      40.938 -11.754   5.787  1.00  0.00     0.209 C 
HETATM    6  C   UNL     1      41.724 -10.427   5.627  1.00  0.00     0.115 C 
HETATM    7  N   UNL     1      43.051 -10.644   5.058  1.00  0.00    -0.353 N 
HETATM    8  C   UNL     1      43.325 -11.572   4.086  1.00  0.00     0.249 C 
HETATM    9  O   UNL     1      44.342 -11.467   3.409  1.00  0.00    -0.271 OA
HETATM   10  C   UNL     1      39.488 -11.527   6.211  1.00  0.00     0.035 C 
HETATM   11  C   UNL     1      38.762 -10.493   5.353  1.00  0.00     0.002 C 
HETATM   12  C   UNL     1      39.536  -9.182   5.283  1.00  0.00     0.002 C 
HETATM   13  C   UNL     1      40.961  -9.390   4.787  1.00  0.00     0.027 C 
HETATM   14  H   UNL     1      43.715  -9.872   5.078  1.00  0.00     0.163 HD
ENDROOT
BRANCH   1  15
HETATM   15  C   UNL     1      42.369 -13.350   2.553  1.00  0.00     0.146 C 
BRANCH  15  16
HETATM   16  C   UNL     1      41.140 -14.206   2.351  1.00  0.00     0.224 C 
HETATM   17  N   UNL     1      41.149 -15.550   2.535  1.00  0.00    -0.327 N 
HETATM   18  H   UNL     1      40.325 -16.003   2.150  1.00  0.00     0.169 HD
HETATM   19  O   UNL     1      40.101 -13.652   1.966  1.00  0.00    -0.273 OA
BRANCH  17  20
HETATM   20  C   UNL     1      42.117 -16.419   3.068  1.00  0.00     0.035 A 
HETATM   21  C   UNL     1      42.797 -16.198   4.266  1.00  0.00     0.036 A 
HETATM   22  C   UNL     1      43.750 -17.119   4.727  1.00  0.00    -0.059 A 
HETATM   23  C   UNL     1      44.451 -16.909   6.038  1.00  0.00     0.048 C 
HETATM   24  C   UNL     1      44.000 -18.279   3.985  1.00  0.00     0.013 A 
HETATM   25  C   UNL     1      43.315 -18.524   2.791  1.00  0.00    -0.059 A 
HETATM   26  C   UNL     1      42.355 -17.602   2.358  1.00  0.00     0.036 A 
HETATM   27  C   UNL     1      43.569 -19.784   2.015  1.00  0.00     0.048 C 
ENDBRANCH  17  20
ENDBRANCH  15  16
ENDBRANCH   1  15
TORSDOF 3
ENDMDL
