MODEL 1
REMARK VINA RESULT:      -9.8      0.000      0.000
REMARK  8 active torsions:
REMARK  status: ('A' for Active; 'I' for Inactive)
REMARK    1  A    between atoms: C_6  and  N_7 
REMARK       I    between atoms: N_7  and  C_8 
REMARK    2  A    between atoms: C_8  and  C_9 
REMARK    3  A    between atoms: C_10  and  N_11 
REMARK       I    between atoms: N_11  and  C_12 
REMARK    4  A    between atoms: C_12  and  C_13 
REMARK    5  A    between atoms: C_13  and  N_14 
REMARK    6  A    between atoms: N_14  and  C_17 
REMARK    7  A    between atoms: C_17  and  C_18 
REMARK    8  A    between atoms: C_30  and  C_31 
ROOT
HETATM    1  C   UNL     1      41.990 -13.255   3.557  1.00  0.00     0.073 A 
HETATM    2  C   UNL     1      42.446 -12.222   4.355  1.00  0.00     0.093 A 
HETATM    3  S   UNL     1      42.335 -10.698   3.598  1.00  0.00    -0.075 SA
HETATM    4  C   UNL     1      41.666 -11.374   2.196  1.00  0.00    -0.008 A 
HETATM    5  C   UNL     1      41.560 -12.746   2.268  1.00  0.00    -0.026 A 
HETATM    6  C   UNL     1      41.070 -13.559   1.103  1.00  0.00     0.041 C 
HETATM    7  C   UNL     1      40.922 -12.729  -0.187  1.00  0.00     0.010 C 
HETATM    8  C   UNL     1      40.426 -11.264  -0.008  1.00  0.00    -0.002 C 
HETATM    9  C   UNL     1      41.340 -10.530   1.006  1.00  0.00     0.052 C 
ENDROOT
BRANCH   2  10
HETATM   10  N   UNL     1      42.999 -12.095   5.609  1.00  0.00    -0.319 N 
HETATM   11  C   UNL     1      44.228 -11.551   5.882  1.00  0.00     0.248 C 
HETATM   12  O   UNL     1      45.127 -11.291   5.088  1.00  0.00    -0.271 OA
HETATM   13  H   UNL     1      42.456 -12.547   6.340  1.00  0.00     0.169 HD
BRANCH  11  14
HETATM   14  C   UNL     1      44.482 -11.301   7.364  1.00  0.00     0.335 C 
BRANCH  14  15
HETATM   15  N   UNL     1      45.902 -10.868   7.609  1.00  0.00    -0.063 N 
HETATM   16  H   UNL     1      46.355 -11.475   8.302  1.00  0.00     0.278 HD
HETATM   17  H   UNL     1      46.412 -11.009   6.718  1.00  0.00     0.278 HD
BRANCH  15  18
HETATM   18  C   UNL     1      46.083  -9.435   7.989  1.00  0.00     0.272 C 
BRANCH  18  19
HETATM   19  C   UNL     1      45.087  -9.039   9.033  1.00  0.00    -0.015 A 
HETATM   20  C   UNL     1      44.190  -8.000   8.810  1.00  0.00     0.125 A 
HETATM   21  N   UNL     1      43.323  -7.548   9.738  1.00  0.00    -0.273 NA
HETATM   22  C   UNL     1      43.320  -8.163  10.941  1.00  0.00     0.116 A 
HETATM   23  C   UNL     1      44.166  -9.209  11.262  1.00  0.00     0.020 A 
HETATM   24  C   UNL     1      45.065  -9.650  10.295  1.00  0.00     0.012 A 
ENDBRANCH  18  19
ENDBRANCH  15  18
ENDBRANCH  14  15
ENDBRANCH  11  14
ENDBRANCH   2  10
BRANCH   1  25
HETATM   25  C   UNL     1      42.016 -14.672   3.913  1.00  0.00     0.259 C 
HETATM   26  N   UNL     1      43.161 -15.297   3.448  1.00  0.00    -0.322 N 
HETATM   27  H   UNL     1      43.594 -14.824   2.665  1.00  0.00     0.169 HD
HETATM   28  O   UNL     1      41.066 -15.193   4.485  1.00  0.00    -0.267 OA
BRANCH  26  29
HETATM   29  C   UNL     1      43.403 -16.683   3.541  1.00  0.00     0.041 A 
HETATM   30  C   UNL     1      43.953 -17.314   4.668  1.00  0.00    -0.035 A 
HETATM   31  C   UNL     1      44.101 -18.716   4.656  1.00  0.00     0.015 A 
HETATM   32  C   UNL     1      44.454 -16.574   5.877  1.00  0.00     0.050 C 
HETATM   33  C   UNL     1      43.765 -19.479   3.530  1.00  0.00    -0.061 A 
HETATM   34  C   UNL     1      43.923 -20.971   3.532  1.00  0.00     0.048 C 
HETATM   35  C   UNL     1      43.272 -18.829   2.398  1.00  0.00     0.009 A 
HETATM   36  C   UNL     1      43.109 -17.443   2.399  1.00  0.00     0.030 A 
ENDBRANCH  26  29
ENDBRANCH   1  25
BRANCH   8  37
HETATM   37  C   UNL     1      38.869 -11.079   0.186  1.00  0.00    -0.047 C 
HETATM   38  C   UNL     1      38.359 -11.424   1.593  1.00  0.00     0.015 C 
HETATM   39  C   UNL     1      38.439  -9.626  -0.122  1.00  0.00     0.015 C 
HETATM   40  C   UNL     1      38.122 -11.986  -0.823  1.00  0.00     0.015 C 
ENDBRANCH   8  37
TORSDOF 8
ENDMDL
MODEL 2
REMARK VINA RESULT:      -9.7      1.729      2.466
REMARK  8 active torsions:
REMARK  status: ('A' for Active; 'I' for Inactive)
REMARK    1  A    between atoms: C_6  and  N_7 
REMARK       I    between atoms: N_7  and  C_8 
REMARK    2  A    between atoms: C_8  and  C_9 
REMARK    3  A    between atoms: C_10  and  N_11 
REMARK       I    between atoms: N_11  and  C_12 
REMARK    4  A    between atoms: C_12  and  C_13 
REMARK    5  A    between atoms: C_13  and  N_14 
REMARK    6  A    between atoms: N_14  and  C_17 
REMARK    7  A    between atoms: C_17  and  C_18 
REMARK    8  A    between atoms: C_30  and  C_31 
ROOT
HETATM    1  C   UNL     1      41.310 -13.001   1.677  1.00  0.00     0.073 A 
HETATM    2  C   UNL     1      41.726 -11.765   2.136  1.00  0.00     0.093 A 
HETATM    3  S   UNL     1      41.538 -10.528   0.977  1.00  0.00    -0.075 SA
HETATM    4  C   UNL     1      40.887 -11.605  -0.157  1.00  0.00    -0.008 A 
HETATM    5  C   UNL     1      40.845 -12.902   0.307  1.00  0.00    -0.026 A 
HETATM    6  C   UNL     1      40.382 -14.034  -0.566  1.00  0.00     0.041 C 
HETATM    7  C   UNL     1      40.184 -13.617  -2.036  1.00  0.00     0.010 C 
HETATM    8  C   UNL     1      39.622 -12.184  -2.273  1.00  0.00    -0.002 C 
HETATM    9  C   UNL     1      40.511 -11.152  -1.532  1.00  0.00     0.052 C 
ENDROOT
BRANCH   2  10
HETATM   10  N   UNL     1      42.284 -11.260   3.289  1.00  0.00    -0.319 N 
HETATM   11  C   UNL     1      41.662 -11.203   4.510  1.00  0.00     0.248 C 
HETATM   12  O   UNL     1      40.472 -11.372   4.756  1.00  0.00    -0.271 OA
HETATM   13  H   UNL     1      43.187 -10.816   3.143  1.00  0.00     0.169 HD
BRANCH  11  14
HETATM   14  C   UNL     1      42.591 -10.835   5.662  1.00  0.00     0.335 C 
BRANCH  14  15
HETATM   15  N   UNL     1      42.618 -11.919   6.706  1.00  0.00    -0.063 N 
HETATM   16  H   UNL     1      42.003 -11.683   7.494  1.00  0.00     0.278 HD
HETATM   17  H   UNL     1      42.218 -12.766   6.265  1.00  0.00     0.278 HD
BRANCH  15  18
HETATM   18  C   UNL     1      43.973 -12.294   7.212  1.00  0.00     0.272 C 
BRANCH  18  19
HETATM   19  C   UNL     1      44.629 -11.123   7.874  1.00  0.00    -0.015 A 
HETATM   20  C   UNL     1      44.042 -10.495   8.967  1.00  0.00     0.125 A 
HETATM   21  N   UNL     1      44.546  -9.392   9.556  1.00  0.00    -0.273 NA
HETATM   22  C   UNL     1      45.700  -8.893   9.061  1.00  0.00     0.116 A 
HETATM   23  C   UNL     1      46.367  -9.445   7.984  1.00  0.00     0.020 A 
HETATM   24  C   UNL     1      45.821 -10.574   7.379  1.00  0.00     0.012 A 
ENDBRANCH  18  19
ENDBRANCH  15  18
ENDBRANCH  14  15
ENDBRANCH  11  14
ENDBRANCH   2  10
BRANCH   1  25
HETATM   25  C   UNL     1      41.406 -14.255   2.423  1.00  0.00     0.259 C 
HETATM   26  N   UNL     1      42.694 -14.759   2.417  1.00  0.00    -0.322 N 
HETATM   27  H   UNL     1      43.258 -14.428   1.645  1.00  0.00     0.169 HD
HETATM   28  O   UNL     1      40.406 -14.777   2.901  1.00  0.00    -0.267 OA
BRANCH  26  29
HETATM   29  C   UNL     1      43.061 -16.010   2.957  1.00  0.00     0.041 A 
HETATM   30  C   UNL     1      43.306 -16.241   4.319  1.00  0.00    -0.035 A 
HETATM   31  C   UNL     1      43.618 -17.550   4.739  1.00  0.00     0.015 A 
HETATM   32  C   UNL     1      43.315 -15.156   5.360  1.00  0.00     0.050 C 
HETATM   33  C   UNL     1      43.742 -18.603   3.825  1.00  0.00    -0.061 A 
HETATM   34  C   UNL     1      44.070 -19.993   4.287  1.00  0.00     0.048 C 
HETATM   35  C   UNL     1      43.550 -18.344   2.468  1.00  0.00     0.009 A 
HETATM   36  C   UNL     1      43.229 -17.056   2.038  1.00  0.00     0.030 A 
ENDBRANCH  26  29
ENDBRANCH   1  25
BRANCH   8  37
HETATM   37  C   UNL     1      38.061 -12.016  -2.105  1.00  0.00    -0.047 C 
HETATM   38  C   UNL     1      37.601 -11.753  -0.663  1.00  0.00     0.015 C 
HETATM   39  C   UNL     1      37.529 -10.857  -2.980  1.00  0.00     0.015 C 
HETATM   40  C   UNL     1      37.357 -13.303  -2.598  1.00  0.00     0.015 C 
ENDBRANCH   8  37
TORSDOF 8
ENDMDL
MODEL 3
REMARK VINA RESULT:      -9.1      2.483      6.755
REMARK  8 active torsions:
REMARK  status: ('A' for Active; 'I' for Inactive)
REMARK    1  A    between atoms: C_6  and  N_7 
REMARK       I    between atoms: N_7  and  C_8 
REMARK    2  A    between atoms: C_8  and  C_9 
REMARK    3  A    between atoms: C_10  and  N_11 
REMARK       I    between atoms: N_11  and  C_12 
REMARK    4  A    between atoms: C_12  and  C_13 
REMARK    5  A    between atoms: C_13  and  N_14 
REMARK    6  A    between atoms: N_14  and  C_17 
REMARK    7  A    between atoms: C_17  and  C_18 
REMARK    8  A    between atoms: C_30  and  C_31 
ROOT
HETATM    1  C   UNL     1      42.651 -12.686   5.179  1.00  0.00     0.073 A 
HETATM    2  C   UNL     1      42.981 -12.919   6.501  1.00  0.00     0.093 A 
HETATM    3  S   UNL     1      42.748 -14.542   6.968  1.00  0.00    -0.075 SA
HETATM    4  C   UNL     1      42.215 -14.976   5.420  1.00  0.00    -0.008 A 
HETATM    5  C   UNL     1      42.167 -13.903   4.556  1.00  0.00    -0.026 A 
HETATM    6  C   UNL     1      41.644 -14.045   3.155  1.00  0.00     0.041 C 
HETATM    7  C   UNL     1      40.993 -15.417   2.893  1.00  0.00     0.010 C 
HETATM    8  C   UNL     1      41.661 -16.638   3.592  1.00  0.00    -0.002 C 
HETATM    9  C   UNL     1      41.764 -16.368   5.116  1.00  0.00     0.052 C 
ENDROOT
BRANCH   2  10
HETATM   10  N   UNL     1      43.432 -12.174   7.567  1.00  0.00    -0.319 N 
HETATM   11  C   UNL     1      44.603 -11.459   7.595  1.00  0.00     0.248 C 
HETATM   12  O   UNL     1      45.539 -11.520   6.804  1.00  0.00    -0.271 OA
HETATM   13  H   UNL     1      42.867 -12.281   8.405  1.00  0.00     0.169 HD
BRANCH  11  14
HETATM   14  C   UNL     1      44.732 -10.527   8.794  1.00  0.00     0.335 C 
BRANCH  14  15
HETATM   15  N   UNL     1      43.529 -10.625   9.693  1.00  0.00    -0.063 N 
HETATM   16  H   UNL     1      42.908  -9.818   9.561  1.00  0.00     0.278 HD
HETATM   17  H   UNL     1      42.996 -11.458   9.385  1.00  0.00     0.278 HD
BRANCH  15  18
HETATM   18  C   UNL     1      43.821 -10.811  11.145  1.00  0.00     0.272 C 
BRANCH  18  19
HETATM   19  C   UNL     1      43.082  -9.800  11.964  1.00  0.00    -0.015 A 
HETATM   20  C   UNL     1      41.824 -10.082  12.487  1.00  0.00     0.125 A 
HETATM   21  N   UNL     1      41.078  -9.187  13.166  1.00  0.00    -0.273 NA
HETATM   22  C   UNL     1      41.604  -7.959  13.363  1.00  0.00     0.116 A 
HETATM   23  C   UNL     1      42.847  -7.579  12.892  1.00  0.00     0.020 A 
HETATM   24  C   UNL     1      43.595  -8.512  12.179  1.00  0.00     0.012 A 
ENDBRANCH  18  19
ENDBRANCH  15  18
ENDBRANCH  14  15
ENDBRANCH  11  14
ENDBRANCH   2  10
BRANCH   1  25
HETATM   25  C   UNL     1      42.690 -11.384   4.515  1.00  0.00     0.259 C 
HETATM   26  N   UNL     1      41.467 -10.739   4.576  1.00  0.00    -0.322 N 
HETATM   27  H   UNL     1      40.684 -11.364   4.716  1.00  0.00     0.169 HD
HETATM   28  O   UNL     1      43.699 -11.010   3.929  1.00  0.00    -0.267 OA
BRANCH  26  29
HETATM   29  C   UNL     1      41.177  -9.523   3.924  1.00  0.00     0.041 A 
HETATM   30  C   UNL     1      40.742  -9.425   2.592  1.00  0.00    -0.035 A 
HETATM   31  C   UNL     1      40.438  -8.151   2.071  1.00  0.00     0.015 A 
HETATM   32  C   UNL     1      40.637 -10.600   1.662  1.00  0.00     0.050 C 
HETATM   33  C   UNL     1      40.612  -6.987   2.830  1.00  0.00    -0.061 A 
HETATM   34  C   UNL     1      40.280  -5.638   2.264  1.00  0.00     0.048 C 
HETATM   35  C   UNL     1      41.098  -7.098   4.132  1.00  0.00     0.009 A 
HETATM   36  C   UNL     1      41.393  -8.353   4.667  1.00  0.00     0.030 A 
ENDBRANCH  26  29
ENDBRANCH   1  25
BRANCH   8  37
HETATM   37  C   UNL     1      42.955 -17.215   2.892  1.00  0.00    -0.047 C 
HETATM   38  C   UNL     1      43.554 -16.300   1.812  1.00  0.00     0.015 C 
HETATM   39  C   UNL     1      44.066 -17.503   3.927  1.00  0.00     0.015 C 
HETATM   40  C   UNL     1      42.608 -18.568   2.224  1.00  0.00     0.015 C 
ENDBRANCH   8  37
TORSDOF 8
ENDMDL
MODEL 4
REMARK VINA RESULT:      -8.9      3.092      6.666
REMARK  8 active torsions:
REMARK  status: ('A' for Active; 'I' for Inactive)
REMARK    1  A    between atoms: C_6  and  N_7 
REMARK       I    between atoms: N_7  and  C_8 
REMARK    2  A    between atoms: C_8  and  C_9 
REMARK    3  A    between atoms: C_10  and  N_11 
REMARK       I    between atoms: N_11  and  C_12 
REMARK    4  A    between atoms: C_12  and  C_13 
REMARK    5  A    between atoms: C_13  and  N_14 
REMARK    6  A    between atoms: N_14  and  C_17 
REMARK    7  A    between atoms: C_17  and  C_18 
REMARK    8  A    between atoms: C_30  and  C_31 
ROOT
HETATM    1  C   UNL     1      42.499 -12.594   5.724  1.00  0.00     0.073 A 
HETATM    2  C   UNL     1      43.594 -12.853   6.526  1.00  0.00     0.093 A 
HETATM    3  S   UNL     1      43.982 -14.511   6.607  1.00  0.00    -0.075 SA
HETATM    4  C   UNL     1      42.709 -14.923   5.569  1.00  0.00    -0.008 A 
HETATM    5  C   UNL     1      41.960 -13.830   5.188  1.00  0.00    -0.026 A 
HETATM    6  C   UNL     1      40.732 -13.976   4.335  1.00  0.00     0.041 C 
HETATM    7  C   UNL     1      40.310 -15.445   4.138  1.00  0.00     0.010 C 
HETATM    8  C   UNL     1      41.467 -16.480   4.005  1.00  0.00    -0.002 C 
HETATM    9  C   UNL     1      42.419 -16.348   5.222  1.00  0.00     0.052 C 
ENDROOT
BRANCH   2  10
HETATM   10  N   UNL     1      44.458 -12.120   7.309  1.00  0.00    -0.319 N 
HETATM   11  C   UNL     1      45.391 -11.230   6.840  1.00  0.00     0.248 C 
HETATM   12  O   UNL     1      45.776 -11.085   5.684  1.00  0.00    -0.271 OA
HETATM   13  H   UNL     1      44.429 -12.374   8.292  1.00  0.00     0.169 HD
BRANCH  11  14
HETATM   14  C   UNL     1      46.033 -10.375   7.926  1.00  0.00     0.335 C 
BRANCH  14  15
HETATM   15  N   UNL     1      44.994  -9.798   8.850  1.00  0.00    -0.063 N 
HETATM   16  H   UNL     1      44.872  -8.793   8.680  1.00  0.00     0.278 HD
HETATM   17  H   UNL     1      44.095 -10.248   8.603  1.00  0.00     0.278 HD
BRANCH  15  18
HETATM   18  C   UNL     1      45.217 -10.046  10.306  1.00  0.00     0.272 C 
BRANCH  18  19
HETATM   19  C   UNL     1      44.026  -9.611  11.101  1.00  0.00    -0.015 A 
HETATM   20  C   UNL     1      43.316 -10.516  11.881  1.00  0.00     0.125 A 
HETATM   21  N   UNL     1      42.192 -10.201  12.558  1.00  0.00    -0.273 NA
HETATM   22  C   UNL     1      41.757  -8.925  12.484  1.00  0.00     0.116 A 
HETATM   23  C   UNL     1      42.394  -7.946  11.743  1.00  0.00     0.020 A 
HETATM   24  C   UNL     1      43.542  -8.296  11.038  1.00  0.00     0.012 A 
ENDBRANCH  18  19
ENDBRANCH  15  18
ENDBRANCH  14  15
ENDBRANCH  11  14
ENDBRANCH   2  10
BRANCH   1  25
HETATM   25  C   UNL     1      41.899 -11.277   5.512  1.00  0.00     0.259 C 
HETATM   26  N   UNL     1      40.819 -11.064   6.351  1.00  0.00    -0.322 N 
HETATM   27  H   UNL     1      40.392 -11.916   6.690  1.00  0.00     0.169 HD
HETATM   28  O   UNL     1      42.308 -10.538   4.624  1.00  0.00    -0.267 OA
BRANCH  26  29
HETATM   29  C   UNL     1      39.978  -9.933   6.290  1.00  0.00     0.041 A 
HETATM   30  C   UNL     1      40.078  -8.828   7.150  1.00  0.00    -0.035 A 
HETATM   31  C   UNL     1      39.206  -7.737   6.955  1.00  0.00     0.015 A 
HETATM   32  C   UNL     1      41.027  -8.760   8.313  1.00  0.00     0.050 C 
HETATM   33  C   UNL     1      38.215  -7.758   5.966  1.00  0.00    -0.061 A 
HETATM   34  C   UNL     1      37.297  -6.587   5.767  1.00  0.00     0.048 C 
HETATM   35  C   UNL     1      38.093  -8.888   5.157  1.00  0.00     0.009 A 
HETATM   36  C   UNL     1      38.956  -9.971   5.330  1.00  0.00     0.030 A 
ENDBRANCH  26  29
ENDBRANCH   1  25
BRANCH   8  37
HETATM   37  C   UNL     1      42.150 -16.576   2.584  1.00  0.00    -0.047 C 
HETATM   38  C   UNL     1      43.335 -15.618   2.383  1.00  0.00     0.015 C 
HETATM   39  C   UNL     1      42.659 -18.010   2.308  1.00  0.00     0.015 C 
HETATM   40  C   UNL     1      41.098 -16.261   1.494  1.00  0.00     0.015 C 
ENDBRANCH   8  37
TORSDOF 8
ENDMDL
MODEL 5
REMARK VINA RESULT:      -8.8      2.408      8.328
REMARK  8 active torsions:
REMARK  status: ('A' for Active; 'I' for Inactive)
REMARK    1  A    between atoms: C_6  and  N_7 
REMARK       I    between atoms: N_7  and  C_8 
REMARK    2  A    between atoms: C_8  and  C_9 
REMARK    3  A    between atoms: C_10  and  N_11 
REMARK       I    between atoms: N_11  and  C_12 
REMARK    4  A    between atoms: C_12  and  C_13 
REMARK    5  A    between atoms: C_13  and  N_14 
REMARK    6  A    between atoms: N_14  and  C_17 
REMARK    7  A    between atoms: C_17  and  C_18 
REMARK    8  A    between atoms: C_30  and  C_31 
ROOT
HETATM    1  C   UNL     1      42.452 -11.830   4.990  1.00  0.00     0.073 A 
HETATM    2  C   UNL     1      41.480 -10.945   4.562  1.00  0.00     0.093 A 
HETATM    3  S   UNL     1      41.086  -9.772   5.735  1.00  0.00    -0.075 SA
HETATM    4  C   UNL     1      42.209 -10.404   6.834  1.00  0.00    -0.008 A 
HETATM    5  C   UNL     1      42.855 -11.521   6.349  1.00  0.00    -0.026 A 
HETATM    6  C   UNL     1      43.831 -12.292   7.191  1.00  0.00     0.041 C 
HETATM    7  C   UNL     1      43.849 -11.833   8.662  1.00  0.00     0.010 C 
HETATM    8  C   UNL     1      43.660 -10.306   8.906  1.00  0.00    -0.002 C 
HETATM    9  C   UNL     1      42.362  -9.828   8.205  1.00  0.00     0.052 C 
ENDROOT
BRANCH   2  10
HETATM   10  N   UNL     1      40.713 -10.770   3.432  1.00  0.00    -0.319 N 
HETATM   11  C   UNL     1      41.201 -10.621   2.159  1.00  0.00     0.248 C 
HETATM   12  O   UNL     1      42.360 -10.401   1.819  1.00  0.00    -0.271 OA
HETATM   13  H   UNL     1      39.724 -10.645   3.628  1.00  0.00     0.169 HD
BRANCH  11  14
HETATM   14  C   UNL     1      40.134 -10.699   1.072  1.00  0.00     0.335 C 
BRANCH  14  15
HETATM   15  N   UNL     1      39.875 -12.125   0.665  1.00  0.00    -0.063 N 
HETATM   16  H   UNL     1      40.089 -12.769   1.435  1.00  0.00     0.278 HD
HETATM   17  H   UNL     1      38.857 -12.203   0.492  1.00  0.00     0.278 HD
BRANCH  15  18
HETATM   18  C   UNL     1      40.562 -12.574  -0.582  1.00  0.00     0.272 C 
BRANCH  18  19
HETATM   19  C   UNL     1      39.575 -13.156  -1.545  1.00  0.00    -0.015 A 
HETATM   20  C   UNL     1      39.973 -14.067  -2.518  1.00  0.00     0.125 A 
HETATM   21  N   UNL     1      39.147 -14.565  -3.459  1.00  0.00    -0.273 NA
HETATM   22  C   UNL     1      37.856 -14.168  -3.430  1.00  0.00     0.116 A 
HETATM   23  C   UNL     1      37.357 -13.273  -2.502  1.00  0.00     0.020 A 
HETATM   24  C   UNL     1      38.230 -12.757  -1.549  1.00  0.00     0.012 A 
ENDBRANCH  18  19
ENDBRANCH  15  18
ENDBRANCH  14  15
ENDBRANCH  11  14
ENDBRANCH   2  10
BRANCH   1  25
HETATM   25  C   UNL     1      42.948 -12.974   4.227  1.00  0.00     0.259 C 
HETATM   26  N   UNL     1      42.346 -14.155   4.624  1.00  0.00    -0.322 N 
HETATM   27  H   UNL     1      41.968 -14.125   5.562  1.00  0.00     0.169 HD
HETATM   28  O   UNL     1      43.847 -12.838   3.406  1.00  0.00    -0.267 OA
BRANCH  26  29
HETATM   29  C   UNL     1      42.709 -15.432   4.146  1.00  0.00     0.041 A 
HETATM   30  C   UNL     1      43.525 -16.334   4.846  1.00  0.00    -0.035 A 
HETATM   31  C   UNL     1      43.775 -17.601   4.280  1.00  0.00     0.015 A 
HETATM   32  C   UNL     1      44.203 -16.008   6.147  1.00  0.00     0.050 C 
HETATM   33  C   UNL     1      43.276 -17.953   3.020  1.00  0.00    -0.061 A 
HETATM   34  C   UNL     1      43.546 -19.307   2.432  1.00  0.00     0.048 C 
HETATM   35  C   UNL     1      42.514 -17.023   2.313  1.00  0.00     0.009 A 
HETATM   36  C   UNL     1      42.247 -15.769   2.865  1.00  0.00     0.030 A 
ENDBRANCH  26  29
ENDBRANCH   1  25
BRANCH   8  37
HETATM   37  C   UNL     1      44.943  -9.408   8.700  1.00  0.00    -0.047 C 
HETATM   38  C   UNL     1      45.845  -9.845   7.536  1.00  0.00     0.015 C 
HETATM   39  C   UNL     1      44.554  -7.931   8.458  1.00  0.00     0.015 C 
HETATM   40  C   UNL     1      45.794  -9.436   9.993  1.00  0.00     0.015 C 
ENDBRANCH   8  37
TORSDOF 8
ENDMDL
MODEL 6
REMARK VINA RESULT:      -8.6      3.479      7.332
REMARK  8 active torsions:
REMARK  status: ('A' for Active; 'I' for Inactive)
REMARK    1  A    between atoms: C_6  and  N_7 
REMARK       I    between atoms: N_7  and  C_8 
REMARK    2  A    between atoms: C_8  and  C_9 
REMARK    3  A    between atoms: C_10  and  N_11 
REMARK       I    between atoms: N_11  and  C_12 
REMARK    4  A    between atoms: C_12  and  C_13 
REMARK    5  A    between atoms: C_13  and  N_14 
REMARK    6  A    between atoms: N_14  and  C_17 
REMARK    7  A    between atoms: C_17  and  C_18 
REMARK    8  A    between atoms: C_30  and  C_31 
ROOT
HETATM    1  C   UNL     1      40.984 -12.910   2.862  1.00  0.00     0.073 A 
HETATM    2  C   UNL     1      40.349 -12.512   1.701  1.00  0.00     0.093 A 
HETATM    3  S   UNL     1      39.141 -11.340   1.971  1.00  0.00    -0.075 SA
HETATM    4  C   UNL     1      39.441 -11.326   3.638  1.00  0.00    -0.008 A 
HETATM    5  C   UNL     1      40.416 -12.227   4.009  1.00  0.00    -0.026 A 
HETATM    6  C   UNL     1      40.783 -12.439   5.451  1.00  0.00     0.041 C 
HETATM    7  C   UNL     1      39.824 -11.726   6.425  1.00  0.00     0.010 C 
HETATM    8  C   UNL     1      39.285 -10.340   5.965  1.00  0.00    -0.002 C 
HETATM    9  C   UNL     1      38.630 -10.479   4.566  1.00  0.00     0.052 C 
ENDROOT
BRANCH   2  10
HETATM   10  N   UNL     1      40.417 -12.830   0.363  1.00  0.00    -0.319 N 
HETATM   11  C   UNL     1      40.094 -14.049  -0.178  1.00  0.00     0.248 C 
HETATM   12  O   UNL     1      39.907 -15.108   0.413  1.00  0.00    -0.271 OA
HETATM   13  H   UNL     1      40.842 -12.104  -0.206  1.00  0.00     0.169 HD
BRANCH  11  14
HETATM   14  C   UNL     1      40.015 -14.050  -1.701  1.00  0.00     0.335 C 
BRANCH  14  15
HETATM   15  N   UNL     1      40.961 -13.042  -2.296  1.00  0.00    -0.063 N 
HETATM   16  H   UNL     1      41.606 -12.681  -1.584  1.00  0.00     0.278 HD
HETATM   17  H   UNL     1      41.541 -13.552  -2.986  1.00  0.00     0.278 HD
BRANCH  15  18
HETATM   18  C   UNL     1      40.320 -11.907  -3.025  1.00  0.00     0.272 C 
BRANCH  18  19
HETATM   19  C   UNL     1      41.016 -10.620  -2.711  1.00  0.00    -0.015 A 
HETATM   20  C   UNL     1      41.709 -10.452  -1.517  1.00  0.00     0.125 A 
HETATM   21  N   UNL     1      42.290  -9.293  -1.146  1.00  0.00    -0.273 NA
HETATM   22  C   UNL     1      42.208  -8.252  -2.002  1.00  0.00     0.116 A 
HETATM   23  C   UNL     1      41.549  -8.316  -3.216  1.00  0.00     0.020 A 
HETATM   24  C   UNL     1      40.941  -9.516  -3.574  1.00  0.00     0.012 A 
ENDBRANCH  18  19
ENDBRANCH  15  18
ENDBRANCH  14  15
ENDBRANCH  11  14
ENDBRANCH   2  10
BRANCH   1  25
HETATM   25  C   UNL     1      42.017 -13.941   2.950  1.00  0.00     0.259 C 
HETATM   26  N   UNL     1      41.478 -15.187   3.217  1.00  0.00    -0.322 N 
HETATM   27  H   UNL     1      40.568 -15.151   3.659  1.00  0.00     0.169 HD
HETATM   28  O   UNL     1      43.204 -13.647   2.866  1.00  0.00    -0.267 OA
BRANCH  26  29
HETATM   29  C   UNL     1      42.241 -16.346   3.470  1.00  0.00     0.041 A 
HETATM   30  C   UNL     1      42.807 -16.663   4.715  1.00  0.00    -0.035 A 
HETATM   31  C   UNL     1      43.509 -17.878   4.851  1.00  0.00     0.015 A 
HETATM   32  C   UNL     1      42.759 -15.750   5.909  1.00  0.00     0.050 C 
HETATM   33  C   UNL     1      43.700 -18.740   3.764  1.00  0.00    -0.061 A 
HETATM   34  C   UNL     1      44.445 -20.033   3.925  1.00  0.00     0.048 C 
HETATM   35  C   UNL     1      43.179 -18.383   2.520  1.00  0.00     0.009 A 
HETATM   36  C   UNL     1      42.471 -17.189   2.372  1.00  0.00     0.030 A 
ENDBRANCH  26  29
ENDBRANCH   1  25
BRANCH   8  37
HETATM   37  C   UNL     1      40.262  -9.115   6.166  1.00  0.00    -0.047 C 
HETATM   38  C   UNL     1      41.142  -8.798   4.947  1.00  0.00     0.015 C 
HETATM   39  C   UNL     1      39.478  -7.830   6.520  1.00  0.00     0.015 C 
HETATM   40  C   UNL     1      41.200  -9.407   7.362  1.00  0.00     0.015 C 
ENDBRANCH   8  37
TORSDOF 8
ENDMDL
MODEL 7
REMARK VINA RESULT:      -8.5      2.529      7.041
REMARK  8 active torsions:
REMARK  status: ('A' for Active; 'I' for Inactive)
REMARK    1  A    between atoms: C_6  and  N_7 
REMARK       I    between atoms: N_7  and  C_8 
REMARK    2  A    between atoms: C_8  and  C_9 
REMARK    3  A    between atoms: C_10  and  N_11 
REMARK       I    between atoms: N_11  and  C_12 
REMARK    4  A    between atoms: C_12  and  C_13 
REMARK    5  A    between atoms: C_13  and  N_14 
REMARK    6  A    between atoms: N_14  and  C_17 
REMARK    7  A    between atoms: C_17  and  C_18 
REMARK    8  A    between atoms: C_30  and  C_31 
ROOT
HETATM    1  C   UNL     1      40.244 -12.412   4.177  1.00  0.00     0.073 A 
HETATM    2  C   UNL     1      40.262 -12.425   5.559  1.00  0.00     0.093 A 
HETATM    3  S   UNL     1      40.471 -13.988   6.207  1.00  0.00    -0.075 SA
HETATM    4  C   UNL     1      40.555 -14.683   4.665  1.00  0.00    -0.008 A 
HETATM    5  C   UNL     1      40.385 -13.759   3.656  1.00  0.00    -0.026 A 
HETATM    6  C   UNL     1      40.341 -14.170   2.212  1.00  0.00     0.041 C 
HETATM    7  C   UNL     1      40.285 -15.699   2.025  1.00  0.00     0.010 C 
HETATM    8  C   UNL     1      41.108 -16.545   3.040  1.00  0.00    -0.002 C 
HETATM    9  C   UNL     1      40.698 -16.161   4.485  1.00  0.00     0.052 C 
ENDROOT
BRANCH   2  10
HETATM   10  N   UNL     1      40.131 -11.501   6.571  1.00  0.00    -0.319 N 
HETATM   11  C   UNL     1      40.973 -10.441   6.789  1.00  0.00     0.248 C 
HETATM   12  O   UNL     1      42.078 -10.244   6.293  1.00  0.00    -0.271 OA
HETATM   13  H   UNL     1      39.397 -11.729   7.236  1.00  0.00     0.169 HD
BRANCH  11  14
HETATM   14  C   UNL     1      40.455  -9.437   7.813  1.00  0.00     0.335 C 
BRANCH  14  15
HETATM   15  N   UNL     1      40.874  -9.816   9.208  1.00  0.00    -0.063 N 
HETATM   16  H   UNL     1      40.056  -9.945   9.813  1.00  0.00     0.278 HD
HETATM   17  H   UNL     1      41.336 -10.740   9.138  1.00  0.00     0.278 HD
BRANCH  15  18
HETATM   18  C   UNL     1      41.850  -8.893   9.861  1.00  0.00     0.272 C 
BRANCH  18  19
HETATM   19  C   UNL     1      43.247  -9.215   9.431  1.00  0.00    -0.015 A 
HETATM   20  C   UNL     1      43.821 -10.447   9.722  1.00  0.00     0.125 A 
HETATM   21  N   UNL     1      45.098 -10.766   9.429  1.00  0.00    -0.273 NA
HETATM   22  C   UNL     1      45.844  -9.835   8.795  1.00  0.00     0.116 A 
HETATM   23  C   UNL     1      45.367  -8.582   8.454  1.00  0.00     0.020 A 
HETATM   24  C   UNL     1      44.051  -8.266   8.781  1.00  0.00     0.012 A 
ENDBRANCH  18  19
ENDBRANCH  15  18
ENDBRANCH  14  15
ENDBRANCH  11  14
ENDBRANCH   2  10
BRANCH   1  25
HETATM   25  C   UNL     1      40.023 -11.230   3.345  1.00  0.00     0.259 C 
HETATM   26  N   UNL     1      38.676 -11.014   3.110  1.00  0.00    -0.322 N 
HETATM   27  H   UNL     1      38.106 -11.844   3.209  1.00  0.00     0.169 HD
HETATM   28  O   UNL     1      40.968 -10.603   2.883  1.00  0.00    -0.267 OA
BRANCH  26  29
HETATM   29  C   UNL     1      38.170 -10.018   2.248  1.00  0.00     0.041 A 
HETATM   30  C   UNL     1      37.841 -10.233   0.901  1.00  0.00    -0.035 A 
HETATM   31  C   UNL     1      37.297  -9.165   0.157  1.00  0.00     0.015 A 
HETATM   32  C   UNL     1      38.090 -11.527   0.178  1.00  0.00     0.050 C 
HETATM   33  C   UNL     1      37.133  -7.892   0.716  1.00  0.00    -0.061 A 
HETATM   34  C   UNL     1      36.548  -6.766  -0.086  1.00  0.00     0.048 C 
HETATM   35  C   UNL     1      37.517  -7.681   2.040  1.00  0.00     0.009 A 
HETATM   36  C   UNL     1      38.046  -8.731   2.793  1.00  0.00     0.030 A 
ENDBRANCH  26  29
ENDBRANCH   1  25
BRANCH   8  37
HETATM   37  C   UNL     1      42.658 -16.653   2.755  1.00  0.00    -0.047 C 
HETATM   38  C   UNL     1      43.552 -16.206   3.922  1.00  0.00     0.015 C 
HETATM   39  C   UNL     1      43.057 -18.103   2.393  1.00  0.00     0.015 C 
HETATM   40  C   UNL     1      43.010 -15.777   1.528  1.00  0.00     0.015 C 
ENDBRANCH   8  37
TORSDOF 8
ENDMDL
MODEL 8
REMARK VINA RESULT:      -8.5      4.296      8.606
REMARK  8 active torsions:
REMARK  status: ('A' for Active; 'I' for Inactive)
REMARK    1  A    between atoms: C_6  and  N_7 
REMARK       I    between atoms: N_7  and  C_8 
REMARK    2  A    between atoms: C_8  and  C_9 
REMARK    3  A    between atoms: C_10  and  N_11 
REMARK       I    between atoms: N_11  and  C_12 
REMARK    4  A    between atoms: C_12  and  C_13 
REMARK    5  A    between atoms: C_13  and  N_14 
REMARK    6  A    between atoms: N_14  and  C_17 
REMARK    7  A    between atoms: C_17  and  C_18 
REMARK    8  A    between atoms: C_30  and  C_31 
ROOT
HETATM    1  C   UNL     1      41.955  -9.495   7.660  1.00  0.00     0.073 A 
HETATM    2  C   UNL     1      41.023  -8.904   6.827  1.00  0.00     0.093 A 
HETATM    3  S   UNL     1      40.974  -9.610   5.276  1.00  0.00    -0.075 SA
HETATM    4  C   UNL     1      42.183 -10.726   5.678  1.00  0.00    -0.008 A 
HETATM    5  C   UNL     1      42.660 -10.552   6.960  1.00  0.00    -0.026 A 
HETATM    6  C   UNL     1      43.794 -11.379   7.496  1.00  0.00     0.041 C 
HETATM    7  C   UNL     1      44.468 -12.246   6.415  1.00  0.00     0.010 C 
HETATM    8  C   UNL     1      43.526 -12.844   5.329  1.00  0.00    -0.002 C 
HETATM    9  C   UNL     1      42.704 -11.704   4.674  1.00  0.00     0.052 C 
ENDROOT
BRANCH   2  10
HETATM   10  N   UNL     1      40.123  -7.865   6.908  1.00  0.00    -0.319 N 
HETATM   11  C   UNL     1      39.146  -7.736   7.862  1.00  0.00     0.248 C 
HETATM   12  O   UNL     1      38.752  -8.587   8.654  1.00  0.00    -0.271 OA
HETATM   13  H   UNL     1      40.167  -7.228   6.118  1.00  0.00     0.169 HD
BRANCH  11  14
HETATM   14  C   UNL     1      38.462  -6.374   7.869  1.00  0.00     0.335 C 
BRANCH  14  15
HETATM   15  N   UNL     1      39.304  -5.345   8.576  1.00  0.00    -0.063 N 
HETATM   16  H   UNL     1      40.289  -5.631   8.594  1.00  0.00     0.278 HD
HETATM   17  H   UNL     1      39.259  -4.483   8.005  1.00  0.00     0.278 HD
BRANCH  15  18
HETATM   18  C   UNL     1      38.853  -4.978   9.952  1.00  0.00     0.272 C 
BRANCH  18  19
HETATM   19  C   UNL     1      39.986  -5.090  10.923  1.00  0.00    -0.015 A 
HETATM   20  C   UNL     1      39.828  -4.723  12.255  1.00  0.00     0.125 A 
HETATM   21  N   UNL     1      40.830  -4.729  13.157  1.00  0.00    -0.273 NA
HETATM   22  C   UNL     1      42.045  -5.141  12.736  1.00  0.00     0.116 A 
HETATM   23  C   UNL     1      42.307  -5.535  11.437  1.00  0.00     0.020 A 
HETATM   24  C   UNL     1      41.263  -5.505  10.516  1.00  0.00     0.012 A 
ENDBRANCH  18  19
ENDBRANCH  15  18
ENDBRANCH  14  15
ENDBRANCH  11  14
ENDBRANCH   2  10
BRANCH   1  25
HETATM   25  C   UNL     1      42.262  -9.066   9.023  1.00  0.00     0.259 C 
HETATM   26  N   UNL     1      41.456  -9.698   9.954  1.00  0.00    -0.322 N 
HETATM   27  H   UNL     1      40.585 -10.044   9.571  1.00  0.00     0.169 HD
HETATM   28  O   UNL     1      43.092  -8.190   9.232  1.00  0.00    -0.267 OA
BRANCH  26  29
HETATM   29  C   UNL     1      41.447  -9.398  11.332  1.00  0.00     0.041 A 
HETATM   30  C   UNL     1      42.452  -9.789  12.231  1.00  0.00    -0.035 A 
HETATM   31  C   UNL     1      42.352  -9.384  13.578  1.00  0.00     0.015 A 
HETATM   32  C   UNL     1      43.610 -10.670  11.855  1.00  0.00     0.050 C 
HETATM   33  C   UNL     1      41.251  -8.654  14.044  1.00  0.00    -0.061 A 
HETATM   34  C   UNL     1      41.159  -8.226  15.479  1.00  0.00     0.048 C 
HETATM   35  C   UNL     1      40.233  -8.323  13.149  1.00  0.00     0.009 A 
HETATM   36  C   UNL     1      40.324  -8.707  11.809  1.00  0.00     0.030 A 
ENDBRANCH  26  29
ENDBRANCH   1  25
BRANCH   8  37
HETATM   37  C   UNL     1      42.725 -14.140   5.745  1.00  0.00    -0.047 C 
HETATM   38  C   UNL     1      43.205 -14.792   7.050  1.00  0.00     0.015 C 
HETATM   39  C   UNL     1      41.218 -13.834   5.904  1.00  0.00     0.015 C 
HETATM   40  C   UNL     1      42.847 -15.194   4.618  1.00  0.00     0.015 C 
ENDBRANCH   8  37
TORSDOF 8
ENDMDL
MODEL 9
REMARK VINA RESULT:      -8.5      3.179      7.200
REMARK  8 active torsions:
REMARK  status: ('A' for Active; 'I' for Inactive)
REMARK    1  A    between atoms: C_6  and  N_7 
REMARK       I    between atoms: N_7  and  C_8 
REMARK    2  A    between atoms: C_8  and  C_9 
REMARK    3  A    between atoms: C_10  and  N_11 
REMARK       I    between atoms: N_11  and  C_12 
REMARK    4  A    between atoms: C_12  and  C_13 
REMARK    5  A    between atoms: C_13  and  N_14 
REMARK    6  A    between atoms: N_14  and  C_17 
REMARK    7  A    between atoms: C_17  and  C_18 
REMARK    8  A    between atoms: C_30  and  C_31 
ROOT
HETATM    1  C   UNL     1      39.915 -12.443   3.383  1.00  0.00     0.073 A 
HETATM    2  C   UNL     1      40.096 -12.100   4.710  1.00  0.00     0.093 A 
HETATM    3  S   UNL     1      40.555 -13.424   5.682  1.00  0.00    -0.075 SA
HETATM    4  C   UNL     1      40.536 -14.482   4.359  1.00  0.00    -0.008 A 
HETATM    5  C   UNL     1      40.146 -13.862   3.191  1.00  0.00    -0.026 A 
HETATM    6  C   UNL     1      39.979 -14.632   1.911  1.00  0.00     0.041 C 
HETATM    7  C   UNL     1      40.075 -16.157   2.111  1.00  0.00     0.010 C 
HETATM    8  C   UNL     1      41.102 -16.646   3.174  1.00  0.00    -0.002 C 
HETATM    9  C   UNL     1      40.823 -15.939   4.526  1.00  0.00     0.052 C 
ENDROOT
BRANCH   2  10
HETATM   10  N   UNL     1      39.981 -10.962   5.475  1.00  0.00    -0.319 N 
HETATM   11  C   UNL     1      39.039 -10.756   6.451  1.00  0.00     0.248 C 
HETATM   12  O   UNL     1      38.028 -11.416   6.671  1.00  0.00    -0.271 OA
HETATM   13  H   UNL     1      40.599 -10.211   5.181  1.00  0.00     0.169 HD
BRANCH  11  14
HETATM   14  C   UNL     1      39.296  -9.523   7.310  1.00  0.00     0.335 C 
BRANCH  14  15
HETATM   15  N   UNL     1      39.905  -9.898   8.634  1.00  0.00    -0.063 N 
HETATM   16  H   UNL     1      39.876 -10.915   8.774  1.00  0.00     0.278 HD
HETATM   17  H   UNL     1      40.906  -9.637   8.585  1.00  0.00     0.278 HD
BRANCH  15  18
HETATM   18  C   UNL     1      39.334  -9.203   9.827  1.00  0.00     0.272 C 
BRANCH  18  19
HETATM   19  C   UNL     1      40.237  -9.362  11.010  1.00  0.00    -0.015 A 
HETATM   20  C   UNL     1      41.620  -9.350  10.863  1.00  0.00     0.125 A 
HETATM   21  N   UNL     1      42.482  -9.564  11.878  1.00  0.00    -0.273 NA
HETATM   22  C   UNL     1      41.960  -9.777  13.105  1.00  0.00     0.116 A 
HETATM   23  C   UNL     1      40.601  -9.802  13.360  1.00  0.00     0.020 A 
HETATM   24  C   UNL     1      39.727  -9.596  12.296  1.00  0.00     0.012 A 
ENDBRANCH  18  19
ENDBRANCH  15  18
ENDBRANCH  14  15
ENDBRANCH  11  14
ENDBRANCH   2  10
BRANCH   1  25
HETATM   25  C   UNL     1      39.465 -11.535   2.329  1.00  0.00     0.259 C 
HETATM   26  N   UNL     1      38.226 -11.899   1.833  1.00  0.00    -0.322 N 
HETATM   27  H   UNL     1      37.998 -12.874   1.980  1.00  0.00     0.169 HD
HETATM   28  O   UNL     1      40.188 -10.629   1.932  1.00  0.00    -0.267 OA
BRANCH  26  29
HETATM   29  C   UNL     1      37.596 -11.277   0.735  1.00  0.00     0.041 A 
HETATM   30  C   UNL     1      37.792 -11.651  -0.604  1.00  0.00    -0.035 A 
HETATM   31  C   UNL     1      37.065 -10.982  -1.609  1.00  0.00     0.015 A 
HETATM   32  C   UNL     1      38.784 -12.693  -1.041  1.00  0.00     0.050 C 
HETATM   33  C   UNL     1      36.201  -9.922  -1.306  1.00  0.00    -0.061 A 
HETATM   34  C   UNL     1      35.429  -9.221  -2.385  1.00  0.00     0.048 C 
HETATM   35  C   UNL     1      36.060  -9.526   0.024  1.00  0.00     0.009 A 
HETATM   36  C   UNL     1      36.765 -10.187   1.032  1.00  0.00     0.030 A 
ENDBRANCH  26  29
ENDBRANCH   1  25
BRANCH   8  37
HETATM   37  C   UNL     1      42.610 -16.700   2.707  1.00  0.00    -0.047 C 
HETATM   38  C   UNL     1      43.093 -18.093   2.277  1.00  0.00     0.015 C 
HETATM   39  C   UNL     1      42.860 -15.735   1.525  1.00  0.00     0.015 C 
HETATM   40  C   UNL     1      43.517 -16.223   3.868  1.00  0.00     0.015 C 
ENDBRANCH   8  37
TORSDOF 8
ENDMDL
MODEL 10
REMARK VINA RESULT:      -8.4      2.633      3.933
REMARK  8 active torsions:
REMARK  status: ('A' for Active; 'I' for Inactive)
REMARK    1  A    between atoms: C_6  and  N_7 
REMARK       I    between atoms: N_7  and  C_8 
REMARK    2  A    between atoms: C_8  and  C_9 
REMARK    3  A    between atoms: C_10  and  N_11 
REMARK       I    between atoms: N_11  and  C_12 
REMARK    4  A    between atoms: C_12  and  C_13 
REMARK    5  A    between atoms: C_13  and  N_14 
REMARK    6  A    between atoms: N_14  and  C_17 
REMARK    7  A    between atoms: C_17  and  C_18 
REMARK    8  A    between atoms: C_30  and  C_31 
ROOT
HETATM    1  C   UNL     1      42.714 -10.968   5.913  1.00  0.00     0.073 A 
HETATM    2  C   UNL     1      42.794 -10.295   7.118  1.00  0.00     0.093 A 
HETATM    3  S   UNL     1      41.970  -8.803   7.102  1.00  0.00    -0.075 SA
HETATM    4  C   UNL     1      41.477  -9.022   5.496  1.00  0.00    -0.008 A 
HETATM    5  C   UNL     1      41.960 -10.191   4.948  1.00  0.00    -0.026 A 
HETATM    6  C   UNL     1      41.714 -10.545   3.509  1.00  0.00     0.041 C 
HETATM    7  C   UNL     1      41.080  -9.391   2.707  1.00  0.00     0.010 C 
HETATM    8  C   UNL     1      40.046  -8.512   3.471  1.00  0.00    -0.002 C 
HETATM    9  C   UNL     1      40.688  -7.975   4.776  1.00  0.00     0.052 C 
ENDROOT
BRANCH   2  10
HETATM   10  N   UNL     1      43.391 -10.499   8.341  1.00  0.00    -0.319 N 
HETATM   11  C   UNL     1      44.647 -10.073   8.691  1.00  0.00     0.248 C 
HETATM   12  O   UNL     1      45.529  -9.646   7.951  1.00  0.00    -0.271 OA
HETATM   13  H   UNL     1      42.857 -11.106   8.958  1.00  0.00     0.169 HD
BRANCH  11  14
HETATM   14  C   UNL     1      44.958 -10.208  10.177  1.00  0.00     0.335 C 
BRANCH  14  15
HETATM   15  N   UNL     1      43.742  -9.917  11.016  1.00  0.00    -0.063 N 
HETATM   16  H   UNL     1      42.894 -10.282  10.568  1.00  0.00     0.278 HD
HETATM   17  H   UNL     1      43.858 -10.446  11.899  1.00  0.00     0.278 HD
BRANCH  15  18
HETATM   18  C   UNL     1      43.545  -8.485  11.391  1.00  0.00     0.272 C 
BRANCH  18  19
HETATM   19  C   UNL     1      42.902  -8.379  12.738  1.00  0.00    -0.015 A 
HETATM   20  C   UNL     1      41.863  -9.226  13.106  1.00  0.00     0.125 A 
HETATM   21  N   UNL     1      41.195  -9.128  14.273  1.00  0.00    -0.273 NA
HETATM   22  C   UNL     1      41.583  -8.163  15.135  1.00  0.00     0.116 A 
HETATM   23  C   UNL     1      42.608  -7.274  14.870  1.00  0.00     0.020 A 
HETATM   24  C   UNL     1      43.274  -7.381  13.652  1.00  0.00     0.012 A 
ENDBRANCH  18  19
ENDBRANCH  15  18
ENDBRANCH  14  15
ENDBRANCH  11  14
ENDBRANCH   2  10
BRANCH   1  25
HETATM   25  C   UNL     1      43.370 -12.239   5.610  1.00  0.00     0.259 C 
HETATM   26  N   UNL     1      42.497 -13.139   5.024  1.00  0.00    -0.322 N 
HETATM   27  H   UNL     1      41.523 -12.951   5.223  1.00  0.00     0.169 HD
HETATM   28  O   UNL     1      44.534 -12.438   5.937  1.00  0.00    -0.267 OA
BRANCH  26  29
HETATM   29  C   UNL     1      42.819 -14.481   4.729  1.00  0.00     0.041 A 
HETATM   30  C   UNL     1      43.086 -14.963   3.438  1.00  0.00    -0.035 A 
HETATM   31  C   UNL     1      43.444 -16.318   3.281  1.00  0.00     0.015 A 
HETATM   32  C   UNL     1      42.955 -14.131   2.193  1.00  0.00     0.050 C 
HETATM   33  C   UNL     1      43.484 -17.197   4.371  1.00  0.00    -0.061 A 
HETATM   34  C   UNL     1      43.871 -18.635   4.190  1.00  0.00     0.048 C 
HETATM   35  C   UNL     1      43.161 -16.713   5.639  1.00  0.00     0.009 A 
HETATM   36  C   UNL     1      42.816 -15.372   5.812  1.00  0.00     0.030 A 
ENDBRANCH  26  29
ENDBRANCH   1  25
BRANCH   8  37
HETATM   37  C   UNL     1      38.589  -9.109   3.598  1.00  0.00    -0.047 C 
HETATM   38  C   UNL     1      38.345 -10.373   2.760  1.00  0.00     0.015 C 
HETATM   39  C   UNL     1      38.256  -9.453   5.068  1.00  0.00     0.015 C 
HETATM   40  C   UNL     1      37.563  -8.040   3.149  1.00  0.00     0.015 C 
ENDBRANCH   8  37
TORSDOF 8
ENDMDL
