MODEL 1
REMARK VINA RESULT:      -8.5      0.000      0.000
REMARK  4 active torsions:
REMARK  status: ('A' for Active; 'I' for Inactive)
REMARK    1  A    between atoms: C_2  and  C_3 
REMARK    2  A    between atoms: C_3  and  C_4 
REMARK    3  A    between atoms: C_4  and  C_5 
REMARK    4  A    between atoms: C_25  and  N_26 
ROOT
HETATM    1  C   UNL     1      43.060 -16.226   3.807  1.00  0.00     0.067 A 
HETATM    2  N   UNL     1      43.070 -16.855   2.618  1.00  0.00    -0.177 NA
HETATM    3  N   UNL     1      42.076 -16.272   1.921  1.00  0.00    -0.256 N 
HETATM    4  H   UNL     1      41.874 -16.605   0.985  1.00  0.00     0.191 HD
HETATM    5  C   UNL     1      41.447 -15.298   2.624  1.00  0.00     0.176 A 
HETATM    6  C   UNL     1      42.078 -15.203   3.840  1.00  0.00     0.049 A 
HETATM    7  C   UNL     1      41.592 -14.203   4.833  1.00  0.00     0.144 A 
HETATM    8  C   UNL     1      41.329 -14.854   6.217  1.00  0.00     0.246 A 
HETATM    9  O   UNL     1      40.482 -15.685   6.505  1.00  0.00    -0.271 OA
HETATM   10  N   UNL     1      42.232 -14.293   7.113  1.00  0.00    -0.325 N 
HETATM   11  C   UNL     1      43.051 -13.359   6.494  1.00  0.00     0.043 A 
HETATM   12  C   UNL     1      42.741 -13.253   5.130  1.00  0.00     0.003 A 
HETATM   13  C   UNL     1      44.045 -12.622   7.103  1.00  0.00     0.030 A 
HETATM   14  C   UNL     1      44.760 -11.734   6.304  1.00  0.00     0.003 A 
HETATM   15  C   UNL     1      44.465 -11.602   4.936  1.00  0.00     0.007 A 
HETATM   16  C   UNL     1      43.443 -12.354   4.325  1.00  0.00    -0.051 A 
HETATM   17  C   UNL     1      43.172 -12.175   2.862  1.00  0.00     0.049 C 
HETATM   18  C   UNL     1      40.319 -13.525   4.344  1.00  0.00     0.081 A 
HETATM   19  C   UNL     1      39.566 -12.660   5.341  1.00  0.00     0.021 C 
HETATM   20  N   UNL     1      38.942 -11.944   6.170  1.00  0.00    -0.096 N 
HETATM   21  C   UNL     1      39.790 -13.740   3.109  1.00  0.00     0.140 A 
HETATM   22  O   UNL     1      40.399 -14.609   2.185  1.00  0.00    -0.279 OA
HETATM   23  H   UNL     1      42.252 -14.536   8.094  1.00  0.00     0.169 HD
ENDROOT
BRANCH  21  24
HETATM   24  N   UNL     1      38.632 -13.175   2.623  1.00  0.00    -0.282 NA
HETATM   25  H   UNL     1      37.815 -13.781   2.621  1.00  0.00     0.126 HD
HETATM   26  H   UNL     1      38.782 -12.722   1.725  1.00  0.00     0.126 HD
ENDBRANCH  21  24
BRANCH   1  27
HETATM   27  C   UNL     1      43.999 -16.678   4.879  1.00  0.00     0.062 C 
BRANCH  27  28
HETATM   28  C   UNL     1      43.568 -18.016   5.487  1.00  0.00     0.006 C 
BRANCH  28  29
HETATM   29  C   UNL     1      44.296 -19.192   4.839  1.00  0.00    -0.004 C 
HETATM   30  C   UNL     1      43.920 -20.508   5.501  1.00  0.00     0.005 C 
ENDBRANCH  28  29
ENDBRANCH  27  28
ENDBRANCH   1  27
TORSDOF 4
ENDMDL
MODEL 2
REMARK VINA RESULT:      -7.9      8.070     11.004
REMARK  4 active torsions:
REMARK  status: ('A' for Active; 'I' for Inactive)
REMARK    1  A    between atoms: C_2  and  C_3 
REMARK    2  A    between atoms: C_3  and  C_4 
REMARK    3  A    between atoms: C_4  and  C_5 
REMARK    4  A    between atoms: C_25  and  N_26 
ROOT
HETATM    1  C   UNL     1      42.127  -7.207  13.839  1.00  0.00     0.067 A 
HETATM    2  N   UNL     1      42.133  -7.469  15.158  1.00  0.00    -0.177 NA
HETATM    3  N   UNL     1      41.419  -8.604  15.279  1.00  0.00    -0.256 N 
HETATM    4  H   UNL     1      41.264  -8.990  16.204  1.00  0.00     0.191 HD
HETATM    5  C   UNL     1      40.971  -9.069  14.086  1.00  0.00     0.176 A 
HETATM    6  C   UNL     1      41.441  -8.217  13.117  1.00  0.00     0.049 A 
HETATM    7  C   UNL     1      41.098  -8.483  11.690  1.00  0.00     0.144 A 
HETATM    8  C   UNL     1      40.499  -7.227  11.003  1.00  0.00     0.246 A 
HETATM    9  O   UNL     1      39.440  -6.672  11.249  1.00  0.00    -0.271 OA
HETATM   10  N   UNL     1      41.390  -6.840  10.008  1.00  0.00    -0.325 N 
HETATM   11  C   UNL     1      42.493  -7.680   9.955  1.00  0.00     0.043 A 
HETATM   12  C   UNL     1      42.401  -8.682  10.933  1.00  0.00     0.003 A 
HETATM   13  C   UNL     1      43.552  -7.575   9.079  1.00  0.00     0.030 A 
HETATM   14  C   UNL     1      44.567  -8.521   9.188  1.00  0.00     0.003 A 
HETATM   15  C   UNL     1      44.497  -9.540  10.154  1.00  0.00     0.007 A 
HETATM   16  C   UNL     1      43.407  -9.644  11.040  1.00  0.00    -0.051 A 
HETATM   17  C   UNL     1      43.384 -10.750  12.052  1.00  0.00     0.049 C 
HETATM   18  C   UNL     1      40.113  -9.639  11.574  1.00  0.00     0.081 A 
HETATM   19  C   UNL     1      39.480  -9.876  10.213  1.00  0.00     0.021 C 
HETATM   20  N   UNL     1      38.955 -10.072   9.083  1.00  0.00    -0.096 N 
HETATM   21  C   UNL     1      39.714 -10.385  12.640  1.00  0.00     0.140 A 
HETATM   22  O   UNL     1      40.198 -10.139  13.937  1.00  0.00    -0.279 OA
HETATM   23  H   UNL     1      41.219  -6.053   9.397  1.00  0.00     0.169 HD
ENDROOT
BRANCH  21  24
HETATM   24  N   UNL     1      38.811 -11.424  12.597  1.00  0.00    -0.282 NA
HETATM   25  H   UNL     1      38.962 -12.165  13.278  1.00  0.00     0.126 HD
HETATM   26  H   UNL     1      38.692 -11.782  11.653  1.00  0.00     0.126 HD
ENDBRANCH  21  24
BRANCH   1  27
HETATM   27  C   UNL     1      42.772  -5.954  13.340  1.00  0.00     0.062 C 
BRANCH  27  28
HETATM   28  C   UNL     1      41.825  -4.753  13.425  1.00  0.00     0.006 C 
BRANCH  28  29
HETATM   29  C   UNL     1      42.395  -3.531  12.708  1.00  0.00    -0.004 C 
HETATM   30  C   UNL     1      42.711  -3.841  11.253  1.00  0.00     0.005 C 
ENDBRANCH  28  29
ENDBRANCH  27  28
ENDBRANCH   1  27
TORSDOF 4
ENDMDL
MODEL 3
REMARK VINA RESULT:      -7.8      1.836      2.402
REMARK  4 active torsions:
REMARK  status: ('A' for Active; 'I' for Inactive)
REMARK    1  A    between atoms: C_2  and  C_3 
REMARK    2  A    between atoms: C_3  and  C_4 
REMARK    3  A    between atoms: C_4  and  C_5 
REMARK    4  A    between atoms: C_25  and  N_26 
ROOT
HETATM    1  C   UNL     1      40.688 -14.969   3.334  1.00  0.00     0.067 A 
HETATM    2  N   UNL     1      40.176 -15.490   2.204  1.00  0.00    -0.177 NA
HETATM    3  N   UNL     1      39.421 -14.501   1.690  1.00  0.00    -0.256 N 
HETATM    4  H   UNL     1      38.906 -14.672   0.833  1.00  0.00     0.191 HD
HETATM    5  C   UNL     1      39.443 -13.378   2.450  1.00  0.00     0.176 A 
HETATM    6  C   UNL     1      40.286 -13.620   3.507  1.00  0.00     0.049 A 
HETATM    7  C   UNL     1      40.505 -12.548   4.520  1.00  0.00     0.144 A 
HETATM    8  C   UNL     1      40.272 -13.071   5.963  1.00  0.00     0.246 A 
HETATM    9  O   UNL     1      39.225 -13.454   6.461  1.00  0.00    -0.271 OA
HETATM   10  N   UNL     1      41.492 -13.002   6.626  1.00  0.00    -0.325 N 
HETATM   11  C   UNL     1      42.492 -12.503   5.804  1.00  0.00     0.043 A 
HETATM   12  C   UNL     1      41.988 -12.217   4.527  1.00  0.00     0.003 A 
HETATM   13  C   UNL     1      43.810 -12.305   6.158  1.00  0.00     0.030 A 
HETATM   14  C   UNL     1      44.663 -11.793   5.184  1.00  0.00     0.003 A 
HETATM   15  C   UNL     1      44.183 -11.491   3.898  1.00  0.00     0.007 A 
HETATM   16  C   UNL     1      42.833 -11.689   3.548  1.00  0.00    -0.051 A 
HETATM   17  C   UNL     1      42.375 -11.350   2.162  1.00  0.00     0.049 C 
HETATM   18  C   UNL     1      39.590 -11.359   4.260  1.00  0.00     0.081 A 
HETATM   19  C   UNL     1      39.517 -10.292   5.339  1.00  0.00     0.021 C 
HETATM   20  N   UNL     1      39.456  -9.407   6.236  1.00  0.00    -0.096 N 
HETATM   21  C   UNL     1      38.780 -11.269   3.170  1.00  0.00     0.140 A 
HETATM   22  O   UNL     1      38.740 -12.280   2.193  1.00  0.00    -0.279 OA
HETATM   23  H   UNL     1      41.604 -13.269   7.595  1.00  0.00     0.169 HD
ENDROOT
BRANCH  21  24
HETATM   24  N   UNL     1      37.917 -10.232   2.897  1.00  0.00    -0.282 NA
HETATM   25  H   UNL     1      38.163  -9.656   2.095  1.00  0.00     0.126 HD
HETATM   26  H   UNL     1      37.717  -9.679   3.727  1.00  0.00     0.126 HD
ENDBRANCH  21  24
BRANCH   1  27
HETATM   27  C   UNL     1      41.530 -15.831   4.219  1.00  0.00     0.062 C 
BRANCH  27  28
HETATM   28  C   UNL     1      43.004 -15.807   3.801  1.00  0.00     0.006 C 
BRANCH  28  29
HETATM   29  C   UNL     1      43.561 -17.217   3.610  1.00  0.00    -0.004 C 
HETATM   30  C   UNL     1      42.945 -17.894   2.395  1.00  0.00     0.005 C 
ENDBRANCH  28  29
ENDBRANCH  27  28
ENDBRANCH   1  27
TORSDOF 4
ENDMDL
MODEL 4
REMARK VINA RESULT:      -7.6     15.060     17.351
REMARK  4 active torsions:
REMARK  status: ('A' for Active; 'I' for Inactive)
REMARK    1  A    between atoms: C_2  and  C_3 
REMARK    2  A    between atoms: C_3  and  C_4 
REMARK    3  A    between atoms: C_4  and  C_5 
REMARK    4  A    between atoms: C_25  and  N_26 
ROOT
HETATM    1  C   UNL     1      47.240 -28.833  -1.234  1.00  0.00     0.067 A 
HETATM    2  N   UNL     1      48.099 -29.038  -2.249  1.00  0.00    -0.177 NA
HETATM    3  N   UNL     1      48.980 -29.935  -1.768  1.00  0.00    -0.256 N 
HETATM    4  H   UNL     1      49.751 -30.230  -2.358  1.00  0.00     0.191 HD
HETATM    5  C   UNL     1      48.704 -30.306  -0.493  1.00  0.00     0.176 A 
HETATM    6  C   UNL     1      47.559 -29.648  -0.118  1.00  0.00     0.049 A 
HETATM    7  C   UNL     1      47.014 -29.866   1.253  1.00  0.00     0.144 A 
HETATM    8  C   UNL     1      46.755 -28.521   1.984  1.00  0.00     0.246 A 
HETATM    9  O   UNL     1      47.578 -27.694   2.344  1.00  0.00    -0.271 OA
HETATM   10  N   UNL     1      45.383 -28.424   2.193  1.00  0.00    -0.325 N 
HETATM   11  C   UNL     1      44.712 -29.531   1.692  1.00  0.00     0.043 A 
HETATM   12  C   UNL     1      45.612 -30.434   1.106  1.00  0.00     0.003 A 
HETATM   13  C   UNL     1      43.351 -29.746   1.744  1.00  0.00     0.030 A 
HETATM   14  C   UNL     1      42.870 -30.925   1.182  1.00  0.00     0.003 A 
HETATM   15  C   UNL     1      43.749 -31.851   0.594  1.00  0.00     0.007 A 
HETATM   16  C   UNL     1      45.139 -31.626   0.554  1.00  0.00    -0.051 A 
HETATM   17  C   UNL     1      46.031 -32.647  -0.086  1.00  0.00     0.049 C 
HETATM   18  C   UNL     1      47.961 -30.719   2.086  1.00  0.00     0.081 A 
HETATM   19  C   UNL     1      47.669 -30.828   3.573  1.00  0.00     0.021 C 
HETATM   20  N   UNL     1      47.427 -30.917   4.808  1.00  0.00    -0.096 N 
HETATM   21  C   UNL     1      49.087 -31.290   1.578  1.00  0.00     0.140 A 
HETATM   22  O   UNL     1      49.450 -31.135   0.229  1.00  0.00    -0.279 OA
HETATM   23  H   UNL     1      44.957 -27.644   2.672  1.00  0.00     0.169 HD
ENDROOT
BRANCH  21  24
HETATM   24  N   UNL     1      49.990 -32.049   2.288  1.00  0.00    -0.282 NA
HETATM   25  H   UNL     1      50.812 -31.553   2.624  1.00  0.00     0.126 HD
HETATM   26  H   UNL     1      50.227 -32.909   1.799  1.00  0.00     0.126 HD
ENDBRANCH  21  24
BRANCH   1  27
HETATM   27  C   UNL     1      46.153 -27.818  -1.391  1.00  0.00     0.062 C 
BRANCH  27  28
HETATM   28  C   UNL     1      45.193 -28.184  -2.528  1.00  0.00     0.006 C 
BRANCH  28  29
HETATM   29  C   UNL     1      44.156 -29.214  -2.082  1.00  0.00    -0.004 C 
HETATM   30  C   UNL     1      44.258 -30.491  -2.901  1.00  0.00     0.005 C 
ENDBRANCH  28  29
ENDBRANCH  27  28
ENDBRANCH   1  27
TORSDOF 4
ENDMDL
MODEL 5
REMARK VINA RESULT:      -7.6      2.607      5.647
REMARK  4 active torsions:
REMARK  status: ('A' for Active; 'I' for Inactive)
REMARK    1  A    between atoms: C_2  and  C_3 
REMARK    2  A    between atoms: C_3  and  C_4 
REMARK    3  A    between atoms: C_4  and  C_5 
REMARK    4  A    between atoms: C_25  and  N_26 
ROOT
HETATM    1  C   UNL     1      42.841 -11.518   4.614  1.00  0.00     0.067 A 
HETATM    2  N   UNL     1      44.049 -11.060   4.988  1.00  0.00    -0.177 NA
HETATM    3  N   UNL     1      44.500 -11.978   5.863  1.00  0.00    -0.256 N 
HETATM    4  H   UNL     1      45.401 -11.832   6.307  1.00  0.00     0.191 HD
HETATM    5  C   UNL     1      43.626 -12.998   6.048  1.00  0.00     0.176 A 
HETATM    6  C   UNL     1      42.551 -12.764   5.226  1.00  0.00     0.049 A 
HETATM    7  C   UNL     1      41.418 -13.733   5.221  1.00  0.00     0.144 A 
HETATM    8  C   UNL     1      40.055 -13.020   5.434  1.00  0.00     0.246 A 
HETATM    9  O   UNL     1      39.667 -12.432   6.431  1.00  0.00    -0.271 OA
HETATM   10  N   UNL     1      39.315 -13.192   4.270  1.00  0.00    -0.325 N 
HETATM   11  C   UNL     1      40.016 -13.925   3.323  1.00  0.00     0.043 A 
HETATM   12  C   UNL     1      41.285 -14.278   3.808  1.00  0.00     0.003 A 
HETATM   13  C   UNL     1      39.563 -14.275   2.069  1.00  0.00     0.030 A 
HETATM   14  C   UNL     1      40.423 -15.016   1.263  1.00  0.00     0.003 A 
HETATM   15  C   UNL     1      41.696 -15.389   1.726  1.00  0.00     0.007 A 
HETATM   16  C   UNL     1      42.148 -15.034   3.013  1.00  0.00    -0.051 A 
HETATM   17  C   UNL     1      43.516 -15.458   3.455  1.00  0.00     0.049 C 
HETATM   18  C   UNL     1      41.605 -14.795   6.296  1.00  0.00     0.081 A 
HETATM   19  C   UNL     1      40.426 -15.709   6.581  1.00  0.00     0.021 C 
HETATM   20  N   UNL     1      39.445 -16.467   6.818  1.00  0.00    -0.096 N 
HETATM   21  C   UNL     1      42.727 -14.888   7.061  1.00  0.00     0.140 A 
HETATM   22  O   UNL     1      43.807 -14.001   6.900  1.00  0.00    -0.279 OA
HETATM   23  H   UNL     1      38.375 -12.837   4.162  1.00  0.00     0.169 HD
ENDROOT
BRANCH  21  24
HETATM   24  N   UNL     1      42.941 -15.810   8.061  1.00  0.00    -0.282 NA
HETATM   25  H   UNL     1      42.663 -16.764   7.844  1.00  0.00     0.126 HD
HETATM   26  H   UNL     1      42.573 -15.491   8.954  1.00  0.00     0.126 HD
ENDBRANCH  21  24
BRANCH   1  27
HETATM   27  C   UNL     1      42.003 -10.695   3.689  1.00  0.00     0.062 C 
BRANCH  27  28
HETATM   28  C   UNL     1      42.216 -11.091   2.224  1.00  0.00     0.006 C 
BRANCH  28  29
HETATM   29  C   UNL     1      40.940 -10.921   1.402  1.00  0.00    -0.004 C 
HETATM   30  C   UNL     1      39.829 -10.292   2.229  1.00  0.00     0.005 C 
ENDBRANCH  28  29
ENDBRANCH  27  28
ENDBRANCH   1  27
TORSDOF 4
ENDMDL
MODEL 6
REMARK VINA RESULT:      -7.3      2.929      4.740
REMARK  4 active torsions:
REMARK  status: ('A' for Active; 'I' for Inactive)
REMARK    1  A    between atoms: C_2  and  C_3 
REMARK    2  A    between atoms: C_3  and  C_4 
REMARK    3  A    between atoms: C_4  and  C_5 
REMARK    4  A    between atoms: C_25  and  N_26 
ROOT
HETATM    1  C   UNL     1      41.772 -14.359   4.175  1.00  0.00     0.067 A 
HETATM    2  N   UNL     1      41.324 -15.483   4.761  1.00  0.00    -0.177 NA
HETATM    3  N   UNL     1      40.370 -15.062   5.612  1.00  0.00    -0.256 N 
HETATM    4  H   UNL     1      39.896 -15.745   6.195  1.00  0.00     0.191 HD
HETATM    5  C   UNL     1      40.198 -13.718   5.580  1.00  0.00     0.176 A 
HETATM    6  C   UNL     1      41.058 -13.222   4.631  1.00  0.00     0.049 A 
HETATM    7  C   UNL     1      41.088 -11.752   4.378  1.00  0.00     0.144 A 
HETATM    8  C   UNL     1      42.534 -11.191   4.447  1.00  0.00     0.246 A 
HETATM    9  O   UNL     1      43.267 -11.130   5.422  1.00  0.00    -0.271 OA
HETATM   10  N   UNL     1      42.856 -10.728   3.176  1.00  0.00    -0.325 N 
HETATM   11  C   UNL     1      41.809 -10.914   2.285  1.00  0.00     0.043 A 
HETATM   12  C   UNL     1      40.720 -11.529   2.920  1.00  0.00     0.003 A 
HETATM   13  C   UNL     1      41.805 -10.559   0.952  1.00  0.00     0.030 A 
HETATM   14  C   UNL     1      40.652 -10.833   0.223  1.00  0.00     0.003 A 
HETATM   15  C   UNL     1      39.543 -11.442   0.836  1.00  0.00     0.007 A 
HETATM   16  C   UNL     1      39.553 -11.793   2.199  1.00  0.00    -0.051 A 
HETATM   17  C   UNL     1      38.343 -12.441   2.802  1.00  0.00     0.049 C 
HETATM   18  C   UNL     1      40.210 -11.010   5.376  1.00  0.00     0.081 A 
HETATM   19  C   UNL     1      40.323  -9.495   5.406  1.00  0.00     0.021 C 
HETATM   20  N   UNL     1      40.418  -8.237   5.431  1.00  0.00    -0.096 N 
HETATM   21  C   UNL     1      39.422 -11.643   6.287  1.00  0.00     0.140 A 
HETATM   22  O   UNL     1      39.360 -13.046   6.362  1.00  0.00    -0.279 OA
HETATM   23  H   UNL     1      43.743 -10.293   2.961  1.00  0.00     0.169 HD
ENDROOT
BRANCH  21  24
HETATM   24  N   UNL     1      38.628 -11.025   7.226  1.00  0.00    -0.282 NA
HETATM   25  H   UNL     1      37.637 -10.979   7.001  1.00  0.00     0.126 HD
HETATM   26  H   UNL     1      39.005 -10.122   7.504  1.00  0.00     0.126 HD
ENDBRANCH  21  24
BRANCH   1  27
HETATM   27  C   UNL     1      42.910 -14.443   3.210  1.00  0.00     0.062 C 
BRANCH  27  28
HETATM   28  C   UNL     1      42.561 -15.304   1.992  1.00  0.00     0.006 C 
BRANCH  28  29
HETATM   29  C   UNL     1      41.509 -14.635   1.109  1.00  0.00    -0.004 C 
HETATM   30  C   UNL     1      40.192 -15.395   1.147  1.00  0.00     0.005 C 
ENDBRANCH  28  29
ENDBRANCH  27  28
ENDBRANCH   1  27
TORSDOF 4
ENDMDL
MODEL 7
REMARK VINA RESULT:      -7.3     15.293     17.611
REMARK  4 active torsions:
REMARK  status: ('A' for Active; 'I' for Inactive)
REMARK    1  A    between atoms: C_2  and  C_3 
REMARK    2  A    between atoms: C_3  and  C_4 
REMARK    3  A    between atoms: C_4  and  C_5 
REMARK    4  A    between atoms: C_25  and  N_26 
ROOT
HETATM    1  C   UNL     1      44.873 -28.918  -2.811  1.00  0.00     0.067 A 
HETATM    2  N   UNL     1      45.467 -27.957  -3.540  1.00  0.00    -0.177 NA
HETATM    3  N   UNL     1      46.400 -27.440  -2.719  1.00  0.00    -0.256 N 
HETATM    4  H   UNL     1      46.969 -26.668  -3.049  1.00  0.00     0.191 HD
HETATM    5  C   UNL     1      46.419 -28.043  -1.505  1.00  0.00     0.176 A 
HETATM    6  C   UNL     1      45.474 -29.038  -1.531  1.00  0.00     0.049 A 
HETATM    7  C   UNL     1      45.270 -29.877  -0.316  1.00  0.00     0.144 A 
HETATM    8  C   UNL     1      43.774 -29.929   0.098  1.00  0.00     0.246 A 
HETATM    9  O   UNL     1      43.078 -29.012   0.503  1.00  0.00    -0.271 OA
HETATM   10  N   UNL     1      43.353 -31.246  -0.049  1.00  0.00    -0.325 N 
HETATM   11  C   UNL     1      44.378 -32.061  -0.505  1.00  0.00     0.043 A 
HETATM   12  C   UNL     1      45.553 -31.320  -0.699  1.00  0.00     0.003 A 
HETATM   13  C   UNL     1      44.290 -33.416  -0.748  1.00  0.00     0.030 A 
HETATM   14  C   UNL     1      45.438 -34.058  -1.206  1.00  0.00     0.003 A 
HETATM   15  C   UNL     1      46.631 -33.341  -1.402  1.00  0.00     0.007 A 
HETATM   16  C   UNL     1      46.713 -31.959  -1.143  1.00  0.00    -0.051 A 
HETATM   17  C   UNL     1      48.010 -31.244  -1.371  1.00  0.00     0.049 C 
HETATM   18  C   UNL     1      46.098 -29.355   0.851  1.00  0.00     0.081 A 
HETATM   19  C   UNL     1      45.818 -29.950   2.221  1.00  0.00     0.021 C 
HETATM   20  N   UNL     1      45.584 -30.443   3.358  1.00  0.00    -0.096 N 
HETATM   21  C   UNL     1      46.986 -28.332   0.731  1.00  0.00     0.140 A 
HETATM   22  O   UNL     1      47.208 -27.684  -0.497  1.00  0.00    -0.279 OA
HETATM   23  H   UNL     1      42.415 -31.548   0.178  1.00  0.00     0.169 HD
ENDROOT
BRANCH  21  24
HETATM   24  N   UNL     1      47.743 -27.804   1.753  1.00  0.00    -0.282 NA
HETATM   25  H   UNL     1      48.120 -26.874   1.586  1.00  0.00     0.126 HD
HETATM   26  H   UNL     1      48.453 -28.459   2.074  1.00  0.00     0.126 HD
ENDBRANCH  21  24
BRANCH   1  27
HETATM   27  C   UNL     1      43.714 -29.664  -3.391  1.00  0.00     0.062 C 
BRANCH  27  28
HETATM   28  C   UNL     1      44.103 -30.416  -4.668  1.00  0.00     0.006 C 
BRANCH  28  29
HETATM   29  C   UNL     1      44.792 -31.743  -4.355  1.00  0.00    -0.004 C 
HETATM   30  C   UNL     1      46.242 -31.735  -4.813  1.00  0.00     0.005 C 
ENDBRANCH  28  29
ENDBRANCH  27  28
ENDBRANCH   1  27
TORSDOF 4
ENDMDL
MODEL 8
REMARK VINA RESULT:      -7.3      6.848      9.534
REMARK  4 active torsions:
REMARK  status: ('A' for Active; 'I' for Inactive)
REMARK    1  A    between atoms: C_2  and  C_3 
REMARK    2  A    between atoms: C_3  and  C_4 
REMARK    3  A    between atoms: C_4  and  C_5 
REMARK    4  A    between atoms: C_25  and  N_26 
ROOT
HETATM    1  C   UNL     1      41.873  -9.871  12.179  1.00  0.00     0.067 A 
HETATM    2  N   UNL     1      43.030 -10.520  12.397  1.00  0.00    -0.177 NA
HETATM    3  N   UNL     1      43.609 -10.592  11.183  1.00  0.00    -0.256 N 
HETATM    4  H   UNL     1      44.499 -11.070  11.092  1.00  0.00     0.191 HD
HETATM    5  C   UNL     1      42.863 -10.008  10.213  1.00  0.00     0.176 A 
HETATM    6  C   UNL     1      41.745  -9.489  10.819  1.00  0.00     0.049 A 
HETATM    7  C   UNL     1      40.732  -8.782   9.985  1.00  0.00     0.144 A 
HETATM    8  C   UNL     1      39.303  -9.338  10.228  1.00  0.00     0.246 A 
HETATM    9  O   UNL     1      38.878 -10.452   9.963  1.00  0.00    -0.271 OA
HETATM   10  N   UNL     1      38.554  -8.313  10.795  1.00  0.00    -0.325 N 
HETATM   11  C   UNL     1      39.307  -7.159  10.954  1.00  0.00     0.043 A 
HETATM   12  C   UNL     1      40.621  -7.357  10.504  1.00  0.00     0.003 A 
HETATM   13  C   UNL     1      38.861  -5.964  11.479  1.00  0.00     0.030 A 
HETATM   14  C   UNL     1      39.777  -4.919  11.555  1.00  0.00     0.003 A 
HETATM   15  C   UNL     1      41.098  -5.088  11.105  1.00  0.00     0.007 A 
HETATM   16  C   UNL     1      41.542  -6.309  10.562  1.00  0.00    -0.051 A 
HETATM   17  C   UNL     1      42.962  -6.435  10.099  1.00  0.00     0.049 C 
HETATM   18  C   UNL     1      41.071  -8.894   8.504  1.00  0.00     0.081 A 
HETATM   19  C   UNL     1      40.013  -8.437   7.514  1.00  0.00     0.021 C 
HETATM   20  N   UNL     1      39.134  -8.059   6.693  1.00  0.00    -0.096 N 
HETATM   21  C   UNL     1      42.218  -9.466   8.046  1.00  0.00     0.140 A 
HETATM   22  O   UNL     1      43.183  -9.992   8.924  1.00  0.00    -0.279 OA
HETATM   23  H   UNL     1      37.577  -8.416  11.031  1.00  0.00     0.169 HD
ENDROOT
BRANCH  21  24
HETATM   24  N   UNL     1      42.565  -9.615   6.723  1.00  0.00    -0.282 NA
HETATM   25  H   UNL     1      42.014  -9.074   6.061  1.00  0.00     0.126 HD
HETATM   26  H   UNL     1      42.637 -10.595   6.459  1.00  0.00     0.126 HD
ENDBRANCH  21  24
BRANCH   1  27
HETATM   27  C   UNL     1      40.919  -9.678  13.314  1.00  0.00     0.062 C 
BRANCH  27  28
HETATM   28  C   UNL     1      41.547  -8.869  14.453  1.00  0.00     0.006 C 
BRANCH  28  29
HETATM   29  C   UNL     1      41.748  -7.406  14.063  1.00  0.00    -0.004 C 
HETATM   30  C   UNL     1      43.223  -7.042  14.022  1.00  0.00     0.005 C 
ENDBRANCH  28  29
ENDBRANCH  27  28
ENDBRANCH   1  27
TORSDOF 4
ENDMDL
MODEL 9
REMARK VINA RESULT:      -7.2      2.508      5.379
REMARK  4 active torsions:
REMARK  status: ('A' for Active; 'I' for Inactive)
REMARK    1  A    between atoms: C_2  and  C_3 
REMARK    2  A    between atoms: C_3  and  C_4 
REMARK    3  A    between atoms: C_4  and  C_5 
REMARK    4  A    between atoms: C_25  and  N_26 
ROOT
HETATM    1  C   UNL     1      41.507 -13.505   2.279  1.00  0.00     0.067 A 
HETATM    2  N   UNL     1      41.361 -14.734   1.752  1.00  0.00    -0.177 NA
HETATM    3  N   UNL     1      41.895 -15.560   2.672  1.00  0.00    -0.256 N 
HETATM    4  H   UNL     1      41.921 -16.555   2.481  1.00  0.00     0.191 HD
HETATM    5  C   UNL     1      42.364 -14.897   3.759  1.00  0.00     0.176 A 
HETATM    6  C   UNL     1      42.097 -13.564   3.568  1.00  0.00     0.049 A 
HETATM    7  C   UNL     1      42.508 -12.585   4.614  1.00  0.00     0.144 A 
HETATM    8  C   UNL     1      43.331 -11.415   4.010  1.00  0.00     0.246 A 
HETATM    9  O   UNL     1      44.436 -11.466   3.494  1.00  0.00    -0.271 OA
HETATM   10  N   UNL     1      42.584 -10.255   4.185  1.00  0.00    -0.325 N 
HETATM   11  C   UNL     1      41.380 -10.514   4.824  1.00  0.00     0.043 A 
HETATM   12  C   UNL     1      41.253 -11.883   5.106  1.00  0.00     0.003 A 
HETATM   13  C   UNL     1      40.418  -9.582   5.151  1.00  0.00     0.030 A 
HETATM   14  C   UNL     1      39.273 -10.046   5.793  1.00  0.00     0.003 A 
HETATM   15  C   UNL     1      39.122 -11.410   6.094  1.00  0.00     0.007 A 
HETATM   16  C   UNL     1      40.114 -12.354   5.764  1.00  0.00    -0.051 A 
HETATM   17  C   UNL     1      39.901 -13.797   6.107  1.00  0.00     0.049 C 
HETATM   18  C   UNL     1      43.324 -13.265   5.705  1.00  0.00     0.081 A 
HETATM   19  C   UNL     1      44.020 -12.366   6.713  1.00  0.00     0.021 C 
HETATM   20  N   UNL     1      44.599 -11.619   7.548  1.00  0.00    -0.096 N 
HETATM   21  C   UNL     1      43.529 -14.610   5.750  1.00  0.00     0.140 A 
HETATM   22  O   UNL     1      42.985 -15.473   4.782  1.00  0.00    -0.279 OA
HETATM   23  H   UNL     1      42.912  -9.345   3.893  1.00  0.00     0.169 HD
ENDROOT
BRANCH  21  24
HETATM   24  N   UNL     1      44.275 -15.275   6.697  1.00  0.00    -0.282 NA
HETATM   25  H   UNL     1      44.095 -15.011   7.663  1.00  0.00     0.126 HD
HETATM   26  H   UNL     1      45.267 -15.267   6.470  1.00  0.00     0.126 HD
ENDBRANCH  21  24
BRANCH   1  27
HETATM   27  C   UNL     1      41.087 -12.314   1.479  1.00  0.00     0.062 C 
BRANCH  27  28
HETATM   28  C   UNL     1      39.597 -12.363   1.124  1.00  0.00     0.006 C 
BRANCH  28  29
HETATM   29  C   UNL     1      38.718 -12.051   2.334  1.00  0.00    -0.004 C 
HETATM   30  C   UNL     1      38.258 -10.602   2.324  1.00  0.00     0.005 C 
ENDBRANCH  28  29
ENDBRANCH  27  28
ENDBRANCH   1  27
TORSDOF 4
ENDMDL
MODEL 10
REMARK VINA RESULT:      -7.0      2.686      5.262
REMARK  4 active torsions:
REMARK  status: ('A' for Active; 'I' for Inactive)
REMARK    1  A    between atoms: C_2  and  C_3 
REMARK    2  A    between atoms: C_3  and  C_4 
REMARK    3  A    between atoms: C_4  and  C_5 
REMARK    4  A    between atoms: C_25  and  N_26 
ROOT
HETATM    1  C   UNL     1      40.342 -14.440   2.456  1.00  0.00     0.067 A 
HETATM    2  N   UNL     1      39.780 -15.649   2.634  1.00  0.00    -0.177 NA
HETATM    3  N   UNL     1      40.116 -15.995   3.891  1.00  0.00    -0.256 N 
HETATM    4  H   UNL     1      39.818 -16.897   4.247  1.00  0.00     0.191 HD
HETATM    5  C   UNL     1      40.862 -15.048   4.512  1.00  0.00     0.176 A 
HETATM    6  C   UNL     1      41.000 -14.001   3.634  1.00  0.00     0.049 A 
HETATM    7  C   UNL     1      41.785 -12.804   4.051  1.00  0.00     0.144 A 
HETATM    8  C   UNL     1      42.869 -12.437   3.001  1.00  0.00     0.246 A 
HETATM    9  O   UNL     1      43.853 -13.085   2.684  1.00  0.00    -0.271 OA
HETATM   10  N   UNL     1      42.533 -11.191   2.483  1.00  0.00    -0.325 N 
HETATM   11  C   UNL     1      41.371 -10.696   3.058  1.00  0.00     0.043 A 
HETATM   12  C   UNL     1      40.856 -11.602   3.997  1.00  0.00     0.003 A 
HETATM   13  C   UNL     1      40.775  -9.486   2.769  1.00  0.00     0.030 A 
HETATM   14  C   UNL     1      39.606  -9.171   3.457  1.00  0.00     0.003 A 
HETATM   15  C   UNL     1      39.072 -10.057   4.409  1.00  0.00     0.007 A 
HETATM   16  C   UNL     1      39.693 -11.287   4.703  1.00  0.00    -0.051 A 
HETATM   17  C   UNL     1      39.080 -12.195   5.725  1.00  0.00     0.049 C 
HETATM   18  C   UNL     1      42.449 -13.033   5.403  1.00  0.00     0.081 A 
HETATM   19  C   UNL     1      43.476 -12.008   5.853  1.00  0.00     0.021 C 
HETATM   20  N   UNL     1      44.330 -11.157   6.225  1.00  0.00    -0.096 N 
HETATM   21  C   UNL     1      42.236 -14.145   6.156  1.00  0.00     0.140 A 
HETATM   22  O   UNL     1      41.367 -15.169   5.734  1.00  0.00    -0.279 OA
HETATM   23  H   UNL     1      43.096 -10.717   1.791  1.00  0.00     0.169 HD
ENDROOT
BRANCH  21  24
HETATM   24  N   UNL     1      42.825 -14.416   7.371  1.00  0.00    -0.282 NA
HETATM   25  H   UNL     1      43.808 -14.166   7.446  1.00  0.00     0.126 HD
HETATM   26  H   UNL     1      42.641 -15.369   7.676  1.00  0.00     0.126 HD
ENDBRANCH  21  24
BRANCH   1  27
HETATM   27  C   UNL     1      40.237 -13.775   1.122  1.00  0.00     0.062 C 
BRANCH  27  28
HETATM   28  C   UNL     1      39.945 -14.783   0.005  1.00  0.00     0.006 C 
BRANCH  28  29
HETATM   29  C   UNL     1      39.852 -14.103  -1.360  1.00  0.00    -0.004 C 
HETATM   30  C   UNL     1      38.971 -14.895  -2.313  1.00  0.00     0.005 C 
ENDBRANCH  28  29
ENDBRANCH  27  28
ENDBRANCH   1  27
TORSDOF 4
ENDMDL
