MODEL 1
REMARK VINA RESULT:      -8.0      0.000      0.000
REMARK  8 active torsions:
REMARK  status: ('A' for Active; 'I' for Inactive)
REMARK    1  A    between atoms: C_2  and  O_3 
REMARK    2  A    between atoms: O_3  and  C_4 
REMARK    3  A    between atoms: C_5  and  N_6 
REMARK       I    between atoms: N_6  and  C_7 
REMARK       I    between atoms: C_7  and  N_8 
REMARK    4  A    between atoms: N_8  and  C_9 
REMARK    5  A    between atoms: C_9  and  C_10 
REMARK       I    between atoms: C_10  and  N_11 
REMARK    6  A    between atoms: N_11  and  N_12 
REMARK    7  A    between atoms: C_13  and  C_14 
REMARK    8  A    between atoms: C_17  and  N_18 
REMARK       I    between atoms: N_18  and  C_19 
ROOT
HETATM    1  C   UNL     1      42.059 -13.312   5.425  1.00  0.00     0.255 C 
HETATM    2  N   UNL     1      43.205 -12.572   5.664  1.00  0.00    -0.246 N 
HETATM    3  O   UNL     1      41.185 -13.551   6.260  1.00  0.00    -0.270 OA
HETATM    4  H   UNL     1      43.794 -12.298   4.873  1.00  0.00     0.192 HD
ENDROOT
BRANCH   1   5
HETATM    5  C   UNL     1      41.862 -13.701   3.957  1.00  0.00     0.228 C 
BRANCH   5   6
HETATM    6  N   UNL     1      42.764 -14.727   3.446  1.00  0.00    -0.334 N 
HETATM    7  C   UNL     1      42.474 -16.061   3.624  1.00  0.00     0.321 C 
HETATM    8  N   UNL     1      43.539 -16.843   3.236  1.00  0.00    -0.306 N 
HETATM    9  O   UNL     1      41.366 -16.444   3.983  1.00  0.00    -0.247 OA
HETATM   10  H   UNL     1      43.986 -16.514   2.392  1.00  0.00     0.171 HD
HETATM   11  H   UNL     1      43.747 -14.523   3.554  1.00  0.00     0.164 HD
BRANCH   8  12
HETATM   12  C   UNL     1      43.665 -18.220   3.529  1.00  0.00     0.069 A 
HETATM   13  C   UNL     1      43.988 -18.712   4.811  1.00  0.00     0.095 A 
HETATM   14  C   UNL     1      44.068 -20.097   5.006  1.00  0.00     0.039 A 
HETATM   15  C   UNL     1      43.884 -20.978   3.938  1.00  0.00     0.003 A 
HETATM   16  C   UNL     1      43.629 -20.486   2.662  1.00  0.00     0.002 A 
HETATM   17  C   UNL     1      43.529 -19.111   2.456  1.00  0.00     0.032 A 
BRANCH  13  18
HETATM   18  O   UNL     1      44.287 -17.785   5.776  1.00  0.00    -0.349 OA
BRANCH  18  19
HETATM   19  C   UNL     1      43.390 -17.646   6.875  1.00  0.00     0.171 C 
HETATM   20  C   UNL     1      43.429 -16.198   7.329  1.00  0.00     0.034 C 
ENDBRANCH  18  19
ENDBRANCH  13  18
ENDBRANCH   8  12
ENDBRANCH   5   6
ENDBRANCH   1   5
BRANCH   2  21
HETATM   21  N   UNL     1      43.422 -12.035   6.897  1.00  0.00    -0.184 NA
HETATM   22  C   UNL     1      43.201 -10.765   7.000  1.00  0.00     0.150 C 
BRANCH  22  23
HETATM   23  C   UNL     1      43.344 -10.062   8.292  1.00  0.00    -0.017 A 
HETATM   24  C   UNL     1      44.357 -10.413   9.187  1.00  0.00     0.015 A 
HETATM   25  C   UNL     1      44.451  -9.774  10.430  1.00  0.00     0.030 A 
HETATM   26  C   UNL     1      43.538  -8.781  10.786  1.00  0.00     0.034 A 
HETATM   27  C   UNL     1      42.536  -8.422   9.872  1.00  0.00     0.030 A 
HETATM   28  C   UNL     1      42.436  -9.060   8.629  1.00  0.00     0.015 A 
BRANCH  26  29
HETATM   29  N   UNL     1      43.543  -8.115  12.030  1.00  0.00    -0.328 N 
HETATM   30  C   UNL     1      42.775  -8.406  13.144  1.00  0.00     0.218 C 
HETATM   31  C   UNL     1      43.017  -7.437  14.275  1.00  0.00     0.117 C 
HETATM   32  O   UNL     1      41.989  -9.337  13.278  1.00  0.00    -0.274 OA
HETATM   33  H   UNL     1      44.174  -7.328  12.109  1.00  0.00     0.169 HD
ENDBRANCH  26  29
ENDBRANCH  22  23
ENDBRANCH   2  21
TORSDOF 8
ENDMDL
MODEL 2
REMARK VINA RESULT:      -8.0      2.084     11.188
REMARK  8 active torsions:
REMARK  status: ('A' for Active; 'I' for Inactive)
REMARK    1  A    between atoms: C_2  and  O_3 
REMARK    2  A    between atoms: O_3  and  C_4 
REMARK    3  A    between atoms: C_5  and  N_6 
REMARK       I    between atoms: N_6  and  C_7 
REMARK       I    between atoms: C_7  and  N_8 
REMARK    4  A    between atoms: N_8  and  C_9 
REMARK    5  A    between atoms: C_9  and  C_10 
REMARK       I    between atoms: C_10  and  N_11 
REMARK    6  A    between atoms: N_11  and  N_12 
REMARK    7  A    between atoms: C_13  and  C_14 
REMARK    8  A    between atoms: C_17  and  N_18 
REMARK       I    between atoms: N_18  and  C_19 
ROOT
HETATM    1  C   UNL     1      43.820 -11.337   7.225  1.00  0.00     0.255 C 
HETATM    2  N   UNL     1      42.751 -12.085   6.761  1.00  0.00    -0.246 N 
HETATM    3  O   UNL     1      44.995 -11.497   6.888  1.00  0.00    -0.270 OA
HETATM    4  H   UNL     1      41.799 -11.781   6.980  1.00  0.00     0.192 HD
ENDROOT
BRANCH   1   5
HETATM    5  C   UNL     1      43.416 -10.150   8.105  1.00  0.00     0.228 C 
BRANCH   5   6
HETATM    6  N   UNL     1      43.572 -10.343   9.542  1.00  0.00    -0.334 N 
HETATM    7  C   UNL     1      42.771  -9.656  10.427  1.00  0.00     0.321 C 
HETATM    8  N   UNL     1      43.210  -9.842  11.719  1.00  0.00    -0.306 N 
HETATM    9  O   UNL     1      41.761  -9.064  10.066  1.00  0.00    -0.247 OA
HETATM   10  H   UNL     1      43.501 -10.790  11.907  1.00  0.00     0.171 HD
HETATM   11  H   UNL     1      44.526 -10.424   9.861  1.00  0.00     0.164 HD
BRANCH   8  12
HETATM   12  C   UNL     1      42.774  -9.078  12.826  1.00  0.00     0.069 A 
HETATM   13  C   UNL     1      41.634  -9.402  13.590  1.00  0.00     0.095 A 
HETATM   14  C   UNL     1      41.297  -8.594  14.683  1.00  0.00     0.039 A 
HETATM   15  C   UNL     1      42.046  -7.453  14.983  1.00  0.00     0.003 A 
HETATM   16  C   UNL     1      43.132  -7.101  14.188  1.00  0.00     0.002 A 
HETATM   17  C   UNL     1      43.490  -7.906  13.108  1.00  0.00     0.032 A 
BRANCH  13  18
HETATM   18  O   UNL     1      40.872 -10.456  13.155  1.00  0.00    -0.349 OA
BRANCH  18  19
HETATM   19  C   UNL     1      39.504 -10.213  12.842  1.00  0.00     0.171 C 
HETATM   20  C   UNL     1      38.817 -11.556  12.672  1.00  0.00     0.034 C 
ENDBRANCH  18  19
ENDBRANCH  13  18
ENDBRANCH   8  12
ENDBRANCH   5   6
ENDBRANCH   1   5
BRANCH   2  21
HETATM   21  N   UNL     1      42.961 -13.077   5.850  1.00  0.00    -0.184 NA
HETATM   22  C   UNL     1      42.921 -14.282   6.319  1.00  0.00     0.150 C 
BRANCH  22  23
HETATM   23  C   UNL     1      43.078 -15.455   5.433  1.00  0.00    -0.017 A 
HETATM   24  C   UNL     1      43.950 -16.492   5.769  1.00  0.00     0.015 A 
HETATM   25  C   UNL     1      44.127 -17.574   4.897  1.00  0.00     0.030 A 
HETATM   26  C   UNL     1      43.434 -17.629   3.687  1.00  0.00     0.034 A 
HETATM   27  C   UNL     1      42.546 -16.591   3.368  1.00  0.00     0.030 A 
HETATM   28  C   UNL     1      42.367 -15.506   4.235  1.00  0.00     0.015 A 
BRANCH  26  29
HETATM   29  N   UNL     1      43.583 -18.664   2.740  1.00  0.00    -0.328 N 
HETATM   30  C   UNL     1      43.773 -20.012   2.989  1.00  0.00     0.218 C 
HETATM   31  C   UNL     1      43.945 -20.809   1.721  1.00  0.00     0.117 C 
HETATM   32  O   UNL     1      43.786 -20.567   4.081  1.00  0.00    -0.274 OA
HETATM   33  H   UNL     1      43.558 -18.383   1.768  1.00  0.00     0.169 HD
ENDBRANCH  26  29
ENDBRANCH  22  23
ENDBRANCH   2  21
TORSDOF 8
ENDMDL
MODEL 3
REMARK VINA RESULT:      -8.0      2.272     11.148
REMARK  8 active torsions:
REMARK  status: ('A' for Active; 'I' for Inactive)
REMARK    1  A    between atoms: C_2  and  O_3 
REMARK    2  A    between atoms: O_3  and  C_4 
REMARK    3  A    between atoms: C_5  and  N_6 
REMARK       I    between atoms: N_6  and  C_7 
REMARK       I    between atoms: C_7  and  N_8 
REMARK    4  A    between atoms: N_8  and  C_9 
REMARK    5  A    between atoms: C_9  and  C_10 
REMARK       I    between atoms: C_10  and  N_11 
REMARK    6  A    between atoms: N_11  and  N_12 
REMARK    7  A    between atoms: C_13  and  C_14 
REMARK    8  A    between atoms: C_17  and  N_18 
REMARK       I    between atoms: N_18  and  C_19 
ROOT
HETATM    1  C   UNL     1      44.846 -11.359   7.496  1.00  0.00     0.255 C 
HETATM    2  N   UNL     1      43.888 -12.355   7.406  1.00  0.00    -0.246 N 
HETATM    3  O   UNL     1      45.823 -11.247   6.752  1.00  0.00    -0.270 OA
HETATM    4  H   UNL     1      43.035 -12.278   7.966  1.00  0.00     0.192 HD
ENDROOT
BRANCH   1   5
HETATM    5  C   UNL     1      44.519 -10.270   8.522  1.00  0.00     0.228 C 
BRANCH   5   6
HETATM    6  N   UNL     1      43.450 -10.585   9.463  1.00  0.00    -0.334 N 
HETATM    7  C   UNL     1      42.904  -9.598  10.253  1.00  0.00     0.321 C 
HETATM    8  N   UNL     1      42.055 -10.144  11.190  1.00  0.00    -0.306 N 
HETATM    9  O   UNL     1      43.103  -8.408  10.038  1.00  0.00    -0.247 OA
HETATM   10  H   UNL     1      41.485 -10.891  10.821  1.00  0.00     0.171 HD
HETATM   11  H   UNL     1      43.556 -11.462   9.952  1.00  0.00     0.164 HD
BRANCH   8  12
HETATM   12  C   UNL     1      41.542  -9.442  12.305  1.00  0.00     0.069 A 
HETATM   13  C   UNL     1      40.273  -8.826  12.316  1.00  0.00     0.095 A 
HETATM   14  C   UNL     1      39.846  -8.173  13.479  1.00  0.00     0.039 A 
HETATM   15  C   UNL     1      40.682  -8.086  14.595  1.00  0.00     0.003 A 
HETATM   16  C   UNL     1      41.958  -8.638  14.557  1.00  0.00     0.002 A 
HETATM   17  C   UNL     1      42.391  -9.307  13.412  1.00  0.00     0.032 A 
BRANCH  13  18
HETATM   18  O   UNL     1      39.565  -8.838  11.141  1.00  0.00    -0.349 OA
BRANCH  18  19
HETATM   19  C   UNL     1      39.483  -7.626  10.395  1.00  0.00     0.171 C 
HETATM   20  C   UNL     1      39.729  -7.960   8.935  1.00  0.00     0.034 C 
ENDBRANCH  18  19
ENDBRANCH  13  18
ENDBRANCH   8  12
ENDBRANCH   5   6
ENDBRANCH   1   5
BRANCH   2  21
HETATM   21  N   UNL     1      43.982 -13.301   6.430  1.00  0.00    -0.184 NA
HETATM   22  C   UNL     1      43.505 -14.465   6.732  1.00  0.00     0.150 C 
BRANCH  22  23
HETATM   23  C   UNL     1      43.493 -15.569   5.750  1.00  0.00    -0.017 A 
HETATM   24  C   UNL     1      44.332 -16.674   5.906  1.00  0.00     0.015 A 
HETATM   25  C   UNL     1      44.346 -17.689   4.941  1.00  0.00     0.030 A 
HETATM   26  C   UNL     1      43.523 -17.609   3.817  1.00  0.00     0.034 A 
HETATM   27  C   UNL     1      42.670 -16.505   3.679  1.00  0.00     0.030 A 
HETATM   28  C   UNL     1      42.653 -15.485   4.640  1.00  0.00     0.015 A 
BRANCH  26  29
HETATM   29  N   UNL     1      43.504 -18.571   2.785  1.00  0.00    -0.328 N 
HETATM   30  C   UNL     1      43.687 -19.937   2.903  1.00  0.00     0.218 C 
HETATM   31  C   UNL     1      43.653 -20.637   1.568  1.00  0.00     0.117 C 
HETATM   32  O   UNL     1      43.840 -20.576   3.938  1.00  0.00    -0.274 OA
HETATM   33  H   UNL     1      43.349 -18.215   1.850  1.00  0.00     0.169 HD
ENDBRANCH  26  29
ENDBRANCH  22  23
ENDBRANCH   2  21
TORSDOF 8
ENDMDL
MODEL 4
REMARK VINA RESULT:      -7.7      2.327     10.801
REMARK  8 active torsions:
REMARK  status: ('A' for Active; 'I' for Inactive)
REMARK    1  A    between atoms: C_2  and  O_3 
REMARK    2  A    between atoms: O_3  and  C_4 
REMARK    3  A    between atoms: C_5  and  N_6 
REMARK       I    between atoms: N_6  and  C_7 
REMARK       I    between atoms: C_7  and  N_8 
REMARK    4  A    between atoms: N_8  and  C_9 
REMARK    5  A    between atoms: C_9  and  C_10 
REMARK       I    between atoms: C_10  and  N_11 
REMARK    6  A    between atoms: N_11  and  N_12 
REMARK    7  A    between atoms: C_13  and  C_14 
REMARK    8  A    between atoms: C_17  and  N_18 
REMARK       I    between atoms: N_18  and  C_19 
ROOT
HETATM    1  C   UNL     1      39.475 -11.337   6.677  1.00  0.00     0.255 C 
HETATM    2  N   UNL     1      40.743 -11.874   6.527  1.00  0.00    -0.246 N 
HETATM    3  O   UNL     1      38.431 -11.871   6.296  1.00  0.00    -0.270 OA
HETATM    4  H   UNL     1      41.530 -11.433   7.010  1.00  0.00     0.192 HD
ENDROOT
BRANCH   1   5
HETATM    5  C   UNL     1      39.434 -10.057   7.516  1.00  0.00     0.228 C 
BRANCH   5   6
HETATM    6  N   UNL     1      39.614 -10.233   8.952  1.00  0.00    -0.334 N 
HETATM    7  C   UNL     1      40.210  -9.246   9.706  1.00  0.00     0.321 C 
HETATM    8  N   UNL     1      40.448  -9.694  10.986  1.00  0.00    -0.306 N 
HETATM    9  O   UNL     1      40.383  -8.113   9.273  1.00  0.00    -0.247 OA
HETATM   10  H   UNL     1      39.693 -10.251  11.359  1.00  0.00     0.171 HD
HETATM   11  H   UNL     1      39.891 -11.161   9.237  1.00  0.00     0.164 HD
BRANCH   8  12
HETATM   12  C   UNL     1      41.271  -9.027  11.923  1.00  0.00     0.069 A 
HETATM   13  C   UNL     1      42.655  -8.831  11.736  1.00  0.00     0.095 A 
HETATM   14  C   UNL     1      43.381  -8.139  12.713  1.00  0.00     0.039 A 
HETATM   15  C   UNL     1      42.757  -7.693  13.881  1.00  0.00     0.003 A 
HETATM   16  C   UNL     1      41.405  -7.945  14.091  1.00  0.00     0.002 A 
HETATM   17  C   UNL     1      40.666  -8.618  13.119  1.00  0.00     0.032 A 
BRANCH  13  18
HETATM   18  O   UNL     1      43.223  -9.413  10.631  1.00  0.00    -0.349 OA
BRANCH  18  19
HETATM   19  C   UNL     1      44.261 -10.368  10.833  1.00  0.00     0.171 C 
HETATM   20  C   UNL     1      45.473  -9.916  10.038  1.00  0.00     0.034 C 
ENDBRANCH  18  19
ENDBRANCH  13  18
ENDBRANCH   8  12
ENDBRANCH   5   6
ENDBRANCH   1   5
BRANCH   2  21
HETATM   21  N   UNL     1      40.899 -13.090   5.932  1.00  0.00    -0.184 NA
HETATM   22  C   UNL     1      41.837 -13.159   5.043  1.00  0.00     0.150 C 
BRANCH  22  23
HETATM   23  C   UNL     1      42.152 -14.430   4.358  1.00  0.00    -0.017 A 
HETATM   24  C   UNL     1      42.991 -14.451   3.242  1.00  0.00     0.015 A 
HETATM   25  C   UNL     1      43.242 -15.655   2.572  1.00  0.00     0.030 A 
HETATM   26  C   UNL     1      42.659 -16.844   3.011  1.00  0.00     0.034 A 
HETATM   27  C   UNL     1      41.833 -16.816   4.143  1.00  0.00     0.030 A 
HETATM   28  C   UNL     1      41.577 -15.614   4.817  1.00  0.00     0.015 A 
BRANCH  26  29
HETATM   29  N   UNL     1      42.832 -18.090   2.371  1.00  0.00    -0.328 N 
HETATM   30  C   UNL     1      43.654 -19.131   2.765  1.00  0.00     0.218 C 
HETATM   31  C   UNL     1      43.617 -20.287   1.797  1.00  0.00     0.117 C 
HETATM   32  O   UNL     1      44.340 -19.189   3.779  1.00  0.00    -0.274 OA
HETATM   33  H   UNL     1      42.301 -18.230   1.522  1.00  0.00     0.169 HD
ENDBRANCH  26  29
ENDBRANCH  22  23
ENDBRANCH   2  21
TORSDOF 8
ENDMDL
MODEL 5
REMARK VINA RESULT:      -7.7      2.477      4.831
REMARK  8 active torsions:
REMARK  status: ('A' for Active; 'I' for Inactive)
REMARK    1  A    between atoms: C_2  and  O_3 
REMARK    2  A    between atoms: O_3  and  C_4 
REMARK    3  A    between atoms: C_5  and  N_6 
REMARK       I    between atoms: N_6  and  C_7 
REMARK       I    between atoms: C_7  and  N_8 
REMARK    4  A    between atoms: N_8  and  C_9 
REMARK    5  A    between atoms: C_9  and  C_10 
REMARK       I    between atoms: C_10  and  N_11 
REMARK    6  A    between atoms: N_11  and  N_12 
REMARK    7  A    between atoms: C_13  and  C_14 
REMARK    8  A    between atoms: C_17  and  N_18 
REMARK       I    between atoms: N_18  and  C_19 
ROOT
HETATM    1  C   UNL     1      43.118  -9.286   8.109  1.00  0.00     0.255 C 
HETATM    2  N   UNL     1      42.521  -9.828   9.235  1.00  0.00    -0.246 N 
HETATM    3  O   UNL     1      43.509  -8.121   8.007  1.00  0.00    -0.270 OA
HETATM    4  H   UNL     1      42.371 -10.840   9.280  1.00  0.00     0.192 HD
ENDROOT
BRANCH   1   5
HETATM    5  C   UNL     1      43.415 -10.307   7.007  1.00  0.00     0.228 C 
BRANCH   5   6
HETATM    6  N   UNL     1      42.735 -11.591   7.131  1.00  0.00    -0.334 N 
HETATM    7  C   UNL     1      43.396 -12.761   6.831  1.00  0.00     0.321 C 
HETATM    8  N   UNL     1      42.521 -13.825   6.835  1.00  0.00    -0.306 N 
HETATM    9  O   UNL     1      44.613 -12.804   6.693  1.00  0.00    -0.247 OA
HETATM   10  H   UNL     1      41.849 -13.783   7.587  1.00  0.00     0.171 HD
HETATM   11  H   UNL     1      41.773 -11.596   6.823  1.00  0.00     0.164 HD
BRANCH   8  12
HETATM   12  C   UNL     1      42.822 -15.106   6.319  1.00  0.00     0.069 A 
HETATM   13  C   UNL     1      42.747 -15.426   4.947  1.00  0.00     0.095 A 
HETATM   14  C   UNL     1      43.087 -16.719   4.532  1.00  0.00     0.039 A 
HETATM   15  C   UNL     1      43.446 -17.695   5.465  1.00  0.00     0.003 A 
HETATM   16  C   UNL     1      43.456 -17.393   6.823  1.00  0.00     0.002 A 
HETATM   17  C   UNL     1      43.137 -16.105   7.250  1.00  0.00     0.032 A 
BRANCH  13  18
HETATM   18  O   UNL     1      42.258 -14.457   4.108  1.00  0.00    -0.349 OA
BRANCH  18  19
HETATM   19  C   UNL     1      43.112 -13.968   3.077  1.00  0.00     0.171 C 
HETATM   20  C   UNL     1      43.016 -12.453   3.069  1.00  0.00     0.034 C 
ENDBRANCH  18  19
ENDBRANCH  13  18
ENDBRANCH   8  12
ENDBRANCH   5   6
ENDBRANCH   1   5
BRANCH   2  21
HETATM   21  N   UNL     1      42.341  -9.059  10.345  1.00  0.00    -0.184 NA
HETATM   22  C   UNL     1      42.757  -9.577  11.455  1.00  0.00     0.150 C 
BRANCH  22  23
HETATM   23  C   UNL     1      42.674  -8.831  12.728  1.00  0.00    -0.017 A 
HETATM   24  C   UNL     1      41.763  -9.206  13.718  1.00  0.00     0.015 A 
HETATM   25  C   UNL     1      41.660  -8.460  14.899  1.00  0.00     0.030 A 
HETATM   26  C   UNL     1      42.464  -7.338  15.101  1.00  0.00     0.034 A 
HETATM   27  C   UNL     1      43.389  -6.981  14.109  1.00  0.00     0.030 A 
HETATM   28  C   UNL     1      43.496  -7.721  12.925  1.00  0.00     0.015 A 
BRANCH  26  29
HETATM   29  N   UNL     1      42.397  -6.515  16.245  1.00  0.00    -0.328 N 
HETATM   30  C   UNL     1      41.461  -5.533  16.522  1.00  0.00     0.218 C 
HETATM   31  C   UNL     1      41.745  -4.822  17.821  1.00  0.00     0.117 C 
HETATM   32  O   UNL     1      40.479  -5.237  15.851  1.00  0.00    -0.274 OA
HETATM   33  H   UNL     1      43.123  -6.654  16.935  1.00  0.00     0.169 HD
ENDBRANCH  26  29
ENDBRANCH  22  23
ENDBRANCH   2  21
TORSDOF 8
ENDMDL
MODEL 6
REMARK VINA RESULT:      -7.7      2.573      4.916
REMARK  8 active torsions:
REMARK  status: ('A' for Active; 'I' for Inactive)
REMARK    1  A    between atoms: C_2  and  O_3 
REMARK    2  A    between atoms: O_3  and  C_4 
REMARK    3  A    between atoms: C_5  and  N_6 
REMARK       I    between atoms: N_6  and  C_7 
REMARK       I    between atoms: C_7  and  N_8 
REMARK    4  A    between atoms: N_8  and  C_9 
REMARK    5  A    between atoms: C_9  and  C_10 
REMARK       I    between atoms: C_10  and  N_11 
REMARK    6  A    between atoms: N_11  and  N_12 
REMARK    7  A    between atoms: C_13  and  C_14 
REMARK    8  A    between atoms: C_17  and  N_18 
REMARK       I    between atoms: N_18  and  C_19 
ROOT
HETATM    1  C   UNL     1      44.036 -10.198   8.558  1.00  0.00     0.255 C 
HETATM    2  N   UNL     1      43.182 -10.450   9.618  1.00  0.00    -0.246 N 
HETATM    3  O   UNL     1      44.636  -9.137   8.369  1.00  0.00    -0.270 OA
HETATM    4  H   UNL     1      42.852 -11.407   9.774  1.00  0.00     0.192 HD
ENDROOT
BRANCH   1   5
HETATM    5  C   UNL     1      44.322 -11.421   7.681  1.00  0.00     0.228 C 
BRANCH   5   6
HETATM    6  N   UNL     1      43.209 -12.347   7.502  1.00  0.00    -0.334 N 
HETATM    7  C   UNL     1      43.049 -13.021   6.311  1.00  0.00     0.321 C 
HETATM    8  N   UNL     1      41.845 -13.688   6.293  1.00  0.00    -0.306 N 
HETATM    9  O   UNL     1      43.936 -13.068   5.467  1.00  0.00    -0.247 OA
HETATM   10  H   UNL     1      41.619 -14.125   7.174  1.00  0.00     0.171 HD
HETATM   11  H   UNL     1      42.332 -12.043   7.899  1.00  0.00     0.164 HD
BRANCH   8  12
HETATM   12  C   UNL     1      41.265 -14.254   5.134  1.00  0.00     0.069 A 
HETATM   13  C   UNL     1      41.399 -15.614   4.787  1.00  0.00     0.095 A 
HETATM   14  C   UNL     1      40.768 -16.084   3.628  1.00  0.00     0.039 A 
HETATM   15  C   UNL     1      40.060 -15.211   2.799  1.00  0.00     0.003 A 
HETATM   16  C   UNL     1      39.985 -13.857   3.111  1.00  0.00     0.002 A 
HETATM   17  C   UNL     1      40.593 -13.378   4.270  1.00  0.00     0.032 A 
BRANCH  13  18
HETATM   18  O   UNL     1      42.219 -16.380   5.575  1.00  0.00    -0.349 OA
BRANCH  18  19
HETATM   19  C   UNL     1      43.533 -16.663   5.103  1.00  0.00     0.171 C 
HETATM   20  C   UNL     1      44.496 -16.480   6.263  1.00  0.00     0.034 C 
ENDBRANCH  18  19
ENDBRANCH  13  18
ENDBRANCH   8  12
ENDBRANCH   5   6
ENDBRANCH   1   5
BRANCH   2  21
HETATM   21  N   UNL     1      42.964  -9.489  10.559  1.00  0.00    -0.184 NA
HETATM   22  C   UNL     1      42.936  -9.904  11.784  1.00  0.00     0.150 C 
BRANCH  22  23
HETATM   23  C   UNL     1      42.762  -8.961  12.909  1.00  0.00    -0.017 A 
HETATM   24  C   UNL     1      43.491  -7.772  12.964  1.00  0.00     0.015 A 
HETATM   25  C   UNL     1      43.353  -6.911  14.060  1.00  0.00     0.030 A 
HETATM   26  C   UNL     1      42.488  -7.231  15.107  1.00  0.00     0.034 A 
HETATM   27  C   UNL     1      41.747  -8.419  15.034  1.00  0.00     0.030 A 
HETATM   28  C   UNL     1      41.882  -9.285  13.941  1.00  0.00     0.015 A 
BRANCH  26  29
HETATM   29  N   UNL     1      42.320  -6.437  16.261  1.00  0.00    -0.328 N 
HETATM   30  C   UNL     1      41.442  -5.382  16.436  1.00  0.00     0.218 C 
HETATM   31  C   UNL     1      41.586  -4.736  17.792  1.00  0.00     0.117 C 
HETATM   32  O   UNL     1      40.603  -4.978  15.640  1.00  0.00    -0.274 OA
HETATM   33  H   UNL     1      42.919  -6.662  17.045  1.00  0.00     0.169 HD
ENDBRANCH  26  29
ENDBRANCH  22  23
ENDBRANCH   2  21
TORSDOF 8
ENDMDL
MODEL 7
REMARK VINA RESULT:      -7.4      2.467     11.105
REMARK  8 active torsions:
REMARK  status: ('A' for Active; 'I' for Inactive)
REMARK    1  A    between atoms: C_2  and  O_3 
REMARK    2  A    between atoms: O_3  and  C_4 
REMARK    3  A    between atoms: C_5  and  N_6 
REMARK       I    between atoms: N_6  and  C_7 
REMARK       I    between atoms: C_7  and  N_8 
REMARK    4  A    between atoms: N_8  and  C_9 
REMARK    5  A    between atoms: C_9  and  C_10 
REMARK       I    between atoms: C_10  and  N_11 
REMARK    6  A    between atoms: N_11  and  N_12 
REMARK    7  A    between atoms: C_13  and  C_14 
REMARK    8  A    between atoms: C_17  and  N_18 
REMARK       I    between atoms: N_18  and  C_19 
ROOT
HETATM    1  C   UNL     1      44.542 -11.362   7.512  1.00  0.00     0.255 C 
HETATM    2  N   UNL     1      43.676 -12.442   7.569  1.00  0.00    -0.246 N 
HETATM    3  O   UNL     1      45.547 -11.298   6.801  1.00  0.00    -0.270 OA
HETATM    4  H   UNL     1      42.789 -12.342   8.070  1.00  0.00     0.192 HD
ENDROOT
BRANCH   1   5
HETATM    5  C   UNL     1      44.069 -10.140   8.305  1.00  0.00     0.228 C 
BRANCH   5   6
HETATM    6  N   UNL     1      42.799 -10.291   9.006  1.00  0.00    -0.334 N 
HETATM    7  C   UNL     1      42.069  -9.181   9.372  1.00  0.00     0.321 C 
HETATM    8  N   UNL     1      41.013  -9.543  10.178  1.00  0.00    -0.306 N 
HETATM    9  O   UNL     1      42.314  -8.066   8.926  1.00  0.00    -0.247 OA
HETATM   10  H   UNL     1      40.556 -10.391   9.877  1.00  0.00     0.171 HD
HETATM   11  H   UNL     1      42.781 -11.018   9.706  1.00  0.00     0.164 HD
BRANCH   8  12
HETATM   12  C   UNL     1      40.235  -8.631  10.927  1.00  0.00     0.069 A 
HETATM   13  C   UNL     1      40.391  -8.439  12.316  1.00  0.00     0.095 A 
HETATM   14  C   UNL     1      39.585  -7.495  12.966  1.00  0.00     0.039 A 
HETATM   15  C   UNL     1      38.606  -6.790  12.261  1.00  0.00     0.003 A 
HETATM   16  C   UNL     1      38.412  -7.029  10.905  1.00  0.00     0.002 A 
HETATM   17  C   UNL     1      39.218  -7.953  10.241  1.00  0.00     0.032 A 
BRANCH  13  18
HETATM   18  O   UNL     1      41.277  -9.261  12.963  1.00  0.00    -0.349 OA
BRANCH  18  19
HETATM   19  C   UNL     1      42.324  -8.659  13.720  1.00  0.00     0.171 C 
HETATM   20  C   UNL     1      43.403  -8.211  12.751  1.00  0.00     0.034 C 
ENDBRANCH  18  19
ENDBRANCH  13  18
ENDBRANCH   8  12
ENDBRANCH   5   6
ENDBRANCH   1   5
BRANCH   2  21
HETATM   21  N   UNL     1      43.903 -13.535   6.789  1.00  0.00    -0.184 NA
HETATM   22  C   UNL     1      42.852 -14.063   6.249  1.00  0.00     0.150 C 
BRANCH  22  23
HETATM   23  C   UNL     1      42.957 -15.221   5.337  1.00  0.00    -0.017 A 
HETATM   24  C   UNL     1      43.199 -16.502   5.834  1.00  0.00     0.015 A 
HETATM   25  C   UNL     1      43.347 -17.583   4.955  1.00  0.00     0.030 A 
HETATM   26  C   UNL     1      43.251 -17.392   3.576  1.00  0.00     0.034 A 
HETATM   27  C   UNL     1      42.987 -16.104   3.087  1.00  0.00     0.030 A 
HETATM   28  C   UNL     1      42.842 -15.019   3.962  1.00  0.00     0.015 A 
BRANCH  26  29
HETATM   29  N   UNL     1      43.421 -18.419   2.624  1.00  0.00    -0.328 N 
HETATM   30  C   UNL     1      43.743 -19.744   2.864  1.00  0.00     0.218 C 
HETATM   31  C   UNL     1      43.894 -20.535   1.589  1.00  0.00     0.117 C 
HETATM   32  O   UNL     1      43.882 -20.286   3.954  1.00  0.00    -0.274 OA
HETATM   33  H   UNL     1      43.303 -18.151   1.656  1.00  0.00     0.169 HD
ENDBRANCH  26  29
ENDBRANCH  22  23
ENDBRANCH   2  21
TORSDOF 8
ENDMDL
MODEL 8
REMARK VINA RESULT:      -7.3      2.578     11.035
REMARK  8 active torsions:
REMARK  status: ('A' for Active; 'I' for Inactive)
REMARK    1  A    between atoms: C_2  and  O_3 
REMARK    2  A    between atoms: O_3  and  C_4 
REMARK    3  A    between atoms: C_5  and  N_6 
REMARK       I    between atoms: N_6  and  C_7 
REMARK       I    between atoms: C_7  and  N_8 
REMARK    4  A    between atoms: N_8  and  C_9 
REMARK    5  A    between atoms: C_9  and  C_10 
REMARK       I    between atoms: C_10  and  N_11 
REMARK    6  A    between atoms: N_11  and  N_12 
REMARK    7  A    between atoms: C_13  and  C_14 
REMARK    8  A    between atoms: C_17  and  N_18 
REMARK       I    between atoms: N_18  and  C_19 
ROOT
HETATM    1  C   UNL     1      39.646 -11.367   6.436  1.00  0.00     0.255 C 
HETATM    2  N   UNL     1      40.964 -11.735   6.219  1.00  0.00    -0.246 N 
HETATM    3  O   UNL     1      38.662 -12.016   6.076  1.00  0.00    -0.270 OA
HETATM    4  H   UNL     1      41.710 -11.213   6.687  1.00  0.00     0.192 HD
ENDROOT
BRANCH   1   5
HETATM    5  C   UNL     1      39.482 -10.129   7.322  1.00  0.00     0.228 C 
BRANCH   5   6
HETATM    6  N   UNL     1      39.694 -10.338   8.750  1.00  0.00    -0.334 N 
HETATM    7  C   UNL     1      40.216  -9.330   9.531  1.00  0.00     0.321 C 
HETATM    8  N   UNL     1      40.506  -9.800  10.793  1.00  0.00    -0.306 N 
HETATM    9  O   UNL     1      40.291  -8.173   9.136  1.00  0.00    -0.247 OA
HETATM   10  H   UNL     1      39.803 -10.429  11.154  1.00  0.00     0.171 HD
HETATM   11  H   UNL     1      40.048 -11.249   9.000  1.00  0.00     0.164 HD
BRANCH   8  12
HETATM   12  C   UNL     1      41.283  -9.100  11.744  1.00  0.00     0.069 A 
HETATM   13  C   UNL     1      40.731  -8.445  12.865  1.00  0.00     0.095 A 
HETATM   14  C   UNL     1      41.588  -7.796  13.762  1.00  0.00     0.039 A 
HETATM   15  C   UNL     1      42.965  -7.753  13.527  1.00  0.00     0.003 A 
HETATM   16  C   UNL     1      43.498  -8.345  12.387  1.00  0.00     0.002 A 
HETATM   17  C   UNL     1      42.659  -9.009  11.493  1.00  0.00     0.032 A 
BRANCH  13  18
HETATM   18  O   UNL     1      39.363  -8.416  12.957  1.00  0.00    -0.349 OA
BRANCH  18  19
HETATM   19  C   UNL     1      38.679  -7.275  12.445  1.00  0.00     0.171 C 
HETATM   20  C   UNL     1      37.969  -6.597  13.603  1.00  0.00     0.034 C 
ENDBRANCH  18  19
ENDBRANCH  13  18
ENDBRANCH   8  12
ENDBRANCH   5   6
ENDBRANCH   1   5
BRANCH   2  21
HETATM   21  N   UNL     1      41.246 -12.902   5.574  1.00  0.00    -0.184 NA
HETATM   22  C   UNL     1      42.346 -13.484   5.928  1.00  0.00     0.150 C 
BRANCH  22  23
HETATM   23  C   UNL     1      42.748 -14.783   5.350  1.00  0.00    -0.017 A 
HETATM   24  C   UNL     1      43.173 -15.829   6.170  1.00  0.00     0.015 A 
HETATM   25  C   UNL     1      43.599 -17.038   5.605  1.00  0.00     0.030 A 
HETATM   26  C   UNL     1      43.602 -17.211   4.221  1.00  0.00     0.034 A 
HETATM   27  C   UNL     1      43.155 -16.160   3.406  1.00  0.00     0.030 A 
HETATM   28  C   UNL     1      42.730 -14.948   3.965  1.00  0.00     0.015 A 
BRANCH  26  29
HETATM   29  N   UNL     1      44.048 -18.383   3.573  1.00  0.00    -0.328 N 
HETATM   30  C   UNL     1      43.394 -19.100   2.587  1.00  0.00     0.218 C 
HETATM   31  C   UNL     1      44.158 -20.333   2.174  1.00  0.00     0.117 C 
HETATM   32  O   UNL     1      42.330 -18.817   2.048  1.00  0.00    -0.274 OA
HETATM   33  H   UNL     1      44.944 -18.742   3.875  1.00  0.00     0.169 HD
ENDBRANCH  26  29
ENDBRANCH  22  23
ENDBRANCH   2  21
TORSDOF 8
ENDMDL
MODEL 9
REMARK VINA RESULT:      -7.1      2.963      9.701
REMARK  8 active torsions:
REMARK  status: ('A' for Active; 'I' for Inactive)
REMARK    1  A    between atoms: C_2  and  O_3 
REMARK    2  A    between atoms: O_3  and  C_4 
REMARK    3  A    between atoms: C_5  and  N_6 
REMARK       I    between atoms: N_6  and  C_7 
REMARK       I    between atoms: C_7  and  N_8 
REMARK    4  A    between atoms: N_8  and  C_9 
REMARK    5  A    between atoms: C_9  and  C_10 
REMARK       I    between atoms: C_10  and  N_11 
REMARK    6  A    between atoms: N_11  and  N_12 
REMARK    7  A    between atoms: C_13  and  C_14 
REMARK    8  A    between atoms: C_17  and  N_18 
REMARK       I    between atoms: N_18  and  C_19 
ROOT
HETATM    1  C   UNL     1      39.645 -10.637   3.696  1.00  0.00     0.255 C 
HETATM    2  N   UNL     1      40.975 -10.958   3.479  1.00  0.00    -0.246 N 
HETATM    3  O   UNL     1      38.689 -11.365   3.424  1.00  0.00    -0.270 OA
HETATM    4  H   UNL     1      41.703 -10.358   3.878  1.00  0.00     0.192 HD
ENDROOT
BRANCH   1   5
HETATM    5  C   UNL     1      39.436  -9.332   4.470  1.00  0.00     0.228 C 
BRANCH   5   6
HETATM    6  N   UNL     1      40.006  -9.292   5.812  1.00  0.00    -0.334 N 
HETATM    7  C   UNL     1      41.334  -8.975   5.995  1.00  0.00     0.321 C 
HETATM    8  N   UNL     1      41.702  -9.178   7.306  1.00  0.00    -0.306 N 
HETATM    9  O   UNL     1      42.015  -8.485   5.102  1.00  0.00    -0.247 OA
HETATM   10  H   UNL     1      40.999  -8.881   7.967  1.00  0.00     0.171 HD
HETATM   11  H   UNL     1      39.690 -10.023   6.433  1.00  0.00     0.164 HD
BRANCH   8  12
HETATM   12  C   UNL     1      43.039  -9.197   7.764  1.00  0.00     0.069 A 
HETATM   13  C   UNL     1      43.860 -10.344   7.712  1.00  0.00     0.095 A 
HETATM   14  C   UNL     1      45.180 -10.256   8.171  1.00  0.00     0.039 A 
HETATM   15  C   UNL     1      45.665  -9.066   8.720  1.00  0.00     0.003 A 
HETATM   16  C   UNL     1      44.833  -7.957   8.829  1.00  0.00     0.002 A 
HETATM   17  C   UNL     1      43.521  -8.024   8.361  1.00  0.00     0.032 A 
BRANCH  13  18
HETATM   18  O   UNL     1      43.275 -11.509   7.285  1.00  0.00    -0.349 OA
BRANCH  18  19
HETATM   19  C   UNL     1      44.110 -12.503   6.697  1.00  0.00     0.171 C 
HETATM   20  C   UNL     1      43.449 -13.853   6.910  1.00  0.00     0.034 C 
ENDBRANCH  18  19
ENDBRANCH  13  18
ENDBRANCH   8  12
ENDBRANCH   5   6
ENDBRANCH   1   5
BRANCH   2  21
HETATM   21  N   UNL     1      41.303 -12.163   2.936  1.00  0.00    -0.184 NA
HETATM   22  C   UNL     1      41.836 -13.016   3.751  1.00  0.00     0.150 C 
BRANCH  22  23
HETATM   23  C   UNL     1      42.191 -14.381   3.309  1.00  0.00    -0.017 A 
HETATM   24  C   UNL     1      43.016 -14.581   2.201  1.00  0.00     0.015 A 
HETATM   25  C   UNL     1      43.304 -15.879   1.763  1.00  0.00     0.030 A 
HETATM   26  C   UNL     1      42.774 -16.985   2.428  1.00  0.00     0.034 A 
HETATM   27  C   UNL     1      41.962 -16.774   3.552  1.00  0.00     0.030 A 
HETATM   28  C   UNL     1      41.668 -15.477   3.993  1.00  0.00     0.015 A 
BRANCH  26  29
HETATM   29  N   UNL     1      42.987 -18.322   2.030  1.00  0.00    -0.328 N 
HETATM   30  C   UNL     1      43.793 -19.264   2.644  1.00  0.00     0.218 C 
HETATM   31  C   UNL     1      43.813 -20.574   1.896  1.00  0.00     0.117 C 
HETATM   32  O   UNL     1      44.426 -19.131   3.685  1.00  0.00    -0.274 OA
HETATM   33  H   UNL     1      42.501 -18.618   1.194  1.00  0.00     0.169 HD
ENDBRANCH  26  29
ENDBRANCH  22  23
ENDBRANCH   2  21
TORSDOF 8
ENDMDL
MODEL 10
REMARK VINA RESULT:      -7.1      7.298     10.494
REMARK  8 active torsions:
REMARK  status: ('A' for Active; 'I' for Inactive)
REMARK    1  A    between atoms: C_2  and  O_3 
REMARK    2  A    between atoms: O_3  and  C_4 
REMARK    3  A    between atoms: C_5  and  N_6 
REMARK       I    between atoms: N_6  and  C_7 
REMARK       I    between atoms: C_7  and  N_8 
REMARK    4  A    between atoms: N_8  and  C_9 
REMARK    5  A    between atoms: C_9  and  C_10 
REMARK       I    between atoms: C_10  and  N_11 
REMARK    6  A    between atoms: N_11  and  N_12 
REMARK    7  A    between atoms: C_13  and  C_14 
REMARK    8  A    between atoms: C_17  and  N_18 
REMARK       I    between atoms: N_18  and  C_19 
ROOT
HETATM    1  C   UNL     1      39.985 -13.273  -1.133  1.00  0.00     0.255 C 
HETATM    2  N   UNL     1      41.190 -12.599  -1.238  1.00  0.00    -0.246 N 
HETATM    3  O   UNL     1      38.996 -13.068  -1.840  1.00  0.00    -0.270 OA
HETATM    4  H   UNL     1      42.000 -12.943  -0.714  1.00  0.00     0.192 HD
ENDROOT
BRANCH   1   5
HETATM    5  C   UNL     1      40.008 -14.443  -0.145  1.00  0.00     0.228 C 
BRANCH   5   6
HETATM    6  N   UNL     1      41.313 -14.775   0.416  1.00  0.00    -0.334 N 
HETATM    7  C   UNL     1      41.406 -15.420   1.629  1.00  0.00     0.321 C 
HETATM    8  N   UNL     1      42.715 -15.464   2.053  1.00  0.00    -0.306 N 
HETATM    9  O   UNL     1      40.437 -15.951   2.159  1.00  0.00    -0.247 OA
HETATM   10  H   UNL     1      43.368 -15.658   1.308  1.00  0.00     0.171 HD
HETATM   11  H   UNL     1      42.022 -14.066   0.295  1.00  0.00     0.164 HD
BRANCH   8  12
HETATM   12  C   UNL     1      43.118 -15.819   3.361  1.00  0.00     0.069 A 
HETATM   13  C   UNL     1      43.616 -17.095   3.698  1.00  0.00     0.095 A 
HETATM   14  C   UNL     1      44.009 -17.343   5.019  1.00  0.00     0.039 A 
HETATM   15  C   UNL     1      43.863 -16.360   6.002  1.00  0.00     0.003 A 
HETATM   16  C   UNL     1      43.311 -15.125   5.678  1.00  0.00     0.002 A 
HETATM   17  C   UNL     1      42.931 -14.858   4.364  1.00  0.00     0.032 A 
BRANCH  13  18
HETATM   18  O   UNL     1      43.604 -18.048   2.712  1.00  0.00    -0.349 OA
BRANCH  18  19
HETATM   19  C   UNL     1      43.940 -19.387   3.068  1.00  0.00     0.171 C 
HETATM   20  C   UNL     1      43.314 -20.314   2.041  1.00  0.00     0.034 C 
ENDBRANCH  18  19
ENDBRANCH  13  18
ENDBRANCH   8  12
ENDBRANCH   5   6
ENDBRANCH   1   5
BRANCH   2  21
HETATM   21  N   UNL     1      41.349 -11.636  -2.188  1.00  0.00    -0.184 NA
HETATM   22  C   UNL     1      41.139 -10.422  -1.793  1.00  0.00     0.150 C 
BRANCH  22  23
HETATM   23  C   UNL     1      41.328  -9.274  -2.704  1.00  0.00    -0.017 A 
HETATM   24  C   UNL     1      42.144  -8.201  -2.343  1.00  0.00     0.015 A 
HETATM   25  C   UNL     1      42.275  -7.097  -3.195  1.00  0.00     0.030 A 
HETATM   26  C   UNL     1      41.593  -7.057  -4.412  1.00  0.00     0.034 A 
HETATM   27  C   UNL     1      40.790  -8.148  -4.774  1.00  0.00     0.030 A 
HETATM   28  C   UNL     1      40.654  -9.254  -3.925  1.00  0.00     0.015 A 
BRANCH  26  29
HETATM   29  N   UNL     1      41.643  -5.969  -5.308  1.00  0.00    -0.328 N 
HETATM   30  C   UNL     1      42.654  -5.660  -6.202  1.00  0.00     0.218 C 
HETATM   31  C   UNL     1      42.379  -4.384  -6.958  1.00  0.00     0.117 C 
HETATM   32  O   UNL     1      43.668  -6.311  -6.425  1.00  0.00    -0.274 OA
HETATM   33  H   UNL     1      40.852  -5.338  -5.285  1.00  0.00     0.169 HD
ENDBRANCH  26  29
ENDBRANCH  22  23
ENDBRANCH   2  21
TORSDOF 8
ENDMDL
