MODEL 1
REMARK VINA RESULT:      -8.3      0.000      0.000
REMARK  3 active torsions:
REMARK  status: ('A' for Active; 'I' for Inactive)
REMARK    1  A    between atoms: C_3  and  N_4 
REMARK       I    between atoms: N_4  and  C_5 
REMARK    2  A    between atoms: C_5  and  C_6 
REMARK    3  A    between atoms: C_6  and  C_7 
ROOT
HETATM    1  C   UNL     1      41.946 -13.319   1.557  1.00  0.00     0.286 C 
HETATM    2  N   UNL     1      41.348 -14.091   0.381  1.00  0.00    -0.056 N 
HETATM    3  H   UNL     1      41.982 -13.991  -0.421  1.00  0.00     0.278 HD
HETATM    4  H   UNL     1      41.389 -15.102   0.633  1.00  0.00     0.278 HD
HETATM    5  C   UNL     1      39.947 -13.678   0.012  1.00  0.00     0.209 C 
HETATM    6  C   UNL     1      39.920 -12.149  -0.251  1.00  0.00     0.115 C 
HETATM    7  N   UNL     1      40.573 -11.388   0.815  1.00  0.00    -0.353 N 
HETATM    8  C   UNL     1      41.707 -11.806   1.465  1.00  0.00     0.249 C 
HETATM    9  O   UNL     1      42.417 -11.000   2.055  1.00  0.00    -0.271 OA
HETATM   10  C   UNL     1      39.474 -14.497  -1.191  1.00  0.00     0.035 C 
HETATM   11  C   UNL     1      40.113 -14.073  -2.512  1.00  0.00     0.002 C 
HETATM   12  C   UNL     1      39.965 -12.575  -2.749  1.00  0.00     0.002 C 
HETATM   13  C   UNL     1      40.557 -11.773  -1.597  1.00  0.00     0.027 C 
HETATM   14  H   UNL     1      40.460 -10.375   0.815  1.00  0.00     0.163 HD
ENDROOT
BRANCH   1  15
HETATM   15  C   UNL     1      41.386 -13.793   2.903  1.00  0.00     0.146 C 
BRANCH  15  16
HETATM   16  C   UNL     1      41.436 -15.295   3.030  1.00  0.00     0.224 C 
HETATM   17  N   UNL     1      42.720 -15.761   3.194  1.00  0.00    -0.327 N 
HETATM   18  H   UNL     1      43.418 -15.068   3.446  1.00  0.00     0.169 HD
HETATM   19  O   UNL     1      40.381 -15.921   3.081  1.00  0.00    -0.273 OA
BRANCH  17  20
HETATM   20  C   UNL     1      43.171 -17.095   3.326  1.00  0.00     0.040 A 
HETATM   21  C   UNL     1      43.849 -17.647   4.427  1.00  0.00    -0.035 A 
HETATM   22  C   UNL     1      44.128 -16.929   5.716  1.00  0.00     0.050 C 
HETATM   23  C   UNL     1      44.260 -18.997   4.360  1.00  0.00     0.009 A 
HETATM   24  C   UNL     1      43.959 -19.799   3.262  1.00  0.00     0.001 A 
HETATM   25  C   UNL     1      43.232 -19.271   2.207  1.00  0.00     0.002 A 
HETATM   26  C   UNL     1      42.837 -17.934   2.244  1.00  0.00     0.030 A 
ENDBRANCH  17  20
ENDBRANCH  15  16
ENDBRANCH   1  15
TORSDOF 3
ENDMDL
MODEL 2
REMARK VINA RESULT:      -8.1      1.455      2.198
REMARK  3 active torsions:
REMARK  status: ('A' for Active; 'I' for Inactive)
REMARK    1  A    between atoms: C_3  and  N_4 
REMARK       I    between atoms: N_4  and  C_5 
REMARK    2  A    between atoms: C_5  and  C_6 
REMARK    3  A    between atoms: C_6  and  C_7 
ROOT
HETATM    1  C   UNL     1      40.626 -14.194   1.050  1.00  0.00     0.286 C 
HETATM    2  N   UNL     1      41.008 -14.084  -0.425  1.00  0.00    -0.056 N 
HETATM    3  H   UNL     1      41.683 -13.317  -0.523  1.00  0.00     0.278 HD
HETATM    4  H   UNL     1      41.543 -14.946  -0.662  1.00  0.00     0.278 HD
HETATM    5  C   UNL     1      39.841 -13.892  -1.359  1.00  0.00     0.209 C 
HETATM    6  C   UNL     1      39.019 -12.658  -0.899  1.00  0.00     0.115 C 
HETATM    7  N   UNL     1      38.721 -12.689   0.532  1.00  0.00    -0.353 N 
HETATM    8  C   UNL     1      39.600 -13.139   1.485  1.00  0.00     0.249 C 
HETATM    9  O   UNL     1      39.472 -12.802   2.657  1.00  0.00    -0.271 OA
HETATM   10  C   UNL     1      40.352 -13.765  -2.795  1.00  0.00     0.035 C 
HETATM   11  C   UNL     1      41.013 -12.421  -3.096  1.00  0.00     0.002 C 
HETATM   12  C   UNL     1      40.110 -11.256  -2.707  1.00  0.00     0.002 C 
HETATM   13  C   UNL     1      39.714 -11.331  -1.238  1.00  0.00     0.027 C 
HETATM   14  H   UNL     1      38.049 -12.012   0.894  1.00  0.00     0.163 HD
ENDROOT
BRANCH   1  15
HETATM   15  C   UNL     1      40.045 -15.570   1.395  1.00  0.00     0.146 C 
BRANCH  15  16
HETATM   16  C   UNL     1      40.704 -16.163   2.616  1.00  0.00     0.224 C 
HETATM   17  N   UNL     1      41.990 -16.581   2.363  1.00  0.00    -0.327 N 
HETATM   18  H   UNL     1      42.410 -16.237   1.505  1.00  0.00     0.169 HD
HETATM   19  O   UNL     1      40.108 -16.123   3.689  1.00  0.00    -0.273 OA
BRANCH  17  20
HETATM   20  C   UNL     1      42.912 -17.200   3.239  1.00  0.00     0.040 A 
HETATM   21  C   UNL     1      43.425 -18.504   3.133  1.00  0.00    -0.035 A 
HETATM   22  C   UNL     1      43.155 -19.447   1.996  1.00  0.00     0.050 C 
HETATM   23  C   UNL     1      44.310 -18.965   4.132  1.00  0.00     0.009 A 
HETATM   24  C   UNL     1      44.726 -18.143   5.177  1.00  0.00     0.001 A 
HETATM   25  C   UNL     1      44.270 -16.836   5.242  1.00  0.00     0.002 A 
HETATM   26  C   UNL     1      43.377 -16.369   4.278  1.00  0.00     0.030 A 
ENDBRANCH  17  20
ENDBRANCH  15  16
ENDBRANCH   1  15
TORSDOF 3
ENDMDL
MODEL 3
REMARK VINA RESULT:      -8.1      3.592      4.635
REMARK  3 active torsions:
REMARK  status: ('A' for Active; 'I' for Inactive)
REMARK    1  A    between atoms: C_3  and  N_4 
REMARK       I    between atoms: N_4  and  C_5 
REMARK    2  A    between atoms: C_5  and  C_6 
REMARK    3  A    between atoms: C_6  and  C_7 
ROOT
HETATM    1  C   UNL     1      43.405 -13.764   5.526  1.00  0.00     0.286 C 
HETATM    2  N   UNL     1      42.159 -13.585   4.659  1.00  0.00    -0.056 N 
HETATM    3  H   UNL     1      42.404 -12.974   3.872  1.00  0.00     0.278 HD
HETATM    4  H   UNL     1      41.958 -14.513   4.228  1.00  0.00     0.278 HD
HETATM    5  C   UNL     1      40.957 -13.055   5.397  1.00  0.00     0.209 C 
HETATM    6  C   UNL     1      41.341 -11.728   6.106  1.00  0.00     0.115 C 
HETATM    7  N   UNL     1      42.585 -11.842   6.867  1.00  0.00    -0.353 N 
HETATM    8  C   UNL     1      43.673 -12.566   6.446  1.00  0.00     0.249 C 
HETATM    9  O   UNL     1      44.786 -12.332   6.901  1.00  0.00    -0.271 OA
HETATM   10  C   UNL     1      39.791 -12.891   4.420  1.00  0.00     0.035 C 
HETATM   11  C   UNL     1      39.938 -11.695   3.482  1.00  0.00     0.002 C 
HETATM   12  C   UNL     1      40.218 -10.411   4.254  1.00  0.00     0.002 C 
HETATM   13  C   UNL     1      41.459 -10.552   5.126  1.00  0.00     0.027 C 
HETATM   14  H   UNL     1      42.829 -11.080   7.498  1.00  0.00     0.163 HD
ENDROOT
BRANCH   1  15
HETATM   15  C   UNL     1      43.319 -15.013   6.410  1.00  0.00     0.146 C 
BRANCH  15  16
HETATM   16  C   UNL     1      42.806 -16.206   5.641  1.00  0.00     0.224 C 
HETATM   17  N   UNL     1      43.818 -16.899   5.019  1.00  0.00    -0.327 N 
HETATM   18  H   UNL     1      44.761 -16.689   5.332  1.00  0.00     0.169 HD
HETATM   19  O   UNL     1      41.616 -16.496   5.724  1.00  0.00    -0.273 OA
BRANCH  17  20
HETATM   20  C   UNL     1      43.735 -18.048   4.198  1.00  0.00     0.040 A 
HETATM   21  C   UNL     1      43.369 -18.086   2.842  1.00  0.00    -0.035 A 
HETATM   22  C   UNL     1      43.094 -16.880   1.988  1.00  0.00     0.050 C 
HETATM   23  C   UNL     1      43.300 -19.339   2.195  1.00  0.00     0.009 A 
HETATM   24  C   UNL     1      43.642 -20.520   2.850  1.00  0.00     0.001 A 
HETATM   25  C   UNL     1      44.067 -20.472   4.169  1.00  0.00     0.002 A 
HETATM   26  C   UNL     1      44.119 -19.246   4.832  1.00  0.00     0.030 A 
ENDBRANCH  17  20
ENDBRANCH  15  16
ENDBRANCH   1  15
TORSDOF 3
ENDMDL
MODEL 4
REMARK VINA RESULT:      -8.1      4.028      6.166
REMARK  3 active torsions:
REMARK  status: ('A' for Active; 'I' for Inactive)
REMARK    1  A    between atoms: C_3  and  N_4 
REMARK       I    between atoms: N_4  and  C_5 
REMARK    2  A    between atoms: C_5  and  C_6 
REMARK    3  A    between atoms: C_6  and  C_7 
ROOT
HETATM    1  C   UNL     1      42.906 -14.099   6.635  1.00  0.00     0.286 C 
HETATM    2  N   UNL     1      43.329 -13.058   7.670  1.00  0.00    -0.056 N 
HETATM    3  H   UNL     1      42.481 -12.610   8.037  1.00  0.00     0.278 HD
HETATM    4  H   UNL     1      43.729 -13.582   8.477  1.00  0.00     0.278 HD
HETATM    5  C   UNL     1      44.300 -12.026   7.155  1.00  0.00     0.209 C 
HETATM    6  C   UNL     1      43.701 -11.350   5.893  1.00  0.00     0.115 C 
HETATM    7  N   UNL     1      43.198 -12.324   4.924  1.00  0.00    -0.353 N 
HETATM    8  C   UNL     1      42.554 -13.485   5.273  1.00  0.00     0.249 C 
HETATM    9  O   UNL     1      41.834 -14.061   4.467  1.00  0.00    -0.271 OA
HETATM   10  C   UNL     1      44.621 -11.028   8.269  1.00  0.00     0.035 C 
HETATM   11  C   UNL     1      43.488 -10.044   8.558  1.00  0.00     0.002 C 
HETATM   12  C   UNL     1      43.016  -9.348   7.287  1.00  0.00     0.002 C 
HETATM   13  C   UNL     1      42.580 -10.358   6.234  1.00  0.00     0.027 C 
HETATM   14  H   UNL     1      42.941 -11.986   3.998  1.00  0.00     0.163 HD
ENDROOT
BRANCH   1  15
HETATM   15  C   UNL     1      43.994 -15.153   6.397  1.00  0.00     0.146 C 
BRANCH  15  16
HETATM   16  C   UNL     1      43.416 -16.441   5.866  1.00  0.00     0.224 C 
HETATM   17  N   UNL     1      44.152 -16.950   4.821  1.00  0.00    -0.327 N 
HETATM   18  H   UNL     1      45.081 -16.559   4.697  1.00  0.00     0.169 HD
HETATM   19  O   UNL     1      42.461 -16.946   6.449  1.00  0.00    -0.273 OA
BRANCH  17  20
HETATM   20  C   UNL     1      43.919 -18.117   4.056  1.00  0.00     0.040 A 
HETATM   21  C   UNL     1      43.415 -18.175   2.746  1.00  0.00    -0.035 A 
HETATM   22  C   UNL     1      43.123 -16.983   1.880  1.00  0.00     0.050 C 
HETATM   23  C   UNL     1      43.210 -19.442   2.156  1.00  0.00     0.009 A 
HETATM   24  C   UNL     1      43.549 -20.620   2.818  1.00  0.00     0.001 A 
HETATM   25  C   UNL     1      44.109 -20.557   4.084  1.00  0.00     0.002 A 
HETATM   26  C   UNL     1      44.297 -19.316   4.692  1.00  0.00     0.030 A 
ENDBRANCH  17  20
ENDBRANCH  15  16
ENDBRANCH   1  15
TORSDOF 3
ENDMDL
MODEL 5
REMARK VINA RESULT:      -8.0      1.942      7.399
REMARK  3 active torsions:
REMARK  status: ('A' for Active; 'I' for Inactive)
REMARK    1  A    between atoms: C_3  and  N_4 
REMARK       I    between atoms: N_4  and  C_5 
REMARK    2  A    between atoms: C_5  and  C_6 
REMARK    3  A    between atoms: C_6  and  C_7 
ROOT
HETATM    1  C   UNL     1      41.764 -16.780   3.035  1.00  0.00     0.286 C 
HETATM    2  N   UNL     1      42.217 -18.199   2.696  1.00  0.00    -0.056 N 
HETATM    3  H   UNL     1      41.747 -18.846   3.340  1.00  0.00     0.278 HD
HETATM    4  H   UNL     1      41.826 -18.422   1.756  1.00  0.00     0.278 HD
HETATM    5  C   UNL     1      43.710 -18.402   2.727  1.00  0.00     0.209 C 
HETATM    6  C   UNL     1      44.254 -17.957   4.111  1.00  0.00     0.115 C 
HETATM    7  N   UNL     1      43.759 -16.639   4.507  1.00  0.00    -0.353 N 
HETATM    8  C   UNL     1      42.483 -16.197   4.260  1.00  0.00     0.249 C 
HETATM    9  O   UNL     1      42.005 -15.282   4.919  1.00  0.00    -0.271 OA
HETATM   10  C   UNL     1      44.033 -19.862   2.402  1.00  0.00     0.035 C 
HETATM   11  C   UNL     1      43.721 -20.829   3.543  1.00  0.00     0.002 C 
HETATM   12  C   UNL     1      44.367 -20.379   4.848  1.00  0.00     0.002 C 
HETATM   13  C   UNL     1      43.933 -18.968   5.221  1.00  0.00     0.027 C 
HETATM   14  H   UNL     1      44.189 -16.191   5.315  1.00  0.00     0.163 HD
ENDROOT
BRANCH   1  15
HETATM   15  C   UNL     1      41.983 -15.809   1.869  1.00  0.00     0.146 C 
BRANCH  15  16
HETATM   16  C   UNL     1      40.678 -15.254   1.354  1.00  0.00     0.224 C 
HETATM   17  N   UNL     1      40.813 -14.670   0.116  1.00  0.00    -0.327 N 
HETATM   18  H   UNL     1      41.667 -14.886  -0.389  1.00  0.00     0.169 HD
HETATM   19  O   UNL     1      39.652 -15.457   1.998  1.00  0.00    -0.273 OA
BRANCH  17  20
HETATM   20  C   UNL     1      39.832 -14.029  -0.677  1.00  0.00     0.040 A 
HETATM   21  C   UNL     1      39.302 -12.743  -0.477  1.00  0.00    -0.035 A 
HETATM   22  C   UNL     1      39.764 -11.772   0.572  1.00  0.00     0.050 C 
HETATM   23  C   UNL     1      38.292 -12.284  -1.352  1.00  0.00     0.009 A 
HETATM   24  C   UNL     1      37.859 -13.049  -2.433  1.00  0.00     0.001 A 
HETATM   25  C   UNL     1      38.432 -14.290  -2.667  1.00  0.00     0.002 A 
HETATM   26  C   UNL     1      39.413 -14.770  -1.799  1.00  0.00     0.030 A 
ENDBRANCH  17  20
ENDBRANCH  15  16
ENDBRANCH   1  15
TORSDOF 3
ENDMDL
MODEL 6
REMARK VINA RESULT:      -7.9      4.746      7.137
REMARK  3 active torsions:
REMARK  status: ('A' for Active; 'I' for Inactive)
REMARK    1  A    between atoms: C_3  and  N_4 
REMARK       I    between atoms: N_4  and  C_5 
REMARK    2  A    between atoms: C_5  and  C_6 
REMARK    3  A    between atoms: C_6  and  C_7 
ROOT
HETATM    1  C   UNL     1      41.985 -13.693   4.539  1.00  0.00     0.286 C 
HETATM    2  N   UNL     1      42.933 -14.891   4.505  1.00  0.00    -0.056 N 
HETATM    3  H   UNL     1      43.408 -14.894   3.595  1.00  0.00     0.278 HD
HETATM    4  H   UNL     1      43.684 -14.700   5.202  1.00  0.00     0.278 HD
HETATM    5  C   UNL     1      42.270 -16.218   4.768  1.00  0.00     0.209 C 
HETATM    6  C   UNL     1      41.094 -16.405   3.772  1.00  0.00     0.115 C 
HETATM    7  N   UNL     1      40.222 -15.233   3.712  1.00  0.00    -0.353 N 
HETATM    8  C   UNL     1      40.677 -13.940   3.775  1.00  0.00     0.249 C 
HETATM    9  O   UNL     1      39.990 -13.018   3.349  1.00  0.00    -0.271 OA
HETATM   10  C   UNL     1      43.311 -17.336   4.676  1.00  0.00     0.035 C 
HETATM   11  C   UNL     1      43.741 -17.658   3.246  1.00  0.00     0.002 C 
HETATM   12  C   UNL     1      42.539 -17.924   2.348  1.00  0.00     0.002 C 
HETATM   13  C   UNL     1      41.575 -16.746   2.354  1.00  0.00     0.027 C 
HETATM   14  H   UNL     1      39.336 -15.323   3.216  1.00  0.00     0.163 HD
ENDROOT
BRANCH   1  15
HETATM   15  C   UNL     1      41.612 -13.292   5.971  1.00  0.00     0.146 C 
BRANCH  15  16
HETATM   16  C   UNL     1      42.828 -12.906   6.776  1.00  0.00     0.224 C 
HETATM   17  N   UNL     1      42.902 -11.548   6.987  1.00  0.00    -0.327 N 
HETATM   18  H   UNL     1      42.054 -11.021   6.805  1.00  0.00     0.169 HD
HETATM   19  O   UNL     1      43.541 -13.793   7.236  1.00  0.00    -0.273 OA
BRANCH  17  20
HETATM   20  C   UNL     1      43.895 -10.808   7.672  1.00  0.00     0.040 A 
HETATM   21  C   UNL     1      45.257 -10.723   7.339  1.00  0.00    -0.035 A 
HETATM   22  C   UNL     1      45.887 -11.334   6.119  1.00  0.00     0.050 C 
HETATM   23  C   UNL     1      46.110  -9.964   8.170  1.00  0.00     0.009 A 
HETATM   24  C   UNL     1      45.623  -9.258   9.267  1.00  0.00     0.001 A 
HETATM   25  C   UNL     1      44.267  -9.289   9.554  1.00  0.00     0.002 A 
HETATM   26  C   UNL     1      43.413 -10.052   8.759  1.00  0.00     0.030 A 
ENDBRANCH  17  20
ENDBRANCH  15  16
ENDBRANCH   1  15
TORSDOF 3
ENDMDL
MODEL 7
REMARK VINA RESULT:      -7.9      3.964      5.653
REMARK  3 active torsions:
REMARK  status: ('A' for Active; 'I' for Inactive)
REMARK    1  A    between atoms: C_3  and  N_4 
REMARK       I    between atoms: N_4  and  C_5 
REMARK    2  A    between atoms: C_5  and  C_6 
REMARK    3  A    between atoms: C_6  and  C_7 
ROOT
HETATM    1  C   UNL     1      42.067 -13.637   5.788  1.00  0.00     0.286 C 
HETATM    2  N   UNL     1      43.493 -13.181   6.099  1.00  0.00    -0.056 N 
HETATM    3  H   UNL     1      43.621 -13.212   7.117  1.00  0.00     0.278 HD
HETATM    4  H   UNL     1      44.131 -13.915   5.724  1.00  0.00     0.278 HD
HETATM    5  C   UNL     1      43.846 -11.821   5.554  1.00  0.00     0.209 C 
HETATM    6  C   UNL     1      42.805 -10.786   6.058  1.00  0.00     0.115 C 
HETATM    7  N   UNL     1      41.428 -11.238   5.860  1.00  0.00    -0.353 N 
HETATM    8  C   UNL     1      41.021 -12.539   6.025  1.00  0.00     0.249 C 
HETATM    9  O   UNL     1      39.840 -12.800   6.223  1.00  0.00    -0.271 OA
HETATM   10  C   UNL     1      45.279 -11.468   5.957  1.00  0.00     0.035 C 
HETATM   11  C   UNL     1      45.428 -11.088   7.429  1.00  0.00     0.002 C 
HETATM   12  C   UNL     1      44.439 -10.000   7.828  1.00  0.00     0.002 C 
HETATM   13  C   UNL     1      43.006 -10.423   7.536  1.00  0.00     0.027 C 
HETATM   14  H   UNL     1      40.679 -10.563   6.004  1.00  0.00     0.163 HD
ENDROOT
BRANCH   1  15
HETATM   15  C   UNL     1      41.916 -14.110   4.337  1.00  0.00     0.146 C 
BRANCH  15  16
HETATM   16  C   UNL     1      41.814 -15.612   4.249  1.00  0.00     0.224 C 
HETATM   17  N   UNL     1      43.043 -16.209   4.085  1.00  0.00    -0.327 N 
HETATM   18  H   UNL     1      43.852 -15.627   4.281  1.00  0.00     0.169 HD
HETATM   19  O   UNL     1      40.722 -16.143   4.430  1.00  0.00    -0.273 OA
BRANCH  17  20
HETATM   20  C   UNL     1      43.352 -17.582   3.943  1.00  0.00     0.040 A 
HETATM   21  C   UNL     1      43.677 -18.480   4.974  1.00  0.00    -0.035 A 
HETATM   22  C   UNL     1      43.655 -18.155   6.441  1.00  0.00     0.050 C 
HETATM   23  C   UNL     1      43.999 -19.812   4.634  1.00  0.00     0.009 A 
HETATM   24  C   UNL     1      43.945 -20.264   3.317  1.00  0.00     0.001 A 
HETATM   25  C   UNL     1      43.559 -19.393   2.310  1.00  0.00     0.002 A 
HETATM   26  C   UNL     1      43.260 -18.067   2.624  1.00  0.00     0.030 A 
ENDBRANCH  17  20
ENDBRANCH  15  16
ENDBRANCH   1  15
TORSDOF 3
ENDMDL
MODEL 8
REMARK VINA RESULT:      -7.6      4.114      6.982
REMARK  3 active torsions:
REMARK  status: ('A' for Active; 'I' for Inactive)
REMARK    1  A    between atoms: C_3  and  N_4 
REMARK       I    between atoms: N_4  and  C_5 
REMARK    2  A    between atoms: C_5  and  C_6 
REMARK    3  A    between atoms: C_6  and  C_7 
ROOT
HETATM    1  C   UNL     1      42.832 -14.197   3.419  1.00  0.00     0.286 C 
HETATM    2  N   UNL     1      43.473 -15.341   4.202  1.00  0.00    -0.056 N 
HETATM    3  H   UNL     1      44.320 -15.635   3.702  1.00  0.00     0.278 HD
HETATM    4  H   UNL     1      43.816 -14.936   5.099  1.00  0.00     0.278 HD
HETATM    5  C   UNL     1      42.562 -16.516   4.449  1.00  0.00     0.209 C 
HETATM    6  C   UNL     1      41.997 -17.014   3.091  1.00  0.00     0.115 C 
HETATM    7  N   UNL     1      41.462 -15.924   2.276  1.00  0.00    -0.353 N 
HETATM    8  C   UNL     1      42.032 -14.678   2.200  1.00  0.00     0.249 C 
HETATM    9  O   UNL     1      41.793 -13.943   1.249  1.00  0.00    -0.271 OA
HETATM   10  C   UNL     1      43.324 -17.602   5.211  1.00  0.00     0.035 C 
HETATM   11  C   UNL     1      44.330 -18.364   4.351  1.00  0.00     0.002 C 
HETATM   12  C   UNL     1      43.683 -18.906   3.082  1.00  0.00     0.002 C 
HETATM   13  C   UNL     1      43.038 -17.789   2.272  1.00  0.00     0.027 C 
HETATM   14  H   UNL     1      40.923 -16.169   1.447  1.00  0.00     0.163 HD
ENDROOT
BRANCH   1  15
HETATM   15  C   UNL     1      41.887 -13.360   4.288  1.00  0.00     0.146 C 
BRANCH  15  16
HETATM   16  C   UNL     1      42.538 -12.951   5.586  1.00  0.00     0.224 C 
HETATM   17  N   UNL     1      43.216 -11.759   5.475  1.00  0.00    -0.327 N 
HETATM   18  H   UNL     1      43.005 -11.200   4.653  1.00  0.00     0.169 HD
HETATM   19  O   UNL     1      42.328 -13.623   6.592  1.00  0.00    -0.273 OA
BRANCH  17  20
HETATM   20  C   UNL     1      43.963 -11.066   6.457  1.00  0.00     0.040 A 
HETATM   21  C   UNL     1      43.472 -10.118   7.370  1.00  0.00    -0.035 A 
HETATM   22  C   UNL     1      42.026  -9.742   7.531  1.00  0.00     0.050 C 
HETATM   23  C   UNL     1      44.381  -9.497   8.254  1.00  0.00     0.009 A 
HETATM   24  C   UNL     1      45.730  -9.844   8.278  1.00  0.00     0.001 A 
HETATM   25  C   UNL     1      46.199 -10.828   7.422  1.00  0.00     0.002 A 
HETATM   26  C   UNL     1      45.320 -11.436   6.525  1.00  0.00     0.030 A 
ENDBRANCH  17  20
ENDBRANCH  15  16
ENDBRANCH   1  15
TORSDOF 3
ENDMDL
MODEL 9
REMARK VINA RESULT:      -7.5      1.764      7.434
REMARK  3 active torsions:
REMARK  status: ('A' for Active; 'I' for Inactive)
REMARK    1  A    between atoms: C_3  and  N_4 
REMARK       I    between atoms: N_4  and  C_5 
REMARK    2  A    between atoms: C_5  and  C_6 
REMARK    3  A    between atoms: C_6  and  C_7 
ROOT
HETATM    1  C   UNL     1      42.605 -16.615   3.048  1.00  0.00     0.286 C 
HETATM    2  N   UNL     1      42.794 -18.091   2.698  1.00  0.00    -0.056 N 
HETATM    3  H   UNL     1      42.091 -18.632   3.214  1.00  0.00     0.278 HD
HETATM    4  H   UNL     1      42.533 -18.197   1.695  1.00  0.00     0.278 HD
HETATM    5  C   UNL     1      44.179 -18.621   2.960  1.00  0.00     0.209 C 
HETATM    6  C   UNL     1      44.558 -18.344   4.440  1.00  0.00     0.115 C 
HETATM    7  N   UNL     1      44.297 -16.960   4.832  1.00  0.00    -0.353 N 
HETATM    8  C   UNL     1      43.209 -16.239   4.408  1.00  0.00     0.249 C 
HETATM    9  O   UNL     1      42.831 -15.257   5.036  1.00  0.00    -0.271 OA
HETATM   10  C   UNL     1      44.232 -20.108   2.601  1.00  0.00     0.035 C 
HETATM   11  C   UNL     1      43.527 -21.010   3.612  1.00  0.00     0.002 C 
HETATM   12  C   UNL     1      44.017 -20.749   5.032  1.00  0.00     0.002 C 
HETATM   13  C   UNL     1      43.839 -19.286   5.416  1.00  0.00     0.027 C 
HETATM   14  H   UNL     1      44.666 -16.640   5.727  1.00  0.00     0.163 HD
ENDROOT
BRANCH   1  15
HETATM   15  C   UNL     1      43.226 -15.688   1.997  1.00  0.00     0.146 C 
BRANCH  15  16
HETATM   16  C   UNL     1      42.471 -14.387   1.885  1.00  0.00     0.224 C 
HETATM   17  N   UNL     1      41.183 -14.570   1.437  1.00  0.00    -0.327 N 
HETATM   18  H   UNL     1      40.829 -15.522   1.470  1.00  0.00     0.169 HD
HETATM   19  O   UNL     1      43.005 -13.356   2.282  1.00  0.00    -0.273 OA
BRANCH  17  20
HETATM   20  C   UNL     1      40.183 -13.601   1.187  1.00  0.00     0.040 A 
HETATM   21  C   UNL     1      39.712 -13.187  -0.070  1.00  0.00    -0.035 A 
HETATM   22  C   UNL     1      40.125 -13.782  -1.386  1.00  0.00     0.050 C 
HETATM   23  C   UNL     1      38.733 -12.170  -0.124  1.00  0.00     0.009 A 
HETATM   24  C   UNL     1      38.188 -11.618   1.033  1.00  0.00     0.001 A 
HETATM   25  C   UNL     1      38.606 -12.077   2.273  1.00  0.00     0.002 A 
HETATM   26  C   UNL     1      39.589 -13.063   2.346  1.00  0.00     0.030 A 
ENDBRANCH  17  20
ENDBRANCH  15  16
ENDBRANCH   1  15
TORSDOF 3
ENDMDL
MODEL 10
REMARK VINA RESULT:      -7.3      2.422      3.932
REMARK  3 active torsions:
REMARK  status: ('A' for Active; 'I' for Inactive)
REMARK    1  A    between atoms: C_3  and  N_4 
REMARK       I    between atoms: N_4  and  C_5 
REMARK    2  A    between atoms: C_5  and  C_6 
REMARK    3  A    between atoms: C_6  and  C_7 
ROOT
HETATM    1  C   UNL     1      39.451 -13.473   2.054  1.00  0.00     0.286 C 
HETATM    2  N   UNL     1      39.536 -13.443   3.579  1.00  0.00    -0.056 N 
HETATM    3  H   UNL     1      38.601 -13.229   3.946  1.00  0.00     0.278 HD
HETATM    4  H   UNL     1      39.730 -14.419   3.888  1.00  0.00     0.278 HD
HETATM    5  C   UNL     1      40.560 -12.483   4.129  1.00  0.00     0.209 C 
HETATM    6  C   UNL     1      40.287 -11.067   3.555  1.00  0.00     0.115 C 
HETATM    7  N   UNL     1      40.106 -11.078   2.104  1.00  0.00    -0.353 N 
HETATM    8  C   UNL     1      39.447 -12.073   1.426  1.00  0.00     0.249 C 
HETATM    9  O   UNL     1      38.994 -11.865   0.306  1.00  0.00    -0.271 OA
HETATM   10  C   UNL     1      40.526 -12.523   5.658  1.00  0.00     0.035 C 
HETATM   11  C   UNL     1      39.314 -11.819   6.265  1.00  0.00     0.002 C 
HETATM   12  C   UNL     1      39.164 -10.401   5.728  1.00  0.00     0.002 C 
HETATM   13  C   UNL     1      39.072 -10.393   4.207  1.00  0.00     0.027 C 
HETATM   14  H   UNL     1      40.089 -10.182   1.619  1.00  0.00     0.163 HD
ENDROOT
BRANCH   1  15
HETATM   15  C   UNL     1      40.612 -14.254   1.426  1.00  0.00     0.146 C 
BRANCH  15  16
HETATM   16  C   UNL     1      40.930 -15.503   2.210  1.00  0.00     0.224 C 
HETATM   17  N   UNL     1      42.284 -15.677   2.384  1.00  0.00    -0.327 N 
HETATM   18  H   UNL     1      42.867 -14.867   2.194  1.00  0.00     0.169 HD
HETATM   19  O   UNL     1      40.006 -16.156   2.687  1.00  0.00    -0.273 OA
BRANCH  17  20
HETATM   20  C   UNL     1      42.968 -16.728   3.040  1.00  0.00     0.040 A 
HETATM   21  C   UNL     1      43.456 -16.718   4.358  1.00  0.00    -0.035 A 
HETATM   22  C   UNL     1      43.244 -15.608   5.348  1.00  0.00     0.050 C 
HETATM   23  C   UNL     1      44.155 -17.851   4.829  1.00  0.00     0.009 A 
HETATM   24  C   UNL     1      44.317 -18.989   4.041  1.00  0.00     0.001 A 
HETATM   25  C   UNL     1      43.777 -19.021   2.765  1.00  0.00     0.002 A 
HETATM   26  C   UNL     1      43.103 -17.903   2.274  1.00  0.00     0.030 A 
ENDBRANCH  17  20
ENDBRANCH  15  16
ENDBRANCH   1  15
TORSDOF 3
ENDMDL
