MODEL 1
REMARK VINA RESULT:      -8.0      0.000      0.000
REMARK  4 active torsions:
REMARK  status: ('A' for Active; 'I' for Inactive)
REMARK    1  A    between atoms: C_9  and  N_10 
REMARK    2  A    between atoms: N_10  and  C_12 
REMARK    3  A    between atoms: C_12  and  C_13 
REMARK    4  A    between atoms: C_14  and  C_15 
ROOT
HETATM    1  C   UNL     1      41.898 -12.441   4.027  1.00  0.00     0.016 A 
HETATM    2  C   UNL     1      42.781 -11.392   4.430  1.00  0.00     0.096 A 
HETATM    3  N   UNL     1      42.888 -10.463   3.474  1.00  0.00    -0.174 NA
HETATM    4  N   UNL     1      42.188 -10.943   2.441  1.00  0.00    -0.288 N 
HETATM    5  H   UNL     1      42.177 -10.409   1.575  1.00  0.00     0.188 HD
HETATM    6  C   UNL     1      41.546 -12.111   2.732  1.00  0.00     0.120 A 
ENDROOT
BRANCH   1   7
HETATM    7  C   UNL     1      41.426 -13.611   4.816  1.00  0.00     0.277 C 
BRANCH   7   8
HETATM    8  N   UNL     1      42.405 -14.771   4.862  1.00  0.00    -0.065 N 
HETATM    9  H   UNL     1      43.281 -14.463   4.418  1.00  0.00     0.280 HD
HETATM   10  C   UNL     1      42.706 -15.205   6.273  1.00  0.00     0.270 C 
BRANCH   8  11
HETATM   11  C   UNL     1      41.790 -15.931   4.139  1.00  0.00     0.205 C 
HETATM   12  C   UNL     1      42.057 -16.054   2.595  1.00  0.00     0.008 C 
HETATM   13  C   UNL     1      40.788 -15.826   1.764  1.00  0.00     0.020 C 
HETATM   14  C   UNL     1      43.235 -15.319   1.955  1.00  0.00     0.020 C 
HETATM   15  C   UNL     1      42.322 -17.575   2.833  1.00  0.00     0.137 C 
HETATM   16  C   UNL     1      42.489 -17.306   4.343  1.00  0.00     0.049 C 
HETATM   17  O   UNL     1      43.552 -18.126   2.321  1.00  0.00    -0.385 OA
HETATM   18  C   UNL     1      43.995 -17.518   4.522  1.00  0.00     0.035 C 
HETATM   19  C   UNL     1      44.371 -18.514   3.428  1.00  0.00     0.168 C 
ENDBRANCH   8  11
ENDBRANCH   7   8
ENDBRANCH   1   7
BRANCH   2  20
HETATM   20  C   UNL     1      43.462 -11.222   5.708  1.00  0.00    -0.002 A 
HETATM   21  C   UNL     1      42.816 -10.593   6.776  1.00  0.00     0.053 A 
HETATM   22  C   UNL     1      43.487 -10.407   7.984  1.00  0.00     0.103 A 
HETATM   23  C   UNL     1      44.807 -10.835   8.131  1.00  0.00     0.102 A 
HETATM   24  O   UNL     1      42.787  -9.778   8.981  1.00  0.00    -0.346 OA
HETATM   25  O   UNL     1      45.534 -10.655   9.278  1.00  0.00    -0.346 OA
HETATM   26  C   UNL     1      45.443 -11.497   7.084  1.00  0.00     0.040 A 
HETATM   27  C   UNL     1      44.900  -9.738  10.178  1.00  0.00     0.202 C 
HETATM   28  C   UNL     1      43.403  -9.997  10.258  1.00  0.00     0.202 C 
HETATM   29  C   UNL     1      44.771 -11.693   5.875  1.00  0.00     0.017 A 
ENDBRANCH   2  20
TORSDOF 4
ENDMDL
MODEL 2
REMARK VINA RESULT:      -7.8      3.742      7.195
REMARK  4 active torsions:
REMARK  status: ('A' for Active; 'I' for Inactive)
REMARK    1  A    between atoms: C_9  and  N_10 
REMARK    2  A    between atoms: N_10  and  C_12 
REMARK    3  A    between atoms: C_12  and  C_13 
REMARK    4  A    between atoms: C_14  and  C_15 
ROOT
HETATM    1  C   UNL     1      41.054 -12.130   3.062  1.00  0.00     0.016 A 
HETATM    2  C   UNL     1      40.930 -11.629   1.730  1.00  0.00     0.096 A 
HETATM    3  N   UNL     1      41.851 -10.690   1.484  1.00  0.00    -0.174 NA
HETATM    4  N   UNL     1      42.481 -10.506   2.648  1.00  0.00    -0.288 N 
HETATM    5  H   UNL     1      43.199  -9.786   2.700  1.00  0.00     0.188 HD
HETATM    6  C   UNL     1      42.064 -11.369   3.620  1.00  0.00     0.120 A 
ENDROOT
BRANCH   1   7
HETATM    7  C   UNL     1      40.303 -13.238   3.711  1.00  0.00     0.277 C 
BRANCH   7   8
HETATM    8  N   UNL     1      41.100 -14.015   4.744  1.00  0.00    -0.065 N 
HETATM    9  H   UNL     1      42.047 -13.615   4.779  1.00  0.00     0.280 HD
HETATM   10  C   UNL     1      40.488 -13.927   6.118  1.00  0.00     0.270 C 
BRANCH   8  11
HETATM   11  C   UNL     1      41.119 -15.456   4.334  1.00  0.00     0.205 C 
HETATM   12  C   UNL     1      42.000 -15.853   3.094  1.00  0.00     0.008 C 
HETATM   13  C   UNL     1      41.154 -16.296   1.894  1.00  0.00     0.020 C 
HETATM   14  C   UNL     1      43.125 -14.930   2.622  1.00  0.00     0.020 C 
HETATM   15  C   UNL     1      42.500 -17.075   3.929  1.00  0.00     0.137 C 
HETATM   16  C   UNL     1      41.982 -16.403   5.216  1.00  0.00     0.049 C 
HETATM   17  O   UNL     1      43.924 -17.265   4.045  1.00  0.00    -0.385 OA
HETATM   18  C   UNL     1      43.295 -16.021   5.907  1.00  0.00     0.035 C 
HETATM   19  C   UNL     1      44.300 -17.057   5.409  1.00  0.00     0.168 C 
ENDBRANCH   8  11
ENDBRANCH   7   8
ENDBRANCH   1   7
BRANCH   2  20
HETATM   20  C   UNL     1      40.015 -12.063   0.681  1.00  0.00    -0.002 A 
HETATM   21  C   UNL     1      40.337 -13.153  -0.133  1.00  0.00     0.053 A 
HETATM   22  C   UNL     1      39.470 -13.540  -1.154  1.00  0.00     0.103 A 
HETATM   23  C   UNL     1      38.284 -12.836  -1.378  1.00  0.00     0.102 A 
HETATM   24  O   UNL     1      39.857 -14.615  -1.910  1.00  0.00    -0.346 OA
HETATM   25  O   UNL     1      37.405 -13.143  -2.382  1.00  0.00    -0.346 OA
HETATM   26  C   UNL     1      37.941 -11.773  -0.547  1.00  0.00     0.040 A 
HETATM   27  C   UNL     1      37.971 -14.054  -3.333  1.00  0.00     0.202 C 
HETATM   28  C   UNL     1      38.746 -15.161  -2.636  1.00  0.00     0.202 C 
HETATM   29  C   UNL     1      38.803 -11.388   0.483  1.00  0.00     0.017 A 
ENDBRANCH   2  20
TORSDOF 4
ENDMDL
MODEL 3
REMARK VINA RESULT:      -7.8      4.475      6.932
REMARK  4 active torsions:
REMARK  status: ('A' for Active; 'I' for Inactive)
REMARK    1  A    between atoms: C_9  and  N_10 
REMARK    2  A    between atoms: N_10  and  C_12 
REMARK    3  A    between atoms: C_12  and  C_13 
REMARK    4  A    between atoms: C_14  and  C_15 
ROOT
HETATM    1  C   UNL     1      41.586 -14.213   3.957  1.00  0.00     0.016 A 
HETATM    2  C   UNL     1      40.484 -13.822   3.135  1.00  0.00     0.096 A 
HETATM    3  N   UNL     1      39.464 -13.383   3.881  1.00  0.00    -0.174 NA
HETATM    4  N   UNL     1      39.844 -13.585   5.147  1.00  0.00    -0.288 N 
HETATM    5  H   UNL     1      39.185 -13.363   5.890  1.00  0.00     0.188 HD
HETATM    6  C   UNL     1      41.122 -14.049   5.249  1.00  0.00     0.120 A 
ENDROOT
BRANCH   1   7
HETATM    7  C   UNL     1      42.941 -14.664   3.539  1.00  0.00     0.277 C 
BRANCH   7   8
HETATM    8  N   UNL     1      42.992 -16.087   3.011  1.00  0.00    -0.065 N 
HETATM    9  H   UNL     1      42.087 -16.532   3.214  1.00  0.00     0.280 HD
HETATM   10  C   UNL     1      43.232 -16.134   1.525  1.00  0.00     0.270 C 
BRANCH   8  11
HETATM   11  C   UNL     1      44.125 -16.796   3.689  1.00  0.00     0.205 C 
HETATM   12  C   UNL     1      43.874 -17.366   5.132  1.00  0.00     0.008 C 
HETATM   13  C   UNL     1      44.684 -16.623   6.202  1.00  0.00     0.020 C 
HETATM   14  C   UNL     1      42.446 -17.598   5.631  1.00  0.00     0.020 C 
HETATM   15  C   UNL     1      44.595 -18.671   4.667  1.00  0.00     0.137 C 
HETATM   16  C   UNL     1      44.412 -18.244   3.197  1.00  0.00     0.049 C 
HETATM   17  O   UNL     1      43.910 -19.922   4.877  1.00  0.00    -0.385 OA
HETATM   18  C   UNL     1      43.355 -19.245   2.722  1.00  0.00     0.035 C 
HETATM   19  C   UNL     1      43.574 -20.474   3.600  1.00  0.00     0.168 C 
ENDBRANCH   8  11
ENDBRANCH   7   8
ENDBRANCH   1   7
BRANCH   2  20
HETATM   20  C   UNL     1      40.405 -13.793   1.680  1.00  0.00    -0.002 A 
HETATM   21  C   UNL     1      40.826 -12.665   0.971  1.00  0.00     0.053 A 
HETATM   22  C   UNL     1      40.717 -12.635  -0.420  1.00  0.00     0.103 A 
HETATM   23  C   UNL     1      40.176 -13.723  -1.108  1.00  0.00     0.102 A 
HETATM   24  O   UNL     1      41.147 -11.493  -1.042  1.00  0.00    -0.346 OA
HETATM   25  O   UNL     1      40.011 -13.747  -2.468  1.00  0.00    -0.346 OA
HETATM   26  C   UNL     1      39.790 -14.864  -0.410  1.00  0.00     0.040 A 
HETATM   27  C   UNL     1      40.175 -12.449  -3.052  1.00  0.00     0.202 C 
HETATM   28  C   UNL     1      41.363 -11.721  -2.442  1.00  0.00     0.202 C 
HETATM   29  C   UNL     1      39.906 -14.902   0.982  1.00  0.00     0.017 A 
ENDBRANCH   2  20
TORSDOF 4
ENDMDL
MODEL 4
REMARK VINA RESULT:      -7.7      1.401      2.305
REMARK  4 active torsions:
REMARK  status: ('A' for Active; 'I' for Inactive)
REMARK    1  A    between atoms: C_9  and  N_10 
REMARK    2  A    between atoms: N_10  and  C_12 
REMARK    3  A    between atoms: C_12  and  C_13 
REMARK    4  A    between atoms: C_14  and  C_15 
ROOT
HETATM    1  C   UNL     1      40.855 -12.466   2.749  1.00  0.00     0.016 A 
HETATM    2  C   UNL     1      41.825 -11.454   3.030  1.00  0.00     0.096 A 
HETATM    3  N   UNL     1      42.158 -10.789   1.918  1.00  0.00    -0.174 NA
HETATM    4  N   UNL     1      41.514 -11.417   0.929  1.00  0.00    -0.288 N 
HETATM    5  H   UNL     1      41.668 -11.100  -0.025  1.00  0.00     0.188 HD
HETATM    6  C   UNL     1      40.692 -12.409   1.378  1.00  0.00     0.120 A 
ENDROOT
BRANCH   1   7
HETATM    7  C   UNL     1      40.147 -13.363   3.702  1.00  0.00     0.277 C 
BRANCH   7   8
HETATM    8  N   UNL     1      41.041 -13.973   4.769  1.00  0.00    -0.065 N 
HETATM    9  H   UNL     1      41.954 -13.502   4.723  1.00  0.00     0.280 HD
HETATM   10  C   UNL     1      40.475 -13.796   6.153  1.00  0.00     0.270 C 
BRANCH   8  11
HETATM   11  C   UNL     1      41.157 -15.442   4.496  1.00  0.00     0.205 C 
HETATM   12  C   UNL     1      42.121 -15.899   3.343  1.00  0.00     0.008 C 
HETATM   13  C   UNL     1      41.363 -16.498   2.151  1.00  0.00     0.020 C 
HETATM   14  C   UNL     1      43.219 -14.960   2.839  1.00  0.00     0.020 C 
HETATM   15  C   UNL     1      42.641 -17.009   4.311  1.00  0.00     0.137 C 
HETATM   16  C   UNL     1      42.021 -16.253   5.504  1.00  0.00     0.049 C 
HETATM   17  O   UNL     1      44.065 -17.106   4.511  1.00  0.00    -0.385 OA
HETATM   18  C   UNL     1      43.274 -15.735   6.216  1.00  0.00     0.035 C 
HETATM   19  C   UNL     1      44.357 -16.752   5.866  1.00  0.00     0.168 C 
ENDBRANCH   8  11
ENDBRANCH   7   8
ENDBRANCH   1   7
BRANCH   2  20
HETATM   20  C   UNL     1      42.382 -11.067   4.320  1.00  0.00    -0.002 A 
HETATM   21  C   UNL     1      43.663 -11.483   4.692  1.00  0.00     0.053 A 
HETATM   22  C   UNL     1      44.175 -11.134   5.942  1.00  0.00     0.103 A 
HETATM   23  C   UNL     1      43.408 -10.379   6.832  1.00  0.00     0.102 A 
HETATM   24  O   UNL     1      45.436 -11.584   6.233  1.00  0.00    -0.346 OA
HETATM   25  O   UNL     1      43.836 -10.029   8.085  1.00  0.00    -0.346 OA
HETATM   26  C   UNL     1      42.146  -9.930   6.452  1.00  0.00     0.040 A 
HETATM   27  C   UNL     1      45.006 -10.759   8.476  1.00  0.00     0.202 C 
HETATM   28  C   UNL     1      46.001 -10.852   7.331  1.00  0.00     0.202 C 
HETATM   29  C   UNL     1      41.634 -10.270   5.198  1.00  0.00     0.017 A 
ENDBRANCH   2  20
TORSDOF 4
ENDMDL
MODEL 5
REMARK VINA RESULT:      -7.6      2.972      7.116
REMARK  4 active torsions:
REMARK  status: ('A' for Active; 'I' for Inactive)
REMARK    1  A    between atoms: C_9  and  N_10 
REMARK    2  A    between atoms: N_10  and  C_12 
REMARK    3  A    between atoms: C_12  and  C_13 
REMARK    4  A    between atoms: C_14  and  C_15 
ROOT
HETATM    1  C   UNL     1      43.448 -16.899   4.423  1.00  0.00     0.016 A 
HETATM    2  C   UNL     1      42.985 -17.002   3.075  1.00  0.00     0.096 A 
HETATM    3  N   UNL     1      43.459 -18.108   2.491  1.00  0.00    -0.174 NA
HETATM    4  N   UNL     1      44.289 -18.649   3.387  1.00  0.00    -0.288 N 
HETATM    5  H   UNL     1      44.805 -19.486   3.125  1.00  0.00     0.188 HD
HETATM    6  C   UNL     1      44.294 -17.981   4.577  1.00  0.00     0.120 A 
ENDROOT
BRANCH   1   7
HETATM    7  C   UNL     1      43.088 -15.886   5.452  1.00  0.00     0.277 C 
BRANCH   7   8
HETATM    8  N   UNL     1      41.696 -15.300   5.295  1.00  0.00    -0.065 N 
HETATM    9  H   UNL     1      41.554 -15.086   4.299  1.00  0.00     0.280 HD
HETATM   10  C   UNL     1      40.622 -16.259   5.739  1.00  0.00     0.270 C 
BRANCH   8  11
HETATM   11  C   UNL     1      41.606 -14.072   6.148  1.00  0.00     0.205 C 
HETATM   12  C   UNL     1      42.583 -12.884   5.826  1.00  0.00     0.008 C 
HETATM   13  C   UNL     1      43.624 -12.667   6.932  1.00  0.00     0.020 C 
HETATM   14  C   UNL     1      43.256 -12.790   4.455  1.00  0.00     0.020 C 
HETATM   15  C   UNL     1      41.361 -11.925   5.991  1.00  0.00     0.137 C 
HETATM   16  C   UNL     1      40.404 -13.128   5.856  1.00  0.00     0.049 C 
HETATM   17  O   UNL     1      41.093 -10.997   4.922  1.00  0.00    -0.385 OA
HETATM   18  C   UNL     1      39.792 -12.872   4.475  1.00  0.00     0.035 C 
HETATM   19  C   UNL     1      39.851 -11.356   4.309  1.00  0.00     0.168 C 
ENDBRANCH   8  11
ENDBRANCH   7   8
ENDBRANCH   1   7
BRANCH   2  20
HETATM   20  C   UNL     1      42.065 -16.124   2.363  1.00  0.00    -0.002 A 
HETATM   21  C   UNL     1      42.459 -14.834   1.996  1.00  0.00     0.053 A 
HETATM   22  C   UNL     1      41.560 -13.991   1.343  1.00  0.00     0.103 A 
HETATM   23  C   UNL     1      40.261 -14.422   1.065  1.00  0.00     0.102 A 
HETATM   24  O   UNL     1      42.020 -12.741   1.019  1.00  0.00    -0.346 OA
HETATM   25  O   UNL     1      39.320 -13.635   0.457  1.00  0.00    -0.346 OA
HETATM   26  C   UNL     1      39.875 -15.719   1.395  1.00  0.00     0.040 A 
HETATM   27  C   UNL     1      39.719 -12.259   0.410  1.00  0.00     0.202 C 
HETATM   28  C   UNL     1      41.185 -12.127   0.027  1.00  0.00     0.202 C 
HETATM   29  C   UNL     1      40.776 -16.570   2.041  1.00  0.00     0.017 A 
ENDBRANCH   2  20
TORSDOF 4
ENDMDL
MODEL 6
REMARK VINA RESULT:      -7.5      1.549      2.657
REMARK  4 active torsions:
REMARK  status: ('A' for Active; 'I' for Inactive)
REMARK    1  A    between atoms: C_9  and  N_10 
REMARK    2  A    between atoms: N_10  and  C_12 
REMARK    3  A    between atoms: C_12  and  C_13 
REMARK    4  A    between atoms: C_14  and  C_15 
ROOT
HETATM    1  C   UNL     1      40.166 -12.325   2.883  1.00  0.00     0.016 A 
HETATM    2  C   UNL     1      41.109 -11.280   3.130  1.00  0.00     0.096 A 
HETATM    3  N   UNL     1      40.760 -10.160   2.488  1.00  0.00    -0.174 NA
HETATM    4  N   UNL     1      39.690 -10.494   1.759  1.00  0.00    -0.288 N 
HETATM    5  H   UNL     1      39.286  -9.791   1.145  1.00  0.00     0.188 HD
HETATM    6  C   UNL     1      39.272 -11.773   1.986  1.00  0.00     0.120 A 
ENDROOT
BRANCH   1   7
HETATM    7  C   UNL     1      40.120 -13.691   3.472  1.00  0.00     0.277 C 
BRANCH   7   8
HETATM    8  N   UNL     1      40.946 -14.723   2.723  1.00  0.00    -0.065 N 
HETATM    9  H   UNL     1      40.425 -15.610   2.729  1.00  0.00     0.280 HD
HETATM   10  C   UNL     1      41.200 -14.321   1.294  1.00  0.00     0.270 C 
BRANCH   8  11
HETATM   11  C   UNL     1      42.271 -14.851   3.414  1.00  0.00     0.205 C 
HETATM   12  C   UNL     1      42.299 -15.560   4.816  1.00  0.00     0.008 C 
HETATM   13  C   UNL     1      42.643 -14.590   5.954  1.00  0.00     0.020 C 
HETATM   14  C   UNL     1      41.147 -16.472   5.242  1.00  0.00     0.020 C 
HETATM   15  C   UNL     1      43.561 -16.336   4.320  1.00  0.00     0.137 C 
HETATM   16  C   UNL     1      43.218 -15.956   2.866  1.00  0.00     0.049 C 
HETATM   17  O   UNL     1      43.551 -17.772   4.440  1.00  0.00    -0.385 OA
HETATM   18  C   UNL     1      42.772 -17.307   2.299  1.00  0.00     0.035 C 
HETATM   19  C   UNL     1      43.536 -18.337   3.126  1.00  0.00     0.168 C 
ENDBRANCH   8  11
ENDBRANCH   7   8
ENDBRANCH   1   7
BRANCH   2  20
HETATM   20  C   UNL     1      42.278 -11.302   4.001  1.00  0.00    -0.002 A 
HETATM   21  C   UNL     1      42.159 -10.964   5.352  1.00  0.00     0.053 A 
HETATM   22  C   UNL     1      43.289 -10.958   6.171  1.00  0.00     0.103 A 
HETATM   23  C   UNL     1      44.543 -11.274   5.645  1.00  0.00     0.102 A 
HETATM   24  O   UNL     1      43.092 -10.612   7.482  1.00  0.00    -0.346 OA
HETATM   25  O   UNL     1      45.696 -11.255   6.383  1.00  0.00    -0.346 OA
HETATM   26  C   UNL     1      44.661 -11.647   4.308  1.00  0.00     0.040 A 
HETATM   27  C   UNL     1      45.515 -10.603   7.647  1.00  0.00     0.202 C 
HETATM   28  C   UNL     1      44.203 -11.020   8.294  1.00  0.00     0.202 C 
HETATM   29  C   UNL     1      43.530 -11.664   3.488  1.00  0.00     0.017 A 
ENDBRANCH   2  20
TORSDOF 4
ENDMDL
MODEL 7
REMARK VINA RESULT:      -7.5      3.285      8.750
REMARK  4 active torsions:
REMARK  status: ('A' for Active; 'I' for Inactive)
REMARK    1  A    between atoms: C_9  and  N_10 
REMARK    2  A    between atoms: N_10  and  C_12 
REMARK    3  A    between atoms: C_12  and  C_13 
REMARK    4  A    between atoms: C_14  and  C_15 
ROOT
HETATM    1  C   UNL     1      44.630  -9.630   8.049  1.00  0.00     0.016 A 
HETATM    2  C   UNL     1      45.048 -10.696   7.194  1.00  0.00     0.096 A 
HETATM    3  N   UNL     1      46.379 -10.704   7.056  1.00  0.00    -0.174 NA
HETATM    4  N   UNL     1      46.804  -9.616   7.706  1.00  0.00    -0.288 N 
HETATM    5  H   UNL     1      47.798  -9.399   7.686  1.00  0.00     0.188 HD
HETATM    6  C   UNL     1      45.798  -8.955   8.349  1.00  0.00     0.120 A 
ENDROOT
BRANCH   1   7
HETATM    7  C   UNL     1      43.261  -9.319   8.543  1.00  0.00     0.277 C 
BRANCH   7   8
HETATM    8  N   UNL     1      43.036  -9.645  10.009  1.00  0.00    -0.065 N 
HETATM    9  H   UNL     1      42.052  -9.923  10.124  1.00  0.00     0.280 HD
HETATM   10  C   UNL     1      43.914 -10.773  10.483  1.00  0.00     0.270 C 
BRANCH   8  11
HETATM   11  C   UNL     1      43.368  -8.425  10.814  1.00  0.00     0.205 C 
HETATM   12  C   UNL     1      42.269  -7.308  10.938  1.00  0.00     0.008 C 
HETATM   13  C   UNL     1      42.664  -6.018  10.208  1.00  0.00     0.020 C 
HETATM   14  C   UNL     1      40.802  -7.636  10.655  1.00  0.00     0.020 C 
HETATM   15  C   UNL     1      42.613  -7.236  12.460  1.00  0.00     0.137 C 
HETATM   16  C   UNL     1      43.326  -8.599  12.360  1.00  0.00     0.049 C 
HETATM   17  O   UNL     1      41.523  -7.349  13.396  1.00  0.00    -0.385 OA
HETATM   18  C   UNL     1      42.356  -9.504  13.125  1.00  0.00     0.035 C 
HETATM   19  C   UNL     1      41.675  -8.572  14.124  1.00  0.00     0.168 C 
ENDBRANCH   8  11
ENDBRANCH   7   8
ENDBRANCH   1   7
BRANCH   2  20
HETATM   20  C   UNL     1      44.232 -11.730   6.570  1.00  0.00    -0.002 A 
HETATM   21  C   UNL     1      43.865 -12.871   7.288  1.00  0.00     0.053 A 
HETATM   22  C   UNL     1      43.110 -13.870   6.673  1.00  0.00     0.103 A 
HETATM   23  C   UNL     1      42.729 -13.743   5.335  1.00  0.00     0.102 A 
HETATM   24  O   UNL     1      42.794 -14.959   7.442  1.00  0.00    -0.346 OA
HETATM   25  O   UNL     1      42.016 -14.698   4.661  1.00  0.00    -0.346 OA
HETATM   26  C   UNL     1      43.060 -12.591   4.626  1.00  0.00     0.040 A 
HETATM   27  C   UNL     1      41.967 -15.938   5.379  1.00  0.00     0.202 C 
HETATM   28  C   UNL     1      41.714 -15.703   6.860  1.00  0.00     0.202 C 
HETATM   29  C   UNL     1      43.807 -11.584   5.242  1.00  0.00     0.017 A 
ENDBRANCH   2  20
TORSDOF 4
ENDMDL
MODEL 8
REMARK VINA RESULT:      -7.4      2.385      3.855
REMARK  4 active torsions:
REMARK  status: ('A' for Active; 'I' for Inactive)
REMARK    1  A    between atoms: C_9  and  N_10 
REMARK    2  A    between atoms: N_10  and  C_12 
REMARK    3  A    between atoms: C_12  and  C_13 
REMARK    4  A    between atoms: C_14  and  C_15 
ROOT
HETATM    1  C   UNL     1      44.371 -11.426   6.896  1.00  0.00     0.016 A 
HETATM    2  C   UNL     1      44.560 -10.571   8.026  1.00  0.00     0.096 A 
HETATM    3  N   UNL     1      45.819 -10.124   8.080  1.00  0.00    -0.174 NA
HETATM    4  N   UNL     1      46.457 -10.751   7.087  1.00  0.00    -0.288 N 
HETATM    5  H   UNL     1      47.456 -10.592   6.978  1.00  0.00     0.188 HD
HETATM    6  C   UNL     1      45.626 -11.518   6.324  1.00  0.00     0.120 A 
ENDROOT
BRANCH   1   7
HETATM    7  C   UNL     1      43.113 -12.055   6.409  1.00  0.00     0.277 C 
BRANCH   7   8
HETATM    8  N   UNL     1      43.265 -13.504   5.978  1.00  0.00    -0.065 N 
HETATM    9  H   UNL     1      44.164 -13.595   5.487  1.00  0.00     0.280 HD
HETATM   10  C   UNL     1      43.256 -14.450   7.149  1.00  0.00     0.270 C 
BRANCH   8  11
HETATM   11  C   UNL     1      42.108 -13.850   5.090  1.00  0.00     0.205 C 
HETATM   12  C   UNL     1      42.097 -13.254   3.636  1.00  0.00     0.008 C 
HETATM   13  C   UNL     1      40.977 -12.224   3.436  1.00  0.00     0.020 C 
HETATM   14  C   UNL     1      43.392 -12.740   3.004  1.00  0.00     0.020 C 
HETATM   15  C   UNL     1      41.673 -14.670   3.133  1.00  0.00     0.137 C 
HETATM   16  C   UNL     1      42.127 -15.279   4.475  1.00  0.00     0.049 C 
HETATM   17  O   UNL     1      42.446 -15.259   2.069  1.00  0.00    -0.385 OA
HETATM   18  C   UNL     1      43.384 -16.044   4.048  1.00  0.00     0.035 C 
HETATM   19  C   UNL     1      43.130 -16.405   2.586  1.00  0.00     0.168 C 
ENDBRANCH   8  11
ENDBRANCH   7   8
ENDBRANCH   1   7
BRANCH   2  20
HETATM   20  C   UNL     1      43.571 -10.125   8.999  1.00  0.00    -0.002 A 
HETATM   21  C   UNL     1      43.725 -10.430  10.355  1.00  0.00     0.053 A 
HETATM   22  C   UNL     1      42.757 -10.026  11.274  1.00  0.00     0.103 A 
HETATM   23  C   UNL     1      41.626  -9.326  10.847  1.00  0.00     0.102 A 
HETATM   24  O   UNL     1      42.977 -10.367  12.583  1.00  0.00    -0.346 OA
HETATM   25  O   UNL     1      40.624  -8.928  11.690  1.00  0.00    -0.346 OA
HETATM   26  C   UNL     1      41.487  -8.986   9.503  1.00  0.00     0.040 A 
HETATM   27  C   UNL     1      40.722  -9.554  12.976  1.00  0.00     0.202 C 
HETATM   28  C   UNL     1      42.163  -9.579  13.463  1.00  0.00     0.202 C 
HETATM   29  C   UNL     1      42.459  -9.382   8.581  1.00  0.00     0.017 A 
ENDBRANCH   2  20
TORSDOF 4
ENDMDL
MODEL 9
REMARK VINA RESULT:      -7.4      3.612      6.625
REMARK  4 active torsions:
REMARK  status: ('A' for Active; 'I' for Inactive)
REMARK    1  A    between atoms: C_9  and  N_10 
REMARK    2  A    between atoms: N_10  and  C_12 
REMARK    3  A    between atoms: C_12  and  C_13 
REMARK    4  A    between atoms: C_14  and  C_15 
ROOT
HETATM    1  C   UNL     1      41.430 -13.460   5.329  1.00  0.00     0.016 A 
HETATM    2  C   UNL     1      42.605 -14.221   5.617  1.00  0.00     0.096 A 
HETATM    3  N   UNL     1      43.411 -13.557   6.454  1.00  0.00    -0.174 NA
HETATM    4  N   UNL     1      42.836 -12.361   6.617  1.00  0.00    -0.288 N 
HETATM    5  H   UNL     1      43.317 -11.668   7.186  1.00  0.00     0.188 HD
HETATM    6  C   UNL     1      41.628 -12.263   5.991  1.00  0.00     0.120 A 
ENDROOT
BRANCH   1   7
HETATM    7  C   UNL     1      40.239 -13.858   4.530  1.00  0.00     0.277 C 
BRANCH   7   8
HETATM    8  N   UNL     1      40.465 -13.855   3.028  1.00  0.00    -0.065 N 
HETATM    9  H   UNL     1      41.479 -13.831   2.860  1.00  0.00     0.280 HD
HETATM   10  C   UNL     1      39.894 -15.081   2.365  1.00  0.00     0.270 C 
BRANCH   8  11
HETATM   11  C   UNL     1      39.776 -12.653   2.455  1.00  0.00     0.205 C 
HETATM   12  C   UNL     1      40.598 -11.316   2.359  1.00  0.00     0.008 C 
HETATM   13  C   UNL     1      40.068 -10.236   3.312  1.00  0.00     0.020 C 
HETATM   14  C   UNL     1      42.127 -11.346   2.407  1.00  0.00     0.020 C 
HETATM   15  C   UNL     1      40.019 -11.146   0.918  1.00  0.00     0.137 C 
HETATM   16  C   UNL     1      39.616 -12.634   0.908  1.00  0.00     0.049 C 
HETATM   17  O   UNL     1      40.954 -10.910  -0.152  1.00  0.00    -0.385 OA
HETATM   18  C   UNL     1      40.620 -13.211  -0.095  1.00  0.00     0.035 C 
HETATM   19  C   UNL     1      40.941 -12.044  -1.025  1.00  0.00     0.168 C 
ENDBRANCH   8  11
ENDBRANCH   7   8
ENDBRANCH   1   7
BRANCH   2  20
HETATM   20  C   UNL     1      42.942 -15.569   5.177  1.00  0.00    -0.002 A 
HETATM   21  C   UNL     1      43.030 -16.614   6.102  1.00  0.00     0.053 A 
HETATM   22  C   UNL     1      43.384 -17.894   5.675  1.00  0.00     0.103 A 
HETATM   23  C   UNL     1      43.664 -18.136   4.329  1.00  0.00     0.102 A 
HETATM   24  O   UNL     1      43.454 -18.862   6.641  1.00  0.00    -0.346 OA
HETATM   25  O   UNL     1      44.047 -19.360   3.848  1.00  0.00    -0.346 OA
HETATM   26  C   UNL     1      43.540 -17.108   3.398  1.00  0.00     0.040 A 
HETATM   27  C   UNL     1      44.408 -20.262   4.901  1.00  0.00     0.202 C 
HETATM   28  C   UNL     1      43.424 -20.173   6.058  1.00  0.00     0.202 C 
HETATM   29  C   UNL     1      43.177 -15.827   3.820  1.00  0.00     0.017 A 
ENDBRANCH   2  20
TORSDOF 4
ENDMDL
MODEL 10
REMARK VINA RESULT:      -7.3      5.917      9.229
REMARK  4 active torsions:
REMARK  status: ('A' for Active; 'I' for Inactive)
REMARK    1  A    between atoms: C_9  and  N_10 
REMARK    2  A    between atoms: N_10  and  C_12 
REMARK    3  A    between atoms: C_12  and  C_13 
REMARK    4  A    between atoms: C_14  and  C_15 
ROOT
HETATM    1  C   UNL     1      39.446  -9.984  11.336  1.00  0.00     0.016 A 
HETATM    2  C   UNL     1      39.545  -9.876  12.758  1.00  0.00     0.096 A 
HETATM    3  N   UNL     1      39.114 -10.994  13.353  1.00  0.00    -0.174 NA
HETATM    4  N   UNL     1      38.646 -11.760  12.362  1.00  0.00    -0.288 N 
HETATM    5  H   UNL     1      38.218 -12.651  12.602  1.00  0.00     0.188 HD
HETATM    6  C   UNL     1      38.853 -11.215  11.129  1.00  0.00     0.120 A 
ENDROOT
BRANCH   1   7
HETATM    7  C   UNL     1      39.902  -9.020  10.299  1.00  0.00     0.277 C 
BRANCH   7   8
HETATM    8  N   UNL     1      40.938  -9.577   9.338  1.00  0.00    -0.065 N 
HETATM    9  H   UNL     1      41.133 -10.549   9.612  1.00  0.00     0.280 HD
HETATM   10  C   UNL     1      40.454  -9.565   7.911  1.00  0.00     0.270 C 
BRANCH   8  11
HETATM   11  C   UNL     1      42.163  -8.718   9.422  1.00  0.00     0.205 C 
HETATM   12  C   UNL     1      43.140  -8.952  10.631  1.00  0.00     0.008 C 
HETATM   13  C   UNL     1      43.155  -7.769  11.607  1.00  0.00     0.020 C 
HETATM   14  C   UNL     1      43.099 -10.268  11.411  1.00  0.00     0.020 C 
HETATM   15  C   UNL     1      44.316  -8.868   9.607  1.00  0.00     0.137 C 
HETATM   16  C   UNL     1      43.320  -9.088   8.450  1.00  0.00     0.049 C 
HETATM   17  O   UNL     1      45.276  -9.942   9.604  1.00  0.00    -0.385 OA
HETATM   18  C   UNL     1      43.685 -10.507   8.004  1.00  0.00     0.035 C 
HETATM   19  C   UNL     1      45.161 -10.651   8.366  1.00  0.00     0.168 C 
ENDBRANCH   8  11
ENDBRANCH   7   8
ENDBRANCH   1   7
BRANCH   2  20
HETATM   20  C   UNL     1      40.094  -8.781  13.547  1.00  0.00    -0.002 A 
HETATM   21  C   UNL     1      39.504  -7.514  13.506  1.00  0.00     0.053 A 
HETATM   22  C   UNL     1      40.055  -6.464  14.240  1.00  0.00     0.103 A 
HETATM   23  C   UNL     1      41.203  -6.667  15.009  1.00  0.00     0.102 A 
HETATM   24  O   UNL     1      39.422  -5.253  14.144  1.00  0.00    -0.346 OA
HETATM   25  O   UNL     1      41.814  -5.674  15.727  1.00  0.00    -0.346 OA
HETATM   26  C   UNL     1      41.773  -7.936  15.084  1.00  0.00     0.040 A 
HETATM   27  C   UNL     1      41.325  -4.374  15.371  1.00  0.00     0.202 C 
HETATM   28  C   UNL     1      39.812  -4.382  15.216  1.00  0.00     0.202 C 
HETATM   29  C   UNL     1      41.218  -8.992  14.357  1.00  0.00     0.017 A 
ENDBRANCH   2  20
TORSDOF 4
ENDMDL
