MODEL 1
REMARK VINA RESULT:      -8.5      0.000      0.000
REMARK  5 active torsions:
REMARK  status: ('A' for Active; 'I' for Inactive)
REMARK    1  A    between atoms: O_2  and  C_3 
REMARK    2  A    between atoms: C_4  and  O_5 
REMARK    3  A    between atoms: C_10  and  C_11 
REMARK    4  A    between atoms: C_13  and  O_14 
REMARK    5  A    between atoms: O_14  and  C_15 
ROOT
HETATM    1  C   UNL     1      39.723 -13.371  -0.151  1.00  0.00     0.102 A 
HETATM    2  C   UNL     1      38.985 -12.213   0.166  1.00  0.00     0.103 A 
HETATM    3  C   UNL     1      39.418 -11.380   1.204  1.00  0.00     0.069 A 
HETATM    4  C   UNL     1      40.586 -11.686   1.905  1.00  0.00     0.044 A 
HETATM    5  C   UNL     1      41.327 -12.828   1.595  1.00  0.00    -0.020 A 
HETATM    6  C   UNL     1      42.551 -13.184   2.411  1.00  0.00     0.063 C 
HETATM    7  C   UNL     1      43.188 -11.942   3.042  1.00  0.00     0.117 C 
HETATM    8  C   UNL     1      42.182 -10.978   3.621  1.00  0.00     0.223 C 
HETATM    9  O   UNL     1      42.444 -10.253   4.579  1.00  0.00    -0.273 OA
HETATM   10  N   UNL     1      40.996 -10.854   2.951  1.00  0.00    -0.327 N 
HETATM   11  C   UNL     1      40.889 -13.669   0.562  1.00  0.00     0.049 A 
HETATM   12  H   UNL     1      40.387 -10.115   3.280  1.00  0.00     0.169 HD
ENDROOT
BRANCH   6  13
HETATM   13  C   UNL     1      42.294 -14.275   3.445  1.00  0.00    -0.046 A 
HETATM   14  C   UNL     1      43.287 -15.199   3.806  1.00  0.00     0.045 A 
HETATM   15  C   UNL     1      42.995 -16.269   4.658  1.00  0.00     0.076 A 
HETATM   16  C   UNL     1      41.733 -16.369   5.239  1.00  0.00     0.037 A 
HETATM   17  C   UNL     1      40.747 -15.436   4.925  1.00  0.00     0.003 A 
HETATM   18  C   UNL     1      41.020 -14.405   4.023  1.00  0.00     0.008 A 
BRANCH  15  19
HETATM   19  O   UNL     1      43.913 -17.234   5.007  1.00  0.00    -0.311 OA
BRANCH  19  20
HETATM   20  C   UNL     1      43.881 -18.446   4.352  1.00  0.00     0.076 A 
HETATM   21  C   UNL     1      44.079 -19.581   5.141  1.00  0.00     0.037 A 
HETATM   22  C   UNL     1      44.062 -20.850   4.560  1.00  0.00     0.003 A 
HETATM   23  C   UNL     1      43.843 -20.986   3.189  1.00  0.00     0.000 A 
HETATM   24  C   UNL     1      43.617 -19.856   2.403  1.00  0.00     0.003 A 
HETATM   25  C   UNL     1      43.613 -18.589   2.987  1.00  0.00     0.037 A 
ENDBRANCH  19  20
ENDBRANCH  15  19
ENDBRANCH   6  13
BRANCH   1  26
HETATM   26  O   UNL     1      39.238 -14.139  -1.182  1.00  0.00    -0.353 OA
HETATM   27  C   UNL     1      39.949 -14.091  -2.411  1.00  0.00     0.210 C 
ENDBRANCH   1  26
BRANCH   2  28
HETATM   28  O   UNL     1      37.860 -11.993  -0.589  1.00  0.00    -0.353 OA
HETATM   29  C   UNL     1      37.835 -10.842  -1.421  1.00  0.00     0.210 C 
ENDBRANCH   2  28
TORSDOF 5
ENDMDL
MODEL 2
REMARK VINA RESULT:      -8.4      2.550      5.370
REMARK  5 active torsions:
REMARK  status: ('A' for Active; 'I' for Inactive)
REMARK    1  A    between atoms: O_2  and  C_3 
REMARK    2  A    between atoms: C_4  and  O_5 
REMARK    3  A    between atoms: C_10  and  C_11 
REMARK    4  A    between atoms: C_13  and  O_14 
REMARK    5  A    between atoms: O_14  and  C_15 
ROOT
HETATM    1  C   UNL     1      43.279 -13.090   6.720  1.00  0.00     0.102 A 
HETATM    2  C   UNL     1      44.311 -12.218   6.318  1.00  0.00     0.103 A 
HETATM    3  C   UNL     1      44.212 -11.545   5.096  1.00  0.00     0.069 A 
HETATM    4  C   UNL     1      43.085 -11.719   4.291  1.00  0.00     0.044 A 
HETATM    5  C   UNL     1      42.054 -12.577   4.681  1.00  0.00    -0.020 A 
HETATM    6  C   UNL     1      40.873 -12.811   3.764  1.00  0.00     0.063 C 
HETATM    7  C   UNL     1      40.636 -11.618   2.833  1.00  0.00     0.117 C 
HETATM    8  C   UNL     1      41.907 -11.046   2.254  1.00  0.00     0.223 C 
HETATM    9  O   UNL     1      41.937 -10.495   1.154  1.00  0.00    -0.273 OA
HETATM   10  N   UNL     1      43.009 -11.053   3.064  1.00  0.00    -0.327 N 
HETATM   11  C   UNL     1      42.157 -13.261   5.901  1.00  0.00     0.049 A 
HETATM   12  H   UNL     1      43.814 -10.555   2.706  1.00  0.00     0.169 HD
ENDROOT
BRANCH   6  13
HETATM   13  C   UNL     1      40.957 -14.123   2.991  1.00  0.00    -0.046 A 
HETATM   14  C   UNL     1      42.149 -14.860   2.915  1.00  0.00     0.045 A 
HETATM   15  C   UNL     1      42.242 -15.991   2.098  1.00  0.00     0.076 A 
HETATM   16  C   UNL     1      41.114 -16.456   1.425  1.00  0.00     0.037 A 
HETATM   17  C   UNL     1      39.910 -15.760   1.522  1.00  0.00     0.003 A 
HETATM   18  C   UNL     1      39.836 -14.593   2.287  1.00  0.00     0.008 A 
BRANCH  15  19
HETATM   19  O   UNL     1      43.397 -16.724   1.945  1.00  0.00    -0.311 OA
BRANCH  19  20
HETATM   20  C   UNL     1      43.585 -17.837   2.735  1.00  0.00     0.076 A 
HETATM   21  C   UNL     1      43.457 -19.075   2.102  1.00  0.00     0.037 A 
HETATM   22  C   UNL     1      43.631 -20.255   2.827  1.00  0.00     0.003 A 
HETATM   23  C   UNL     1      43.938 -20.198   4.187  1.00  0.00     0.000 A 
HETATM   24  C   UNL     1      44.094 -18.964   4.816  1.00  0.00     0.003 A 
HETATM   25  C   UNL     1      43.941 -17.784   4.087  1.00  0.00     0.037 A 
ENDBRANCH  19  20
ENDBRANCH  15  19
ENDBRANCH   6  13
BRANCH   1  26
HETATM   26  O   UNL     1      43.445 -13.715   7.931  1.00  0.00    -0.353 OA
HETATM   27  C   UNL     1      43.102 -15.091   7.999  1.00  0.00     0.210 C 
ENDBRANCH   1  26
BRANCH   2  28
HETATM   28  O   UNL     1      45.370 -12.104   7.185  1.00  0.00    -0.353 OA
HETATM   29  C   UNL     1      45.732 -10.802   7.621  1.00  0.00     0.210 C 
ENDBRANCH   2  28
TORSDOF 5
ENDMDL
MODEL 3
REMARK VINA RESULT:      -8.4      2.540      3.536
REMARK  5 active torsions:
REMARK  status: ('A' for Active; 'I' for Inactive)
REMARK    1  A    between atoms: O_2  and  C_3 
REMARK    2  A    between atoms: C_4  and  O_5 
REMARK    3  A    between atoms: C_10  and  C_11 
REMARK    4  A    between atoms: C_13  and  O_14 
REMARK    5  A    between atoms: O_14  and  C_15 
ROOT
HETATM    1  C   UNL     1      40.512 -11.437   3.648  1.00  0.00     0.102 A 
HETATM    2  C   UNL     1      40.073 -10.493   4.598  1.00  0.00     0.103 A 
HETATM    3  C   UNL     1      40.770 -10.348   5.803  1.00  0.00     0.069 A 
HETATM    4  C   UNL     1      41.907 -11.120   6.050  1.00  0.00     0.044 A 
HETATM    5  C   UNL     1      42.354 -12.055   5.114  1.00  0.00    -0.020 A 
HETATM    6  C   UNL     1      43.545 -12.934   5.427  1.00  0.00     0.063 C 
HETATM    7  C   UNL     1      44.490 -12.267   6.431  1.00  0.00     0.117 C 
HETATM    8  C   UNL     1      43.772 -11.580   7.567  1.00  0.00     0.223 C 
HETATM    9  O   UNL     1      44.272 -11.464   8.685  1.00  0.00    -0.273 OA
HETATM   10  N   UNL     1      42.583 -10.977   7.266  1.00  0.00    -0.327 N 
HETATM   11  C   UNL     1      41.650 -12.209   3.911  1.00  0.00     0.049 A 
HETATM   12  H   UNL     1      42.180 -10.417   8.008  1.00  0.00     0.169 HD
ENDROOT
BRANCH   6  13
HETATM   13  C   UNL     1      43.159 -14.344   5.864  1.00  0.00    -0.046 A 
HETATM   14  C   UNL     1      43.988 -15.448   5.611  1.00  0.00     0.045 A 
HETATM   15  C   UNL     1      43.561 -16.747   5.904  1.00  0.00     0.076 A 
HETATM   16  C   UNL     1      42.341 -16.949   6.546  1.00  0.00     0.037 A 
HETATM   17  C   UNL     1      41.523 -15.860   6.843  1.00  0.00     0.003 A 
HETATM   18  C   UNL     1      41.922 -14.568   6.491  1.00  0.00     0.008 A 
BRANCH  15  19
HETATM   19  O   UNL     1      44.308 -17.871   5.632  1.00  0.00    -0.311 OA
BRANCH  19  20
HETATM   20  C   UNL     1      44.000 -18.616   4.514  1.00  0.00     0.076 A 
HETATM   21  C   UNL     1      44.130 -20.001   4.638  1.00  0.00     0.037 A 
HETATM   22  C   UNL     1      43.839 -20.832   3.555  1.00  0.00     0.003 A 
HETATM   23  C   UNL     1      43.413 -20.280   2.347  1.00  0.00     0.000 A 
HETATM   24  C   UNL     1      43.255 -18.899   2.229  1.00  0.00     0.003 A 
HETATM   25  C   UNL     1      43.526 -18.069   3.318  1.00  0.00     0.037 A 
ENDBRANCH  19  20
ENDBRANCH  15  19
ENDBRANCH   6  13
BRANCH   1  26
HETATM   26  O   UNL     1      39.780 -11.523   2.490  1.00  0.00    -0.353 OA
HETATM   27  C   UNL     1      39.489 -12.826   2.005  1.00  0.00     0.210 C 
ENDBRANCH   1  26
BRANCH   2  28
HETATM   28  O   UNL     1      38.955  -9.774   4.256  1.00  0.00    -0.353 OA
HETATM   29  C   UNL     1      38.318  -9.014   5.273  1.00  0.00     0.210 C 
ENDBRANCH   2  28
TORSDOF 5
ENDMDL
MODEL 4
REMARK VINA RESULT:      -8.1      4.134      7.802
REMARK  5 active torsions:
REMARK  status: ('A' for Active; 'I' for Inactive)
REMARK    1  A    between atoms: O_2  and  C_3 
REMARK    2  A    between atoms: C_4  and  O_5 
REMARK    3  A    between atoms: C_10  and  C_11 
REMARK    4  A    between atoms: C_13  and  O_14 
REMARK    5  A    between atoms: O_14  and  C_15 
ROOT
HETATM    1  C   UNL     1      41.997 -16.732   2.794  1.00  0.00     0.102 A 
HETATM    2  C   UNL     1      42.861 -17.834   2.951  1.00  0.00     0.103 A 
HETATM    3  C   UNL     1      43.518 -18.030   4.171  1.00  0.00     0.069 A 
HETATM    4  C   UNL     1      43.299 -17.149   5.232  1.00  0.00     0.044 A 
HETATM    5  C   UNL     1      42.441 -16.057   5.089  1.00  0.00    -0.020 A 
HETATM    6  C   UNL     1      42.270 -15.071   6.224  1.00  0.00     0.063 C 
HETATM    7  C   UNL     1      42.544 -15.723   7.583  1.00  0.00     0.117 C 
HETATM    8  C   UNL     1      43.749 -16.632   7.582  1.00  0.00     0.223 C 
HETATM    9  O   UNL     1      44.433 -16.815   8.587  1.00  0.00    -0.273 OA
HETATM   10  N   UNL     1      43.976 -17.348   6.439  1.00  0.00    -0.327 N 
HETATM   11  C   UNL     1      41.790 -15.854   3.863  1.00  0.00     0.049 A 
HETATM   12  H   UNL     1      44.711 -18.041   6.501  1.00  0.00     0.169 HD
ENDROOT
BRANCH   6  13
HETATM   13  C   UNL     1      43.075 -13.789   6.040  1.00  0.00    -0.046 A 
HETATM   14  C   UNL     1      43.823 -13.230   7.088  1.00  0.00     0.045 A 
HETATM   15  C   UNL     1      44.450 -11.989   6.938  1.00  0.00     0.076 A 
HETATM   16  C   UNL     1      44.420 -11.340   5.706  1.00  0.00     0.037 A 
HETATM   17  C   UNL     1      43.717 -11.901   4.642  1.00  0.00     0.003 A 
HETATM   18  C   UNL     1      43.036 -13.109   4.811  1.00  0.00     0.008 A 
BRANCH  15  19
HETATM   19  O   UNL     1      45.155 -11.368   7.945  1.00  0.00    -0.311 OA
BRANCH  19  20
HETATM   20  C   UNL     1      44.482 -10.521   8.799  1.00  0.00     0.076 A 
HETATM   21  C   UNL     1      45.157 -10.152   9.964  1.00  0.00     0.037 A 
HETATM   22  C   UNL     1      44.550  -9.296  10.885  1.00  0.00     0.003 A 
HETATM   23  C   UNL     1      43.267  -8.805  10.639  1.00  0.00     0.000 A 
HETATM   24  C   UNL     1      42.602  -9.149   9.464  1.00  0.00     0.003 A 
HETATM   25  C   UNL     1      43.217  -9.988   8.533  1.00  0.00     0.037 A 
ENDBRANCH  19  20
ENDBRANCH  15  19
ENDBRANCH   6  13
BRANCH   1  26
HETATM   26  O   UNL     1      41.386 -16.606   1.570  1.00  0.00    -0.353 OA
HETATM   27  C   UNL     1      40.285 -15.712   1.488  1.00  0.00     0.210 C 
ENDBRANCH   1  26
BRANCH   2  28
HETATM   28  O   UNL     1      42.999 -18.649   1.855  1.00  0.00    -0.353 OA
HETATM   29  C   UNL     1      43.236 -20.031   2.081  1.00  0.00     0.210 C 
ENDBRANCH   2  28
TORSDOF 5
ENDMDL
MODEL 5
REMARK VINA RESULT:      -7.7     14.937     17.221
REMARK  5 active torsions:
REMARK  status: ('A' for Active; 'I' for Inactive)
REMARK    1  A    between atoms: O_2  and  C_3 
REMARK    2  A    between atoms: C_4  and  O_5 
REMARK    3  A    between atoms: C_10  and  C_11 
REMARK    4  A    between atoms: C_13  and  O_14 
REMARK    5  A    between atoms: O_14  and  C_15 
ROOT
HETATM    1  C   UNL     1      48.880 -29.592   1.040  1.00  0.00     0.102 A 
HETATM    2  C   UNL     1      49.574 -29.757  -0.176  1.00  0.00     0.103 A 
HETATM    3  C   UNL     1      48.919 -29.501  -1.386  1.00  0.00     0.069 A 
HETATM    4  C   UNL     1      47.593 -29.065  -1.385  1.00  0.00     0.044 A 
HETATM    5  C   UNL     1      46.898 -28.893  -0.185  1.00  0.00    -0.020 A 
HETATM    6  C   UNL     1      45.440 -28.489  -0.204  1.00  0.00     0.063 C 
HETATM    7  C   UNL     1      45.088 -27.705  -1.472  1.00  0.00     0.117 C 
HETATM    8  C   UNL     1      45.700 -28.282  -2.725  1.00  0.00     0.223 C 
HETATM    9  O   UNL     1      45.166 -28.172  -3.827  1.00  0.00    -0.273 OA
HETATM   10  N   UNL     1      46.947 -28.831  -2.602  1.00  0.00    -0.327 N 
HETATM   11  C   UNL     1      47.550 -29.159   1.027  1.00  0.00     0.049 A 
HETATM   12  H   UNL     1      47.391 -29.098  -3.472  1.00  0.00     0.169 HD
ENDROOT
BRANCH   6  13
HETATM   13  C   UNL     1      44.484 -29.655   0.023  1.00  0.00    -0.046 A 
HETATM   14  C   UNL     1      43.216 -29.470   0.596  1.00  0.00     0.045 A 
HETATM   15  C   UNL     1      42.407 -30.566   0.913  1.00  0.00     0.076 A 
HETATM   16  C   UNL     1      42.814 -31.853   0.570  1.00  0.00     0.037 A 
HETATM   17  C   UNL     1      44.052 -32.052  -0.038  1.00  0.00     0.003 A 
HETATM   18  C   UNL     1      44.888 -30.963  -0.296  1.00  0.00     0.008 A 
BRANCH  15  19
HETATM   19  O   UNL     1      41.177 -30.450   1.521  1.00  0.00    -0.311 OA
BRANCH  19  20
HETATM   20  C   UNL     1      40.974 -31.079   2.731  1.00  0.00     0.076 A 
HETATM   21  C   UNL     1      41.609 -30.510   3.838  1.00  0.00     0.037 A 
HETATM   22  C   UNL     1      41.458 -31.083   5.102  1.00  0.00     0.003 A 
HETATM   23  C   UNL     1      40.668 -32.222   5.262  1.00  0.00     0.000 A 
HETATM   24  C   UNL     1      40.011 -32.775   4.163  1.00  0.00     0.003 A 
HETATM   25  C   UNL     1      40.144 -32.191   2.903  1.00  0.00     0.037 A 
ENDBRANCH  19  20
ENDBRANCH  15  19
ENDBRANCH   6  13
BRANCH   1  26
HETATM   26  O   UNL     1      49.587 -29.860   2.187  1.00  0.00    -0.353 OA
HETATM   27  C   UNL     1      49.166 -29.202   3.373  1.00  0.00     0.210 C 
ENDBRANCH   1  26
BRANCH   2  28
HETATM   28  O   UNL     1      50.877 -30.176  -0.070  1.00  0.00    -0.353 OA
HETATM   29  C   UNL     1      51.214 -31.439  -0.627  1.00  0.00     0.210 C 
ENDBRANCH   2  28
TORSDOF 5
ENDMDL
MODEL 6
REMARK VINA RESULT:      -7.7      3.165      6.286
REMARK  5 active torsions:
REMARK  status: ('A' for Active; 'I' for Inactive)
REMARK    1  A    between atoms: O_2  and  C_3 
REMARK    2  A    between atoms: C_4  and  O_5 
REMARK    3  A    between atoms: C_10  and  C_11 
REMARK    4  A    between atoms: C_13  and  O_14 
REMARK    5  A    between atoms: O_14  and  C_15 
ROOT
HETATM    1  C   UNL     1      39.254 -12.400   1.042  1.00  0.00     0.102 A 
HETATM    2  C   UNL     1      39.542 -13.298  -0.005  1.00  0.00     0.103 A 
HETATM    3  C   UNL     1      40.276 -14.459   0.262  1.00  0.00     0.069 A 
HETATM    4  C   UNL     1      40.698 -14.736   1.562  1.00  0.00     0.044 A 
HETATM    5  C   UNL     1      40.414 -13.856   2.609  1.00  0.00    -0.020 A 
HETATM    6  C   UNL     1      40.941 -14.133   4.000  1.00  0.00     0.063 C 
HETATM    7  C   UNL     1      41.165 -15.631   4.229  1.00  0.00     0.117 C 
HETATM    8  C   UNL     1      41.804 -16.331   3.055  1.00  0.00     0.223 C 
HETATM    9  O   UNL     1      42.523 -17.319   3.191  1.00  0.00    -0.273 OA
HETATM   10  N   UNL     1      41.446 -15.891   1.810  1.00  0.00    -0.327 N 
HETATM   11  C   UNL     1      39.688 -12.686   2.341  1.00  0.00     0.049 A 
HETATM   12  H   UNL     1      41.785 -16.451   1.038  1.00  0.00     0.169 HD
ENDROOT
BRANCH   6  13
HETATM   13  C   UNL     1      42.180 -13.316   4.353  1.00  0.00    -0.046 A 
HETATM   14  C   UNL     1      42.662 -13.239   5.669  1.00  0.00     0.045 A 
HETATM   15  C   UNL     1      43.720 -12.384   5.994  1.00  0.00     0.076 A 
HETATM   16  C   UNL     1      44.374 -11.673   4.990  1.00  0.00     0.037 A 
HETATM   17  C   UNL     1      43.934 -11.771   3.671  1.00  0.00     0.003 A 
HETATM   18  C   UNL     1      42.836 -12.575   3.356  1.00  0.00     0.008 A 
BRANCH  15  19
HETATM   19  O   UNL     1      44.204 -12.227   7.274  1.00  0.00    -0.311 OA
BRANCH  19  20
HETATM   20  C   UNL     1      44.505 -10.958   7.717  1.00  0.00     0.076 A 
HETATM   21  C   UNL     1      43.420 -10.106   7.940  1.00  0.00     0.037 A 
HETATM   22  C   UNL     1      43.634  -8.802   8.390  1.00  0.00     0.003 A 
HETATM   23  C   UNL     1      44.933  -8.349   8.622  1.00  0.00     0.000 A 
HETATM   24  C   UNL     1      46.016  -9.206   8.428  1.00  0.00     0.003 A 
HETATM   25  C   UNL     1      45.802 -10.516   7.998  1.00  0.00     0.037 A 
ENDBRANCH  19  20
ENDBRANCH  15  19
ENDBRANCH   6  13
BRANCH   1  26
HETATM   26  O   UNL     1      38.529 -11.283   0.706  1.00  0.00    -0.353 OA
HETATM   27  C   UNL     1      37.200 -11.203   1.200  1.00  0.00     0.210 C 
ENDBRANCH   1  26
BRANCH   2  28
HETATM   28  O   UNL     1      39.071 -12.943  -1.245  1.00  0.00    -0.353 OA
HETATM   29  C   UNL     1      38.625 -13.981  -2.106  1.00  0.00     0.210 C 
ENDBRANCH   2  28
TORSDOF 5
ENDMDL
MODEL 7
REMARK VINA RESULT:      -7.5      5.694      8.391
REMARK  5 active torsions:
REMARK  status: ('A' for Active; 'I' for Inactive)
REMARK    1  A    between atoms: O_2  and  C_3 
REMARK    2  A    between atoms: C_4  and  O_5 
REMARK    3  A    between atoms: C_10  and  C_11 
REMARK    4  A    between atoms: C_13  and  O_14 
REMARK    5  A    between atoms: O_14  and  C_15 
ROOT
HETATM    1  C   UNL     1      42.002  -6.569   8.644  1.00  0.00     0.102 A 
HETATM    2  C   UNL     1      40.970  -6.992   9.506  1.00  0.00     0.103 A 
HETATM    3  C   UNL     1      41.173  -8.100  10.336  1.00  0.00     0.069 A 
HETATM    4  C   UNL     1      42.399  -8.767  10.325  1.00  0.00     0.044 A 
HETATM    5  C   UNL     1      43.431  -8.353   9.479  1.00  0.00    -0.020 A 
HETATM    6  C   UNL     1      44.728  -9.130   9.425  1.00  0.00     0.063 C 
HETATM    7  C   UNL     1      44.996  -9.870  10.739  1.00  0.00     0.117 C 
HETATM    8  C   UNL     1      43.771 -10.536  11.316  1.00  0.00     0.223 C 
HETATM    9  O   UNL     1      43.839 -11.555  12.001  1.00  0.00    -0.273 OA
HETATM   10  N   UNL     1      42.581  -9.883  11.147  1.00  0.00    -0.327 N 
HETATM   11  C   UNL     1      43.225  -7.249   8.638  1.00  0.00     0.049 A 
HETATM   12  H   UNL     1      41.794 -10.280  11.646  1.00  0.00     0.169 HD
ENDROOT
BRANCH   6  13
HETATM   13  C   UNL     1      44.828 -10.061   8.222  1.00  0.00    -0.046 A 
HETATM   14  C   UNL     1      43.714 -10.768   7.742  1.00  0.00     0.045 A 
HETATM   15  C   UNL     1      43.852 -11.713   6.720  1.00  0.00     0.076 A 
HETATM   16  C   UNL     1      45.086 -11.890   6.098  1.00  0.00     0.037 A 
HETATM   17  C   UNL     1      46.194 -11.165   6.534  1.00  0.00     0.003 A 
HETATM   18  C   UNL     1      46.069 -10.268   7.598  1.00  0.00     0.008 A 
BRANCH  15  19
HETATM   19  O   UNL     1      42.807 -12.473   6.242  1.00  0.00    -0.311 OA
BRANCH  19  20
HETATM   20  C   UNL     1      43.038 -13.795   5.929  1.00  0.00     0.076 A 
HETATM   21  C   UNL     1      42.820 -14.163   4.599  1.00  0.00     0.037 A 
HETATM   22  C   UNL     1      43.031 -15.482   4.194  1.00  0.00     0.003 A 
HETATM   23  C   UNL     1      43.464 -16.434   5.118  1.00  0.00     0.000 A 
HETATM   24  C   UNL     1      43.709 -16.063   6.439  1.00  0.00     0.003 A 
HETATM   25  C   UNL     1      43.519 -14.740   6.840  1.00  0.00     0.037 A 
ENDBRANCH  19  20
ENDBRANCH  15  19
ENDBRANCH   6  13
BRANCH   1  26
HETATM   26  O   UNL     1      41.731  -5.474   7.860  1.00  0.00    -0.353 OA
HETATM   27  C   UNL     1      41.695  -5.679   6.456  1.00  0.00     0.210 C 
ENDBRANCH   1  26
BRANCH   2  28
HETATM   28  O   UNL     1      39.808  -6.263   9.453  1.00  0.00    -0.353 OA
HETATM   29  C   UNL     1      38.672  -6.868   8.855  1.00  0.00     0.210 C 
ENDBRANCH   2  28
TORSDOF 5
ENDMDL
MODEL 8
REMARK VINA RESULT:      -7.5      3.472      5.128
REMARK  5 active torsions:
REMARK  status: ('A' for Active; 'I' for Inactive)
REMARK    1  A    between atoms: O_2  and  C_3 
REMARK    2  A    between atoms: C_4  and  O_5 
REMARK    3  A    between atoms: C_10  and  C_11 
REMARK    4  A    between atoms: C_13  and  O_14 
REMARK    5  A    between atoms: O_14  and  C_15 
ROOT
HETATM    1  C   UNL     1      39.450  -9.056   5.610  1.00  0.00     0.102 A 
HETATM    2  C   UNL     1      39.565  -8.675   6.962  1.00  0.00     0.103 A 
HETATM    3  C   UNL     1      40.639  -9.145   7.725  1.00  0.00     0.069 A 
HETATM    4  C   UNL     1      41.603  -9.969   7.142  1.00  0.00     0.044 A 
HETATM    5  C   UNL     1      41.502 -10.350   5.802  1.00  0.00    -0.020 A 
HETATM    6  C   UNL     1      42.515 -11.302   5.205  1.00  0.00     0.063 C 
HETATM    7  C   UNL     1      43.860 -11.225   5.934  1.00  0.00     0.117 C 
HETATM    8  C   UNL     1      43.727 -11.151   7.435  1.00  0.00     0.223 C 
HETATM    9  O   UNL     1      44.585 -11.599   8.193  1.00  0.00    -0.273 OA
HETATM   10  N   UNL     1      42.661 -10.446   7.922  1.00  0.00    -0.327 N 
HETATM   11  C   UNL     1      40.420  -9.888   5.039  1.00  0.00     0.049 A 
HETATM   12  H   UNL     1      42.657 -10.302   8.925  1.00  0.00     0.169 HD
ENDROOT
BRANCH   6  13
HETATM   13  C   UNL     1      42.010 -12.738   5.101  1.00  0.00    -0.046 A 
HETATM   14  C   UNL     1      42.430 -13.595   4.072  1.00  0.00     0.045 A 
HETATM   15  C   UNL     1      41.859 -14.863   3.919  1.00  0.00     0.076 A 
HETATM   16  C   UNL     1      40.935 -15.327   4.853  1.00  0.00     0.037 A 
HETATM   17  C   UNL     1      40.539 -14.504   5.906  1.00  0.00     0.003 A 
HETATM   18  C   UNL     1      41.061 -13.213   6.021  1.00  0.00     0.008 A 
BRANCH  15  19
HETATM   19  O   UNL     1      42.193 -15.728   2.900  1.00  0.00    -0.311 OA
BRANCH  19  20
HETATM   20  C   UNL     1      42.879 -16.882   3.211  1.00  0.00     0.076 A 
HETATM   21  C   UNL     1      42.753 -17.938   2.305  1.00  0.00     0.037 A 
HETATM   22  C   UNL     1      43.414 -19.145   2.541  1.00  0.00     0.003 A 
HETATM   23  C   UNL     1      44.206 -19.296   3.680  1.00  0.00     0.000 A 
HETATM   24  C   UNL     1      44.356 -18.234   4.571  1.00  0.00     0.003 A 
HETATM   25  C   UNL     1      43.712 -17.020   4.325  1.00  0.00     0.037 A 
ENDBRANCH  19  20
ENDBRANCH  15  19
ENDBRANCH   6  13
BRANCH   1  26
HETATM   26  O   UNL     1      38.372  -8.555   4.924  1.00  0.00    -0.353 OA
HETATM   27  C   UNL     1      38.636  -7.919   3.682  1.00  0.00     0.210 C 
ENDBRANCH   1  26
BRANCH   2  28
HETATM   28  O   UNL     1      38.575  -7.851   7.438  1.00  0.00    -0.353 OA
HETATM   29  C   UNL     1      38.895  -6.484   7.649  1.00  0.00     0.210 C 
ENDBRANCH   2  28
TORSDOF 5
ENDMDL
MODEL 9
REMARK VINA RESULT:      -7.4      2.978      5.811
REMARK  5 active torsions:
REMARK  status: ('A' for Active; 'I' for Inactive)
REMARK    1  A    between atoms: O_2  and  C_3 
REMARK    2  A    between atoms: C_4  and  O_5 
REMARK    3  A    between atoms: C_10  and  C_11 
REMARK    4  A    between atoms: C_13  and  O_14 
REMARK    5  A    between atoms: O_14  and  C_15 
ROOT
HETATM    1  C   UNL     1      39.323 -12.203   2.136  1.00  0.00     0.102 A 
HETATM    2  C   UNL     1      40.117 -12.032   0.984  1.00  0.00     0.103 A 
HETATM    3  C   UNL     1      41.118 -12.965   0.690  1.00  0.00     0.069 A 
HETATM    4  C   UNL     1      41.311 -14.069   1.521  1.00  0.00     0.044 A 
HETATM    5  C   UNL     1      40.525 -14.251   2.662  1.00  0.00    -0.020 A 
HETATM    6  C   UNL     1      40.795 -15.414   3.592  1.00  0.00     0.063 C 
HETATM    7  C   UNL     1      41.448 -16.587   2.854  1.00  0.00     0.117 C 
HETATM    8  C   UNL     1      42.526 -16.163   1.887  1.00  0.00     0.223 C 
HETATM    9  O   UNL     1      43.484 -16.884   1.614  1.00  0.00    -0.273 OA
HETATM   10  N   UNL     1      42.326 -14.984   1.223  1.00  0.00    -0.327 N 
HETATM   11  C   UNL     1      39.530 -13.311   2.964  1.00  0.00     0.049 A 
HETATM   12  H   UNL     1      42.994 -14.779   0.491  1.00  0.00     0.169 HD
ENDROOT
BRANCH   6  13
HETATM   13  C   UNL     1      41.580 -15.024   4.840  1.00  0.00    -0.046 A 
HETATM   14  C   UNL     1      42.506 -13.969   4.828  1.00  0.00     0.045 A 
HETATM   15  C   UNL     1      43.308 -13.708   5.944  1.00  0.00     0.076 A 
HETATM   16  C   UNL     1      43.123 -14.434   7.118  1.00  0.00     0.037 A 
HETATM   17  C   UNL     1      42.177 -15.457   7.160  1.00  0.00     0.003 A 
HETATM   18  C   UNL     1      41.422 -15.760   6.025  1.00  0.00     0.008 A 
BRANCH  15  19
HETATM   19  O   UNL     1      44.268 -12.721   5.975  1.00  0.00    -0.311 OA
BRANCH  19  20
HETATM   20  C   UNL     1      44.065 -11.625   6.785  1.00  0.00     0.076 A 
HETATM   21  C   UNL     1      45.137 -11.251   7.599  1.00  0.00     0.037 A 
HETATM   22  C   UNL     1      45.018 -10.152   8.452  1.00  0.00     0.003 A 
HETATM   23  C   UNL     1      43.829  -9.423   8.488  1.00  0.00     0.000 A 
HETATM   24  C   UNL     1      42.768  -9.777   7.656  1.00  0.00     0.003 A 
HETATM   25  C   UNL     1      42.893 -10.863   6.788  1.00  0.00     0.037 A 
ENDBRANCH  19  20
ENDBRANCH  15  19
ENDBRANCH   6  13
BRANCH   1  26
HETATM   26  O   UNL     1      38.360 -11.249   2.359  1.00  0.00    -0.353 OA
HETATM   27  C   UNL     1      38.595 -10.332   3.418  1.00  0.00     0.210 C 
ENDBRANCH   1  26
BRANCH   2  28
HETATM   28  O   UNL     1      39.841 -10.923   0.224  1.00  0.00    -0.353 OA
HETATM   29  C   UNL     1      40.871  -9.959   0.058  1.00  0.00     0.210 C 
ENDBRANCH   2  28
TORSDOF 5
ENDMDL
MODEL 10
REMARK VINA RESULT:      -7.4      2.857      7.248
REMARK  5 active torsions:
REMARK  status: ('A' for Active; 'I' for Inactive)
REMARK    1  A    between atoms: O_2  and  C_3 
REMARK    2  A    between atoms: C_4  and  O_5 
REMARK    3  A    between atoms: C_10  and  C_11 
REMARK    4  A    between atoms: C_13  and  O_14 
REMARK    5  A    between atoms: O_14  and  C_15 
ROOT
HETATM    1  C   UNL     1      41.989 -16.753   2.808  1.00  0.00     0.102 A 
HETATM    2  C   UNL     1      42.891 -17.824   2.968  1.00  0.00     0.103 A 
HETATM    3  C   UNL     1      43.550 -17.997   4.190  1.00  0.00     0.069 A 
HETATM    4  C   UNL     1      43.297 -17.126   5.251  1.00  0.00     0.044 A 
HETATM    5  C   UNL     1      42.401 -16.064   5.105  1.00  0.00    -0.020 A 
HETATM    6  C   UNL     1      42.192 -15.086   6.241  1.00  0.00     0.063 C 
HETATM    7  C   UNL     1      42.484 -15.728   7.600  1.00  0.00     0.117 C 
HETATM    8  C   UNL     1      43.720 -16.594   7.602  1.00  0.00     0.223 C 
HETATM    9  O   UNL     1      44.407 -16.754   8.610  1.00  0.00    -0.273 OA
HETATM   10  N   UNL     1      43.976 -17.301   6.460  1.00  0.00    -0.327 N 
HETATM   11  C   UNL     1      41.748 -15.883   3.877  1.00  0.00     0.049 A 
HETATM   12  H   UNL     1      44.735 -17.968   6.524  1.00  0.00     0.169 HD
ENDROOT
BRANCH   6  13
HETATM   13  C   UNL     1      42.952 -13.776   6.059  1.00  0.00    -0.046 A 
HETATM   14  C   UNL     1      42.810 -12.994   4.902  1.00  0.00     0.045 A 
HETATM   15  C   UNL     1      43.609 -11.865   4.698  1.00  0.00     0.076 A 
HETATM   16  C   UNL     1      44.490 -11.447   5.694  1.00  0.00     0.037 A 
HETATM   17  C   UNL     1      44.613 -12.188   6.868  1.00  0.00     0.003 A 
HETATM   18  C   UNL     1      43.861 -13.353   7.043  1.00  0.00     0.008 A 
BRANCH  15  19
HETATM   19  O   UNL     1      43.551 -11.088   3.562  1.00  0.00    -0.311 OA
BRANCH  19  20
HETATM   20  C   UNL     1      42.317 -10.685   3.099  1.00  0.00     0.076 A 
HETATM   21  C   UNL     1      41.874 -11.284   1.917  1.00  0.00     0.037 A 
HETATM   22  C   UNL     1      40.635 -10.934   1.377  1.00  0.00     0.003 A 
HETATM   23  C   UNL     1      39.836  -9.988   2.020  1.00  0.00     0.000 A 
HETATM   24  C   UNL     1      40.264  -9.410   3.214  1.00  0.00     0.003 A 
HETATM   25  C   UNL     1      41.493  -9.774   3.766  1.00  0.00     0.037 A 
ENDBRANCH  19  20
ENDBRANCH  15  19
ENDBRANCH   6  13
BRANCH   1  26
HETATM   26  O   UNL     1      41.378 -16.647   1.583  1.00  0.00    -0.353 OA
HETATM   27  C   UNL     1      40.309 -15.720   1.473  1.00  0.00     0.210 C 
ENDBRANCH   1  26
BRANCH   2  28
HETATM   28  O   UNL     1      43.061 -18.633   1.872  1.00  0.00    -0.353 OA
HETATM   29  C   UNL     1      43.253 -20.022   2.096  1.00  0.00     0.210 C 
ENDBRANCH   2  28
TORSDOF 5
ENDMDL
