MODEL 1
REMARK VINA RESULT:      -7.7      0.000      0.000
REMARK  8 active torsions:
REMARK  status: ('A' for Active; 'I' for Inactive)
REMARK    1  A    between atoms: N_2  and  C_4 
REMARK    2  A    between atoms: N_2  and  C_28 
REMARK    3  A    between atoms: N_7  and  C_8 
REMARK    4  A    between atoms: C_11  and  C_12 
REMARK       I    between atoms: C_12  and  N_13 
REMARK    5  A    between atoms: N_13  and  C_14 
REMARK    6  A    between atoms: C_14  and  C_15 
REMARK    7  A    between atoms: C_15  and  N_16 
REMARK    8  A    between atoms: C_28  and  C_29 
ROOT
HETATM    1  C   UNL     1      39.815 -13.777   0.613  1.00  0.00     0.030 A 
HETATM    2  C   UNL     1      39.783 -13.119   1.852  1.00  0.00     0.030 A 
HETATM    3  C   UNL     1      40.149 -13.767   3.044  1.00  0.00     0.019 A 
HETATM    4  C   UNL     1      40.563 -15.100   3.017  1.00  0.00     0.032 A 
HETATM    5  C   UNL     1      40.606 -15.774   1.797  1.00  0.00     0.019 A 
HETATM    6  C   UNL     1      40.229 -15.120   0.617  1.00  0.00     0.030 A 
ENDROOT
BRANCH   1   7
HETATM    7  N   UNL     1      39.528 -13.141  -0.602  1.00  0.00    -0.381 N 
HETATM    8  C   UNL     1      40.642 -12.730  -1.454  1.00  0.00     0.125 C 
HETATM    9  C   UNL     1      40.147 -12.575  -2.890  1.00  0.00     0.053 C 
HETATM   10  C   UNL     1      38.931 -11.640  -3.006  1.00  0.00     0.191 C 
HETATM   11  C   UNL     1      37.839 -12.135  -2.043  1.00  0.00     0.053 C 
HETATM   12  C   UNL     1      38.342 -12.280  -0.609  1.00  0.00     0.125 C 
BRANCH  10  13
HETATM   13  N   UNL     1      39.311 -10.166  -2.769  1.00  0.00    -0.067 N 
HETATM   14  C   UNL     1      38.121  -9.226  -2.739  1.00  0.00     0.270 C 
HETATM   15  H   UNL     1      39.759 -10.083  -1.849  1.00  0.00     0.280 HD
BRANCH  13  16
HETATM   16  C   UNL     1      40.330  -9.641  -3.784  1.00  0.00     0.273 C 
BRANCH  16  17
HETATM   17  C   UNL     1      41.359  -8.757  -3.154  1.00  0.00    -0.026 A 
HETATM   18  C   UNL     1      41.795  -8.863  -1.845  1.00  0.00     0.058 A 
HETATM   19  S   UNL     1      42.996  -7.714  -1.447  1.00  0.00    -0.113 SA
HETATM   20  C   UNL     1      42.929  -7.024  -3.007  1.00  0.00     0.050 A 
HETATM   21  C   UNL     1      42.018  -7.664  -3.818  1.00  0.00     0.016 A 
ENDBRANCH  16  17
ENDBRANCH  13  16
ENDBRANCH  10  13
ENDBRANCH   1   7
BRANCH   4  22
HETATM   22  C   UNL     1      41.051 -15.794   4.237  1.00  0.00     0.251 C 
HETATM   23  N   UNL     1      42.398 -15.717   4.512  1.00  0.00    -0.355 N 
HETATM   24  H   UNL     1      42.981 -15.179   3.879  1.00  0.00     0.162 HD
HETATM   25  O   UNL     1      40.268 -16.394   4.969  1.00  0.00    -0.268 OA
BRANCH  23  26
HETATM   26  C   UNL     1      43.095 -16.568   5.475  1.00  0.00     0.150 C 
BRANCH  26  27
HETATM   27  C   UNL     1      44.251 -17.438   4.930  1.00  0.00     0.254 C 
BRANCH  27  28
HETATM   28  N   UNL     1      43.777 -18.702   4.256  1.00  0.00    -0.066 N 
HETATM   29  H   UNL     1      42.750 -18.748   4.428  1.00  0.00     0.280 HD
HETATM   30  C   UNL     1      43.948 -18.726   2.745  1.00  0.00     0.261 C 
HETATM   31  C   UNL     1      43.362 -20.028   2.184  1.00  0.00     0.195 C 
HETATM   32  O   UNL     1      43.985 -21.168   2.785  1.00  0.00    -0.388 OA
HETATM   33  C   UNL     1      43.770 -21.197   4.200  1.00  0.00     0.195 C 
HETATM   34  C   UNL     1      44.371 -19.958   4.873  1.00  0.00     0.261 C 
ENDBRANCH  27  28
ENDBRANCH  26  27
ENDBRANCH  23  26
ENDBRANCH   4  22
TORSDOF 8
ENDMDL
MODEL 2
REMARK VINA RESULT:      -7.6     12.673     15.423
REMARK  8 active torsions:
REMARK  status: ('A' for Active; 'I' for Inactive)
REMARK    1  A    between atoms: N_2  and  C_4 
REMARK    2  A    between atoms: N_2  and  C_28 
REMARK    3  A    between atoms: N_7  and  C_8 
REMARK    4  A    between atoms: C_11  and  C_12 
REMARK       I    between atoms: C_12  and  N_13 
REMARK    5  A    between atoms: N_13  and  C_14 
REMARK    6  A    between atoms: C_14  and  C_15 
REMARK    7  A    between atoms: C_15  and  N_16 
REMARK    8  A    between atoms: C_28  and  C_29 
ROOT
HETATM    1  C   UNL     1      42.895  -8.515  12.674  1.00  0.00     0.030 A 
HETATM    2  C   UNL     1      41.756  -9.207  13.113  1.00  0.00     0.030 A 
HETATM    3  C   UNL     1      41.112  -8.884  14.320  1.00  0.00     0.019 A 
HETATM    4  C   UNL     1      41.600  -7.846  15.116  1.00  0.00     0.032 A 
HETATM    5  C   UNL     1      42.728  -7.140  14.699  1.00  0.00     0.019 A 
HETATM    6  C   UNL     1      43.367  -7.479  13.499  1.00  0.00     0.030 A 
ENDROOT
BRANCH   1   7
HETATM    7  N   UNL     1      43.517  -8.762  11.443  1.00  0.00    -0.381 N 
HETATM    8  C   UNL     1      42.964  -8.135  10.244  1.00  0.00     0.125 C 
HETATM    9  C   UNL     1      44.042  -8.077   9.164  1.00  0.00     0.053 C 
HETATM   10  C   UNL     1      44.679  -9.448   8.880  1.00  0.00     0.191 C 
HETATM   11  C   UNL     1      45.187 -10.036  10.208  1.00  0.00     0.053 C 
HETATM   12  C   UNL     1      44.101 -10.096  11.279  1.00  0.00     0.125 C 
BRANCH  10  13
HETATM   13  N   UNL     1      43.711 -10.393   8.142  1.00  0.00    -0.067 N 
HETATM   14  C   UNL     1      44.375 -11.646   7.602  1.00  0.00     0.270 C 
HETATM   15  H   UNL     1      42.994 -10.715   8.802  1.00  0.00     0.280 HD
BRANCH  13  16
HETATM   16  C   UNL     1      42.957  -9.703   7.003  1.00  0.00     0.273 C 
BRANCH  16  17
HETATM   17  C   UNL     1      41.522 -10.120   6.934  1.00  0.00    -0.026 A 
HETATM   18  C   UNL     1      41.012 -11.049   6.044  1.00  0.00     0.058 A 
HETATM   19  S   UNL     1      39.336 -11.316   6.244  1.00  0.00    -0.113 SA
HETATM   20  C   UNL     1      39.249 -10.164   7.501  1.00  0.00     0.050 A 
HETATM   21  C   UNL     1      40.475  -9.597   7.770  1.00  0.00     0.016 A 
ENDBRANCH  16  17
ENDBRANCH  13  16
ENDBRANCH  10  13
ENDBRANCH   1   7
BRANCH   4  22
HETATM   22  C   UNL     1      40.894  -7.406  16.349  1.00  0.00     0.251 C 
HETATM   23  N   UNL     1      40.963  -8.234  17.446  1.00  0.00    -0.355 N 
HETATM   24  H   UNL     1      41.502  -9.089  17.361  1.00  0.00     0.162 HD
HETATM   25  O   UNL     1      40.293  -6.335  16.374  1.00  0.00    -0.268 OA
BRANCH  23  26
HETATM   26  C   UNL     1      40.102  -8.121  18.622  1.00  0.00     0.150 C 
BRANCH  26  27
HETATM   27  C   UNL     1      40.676  -7.358  19.838  1.00  0.00     0.254 C 
BRANCH  27  28
HETATM   28  N   UNL     1      40.501  -8.099  21.141  1.00  0.00    -0.066 N 
HETATM   29  H   UNL     1      41.322  -7.837  21.728  1.00  0.00     0.280 HD
HETATM   30  C   UNL     1      39.271  -7.706  21.944  1.00  0.00     0.261 C 
HETATM   31  C   UNL     1      39.256  -8.478  23.269  1.00  0.00     0.195 C 
HETATM   32  O   UNL     1      39.282  -9.890  23.037  1.00  0.00    -0.388 OA
HETATM   33  C   UNL     1      40.473 -10.284  22.345  1.00  0.00     0.195 C 
HETATM   34  C   UNL     1      40.560  -9.609  20.973  1.00  0.00     0.261 C 
ENDBRANCH  27  28
ENDBRANCH  26  27
ENDBRANCH  23  26
ENDBRANCH   4  22
TORSDOF 8
ENDMDL
MODEL 3
REMARK VINA RESULT:      -7.3      6.903     10.678
REMARK  8 active torsions:
REMARK  status: ('A' for Active; 'I' for Inactive)
REMARK    1  A    between atoms: N_2  and  C_4 
REMARK    2  A    between atoms: N_2  and  C_28 
REMARK    3  A    between atoms: N_7  and  C_8 
REMARK    4  A    between atoms: C_11  and  C_12 
REMARK       I    between atoms: C_12  and  N_13 
REMARK    5  A    between atoms: N_13  and  C_14 
REMARK    6  A    between atoms: C_14  and  C_15 
REMARK    7  A    between atoms: C_15  and  N_16 
REMARK    8  A    between atoms: C_28  and  C_29 
ROOT
HETATM    1  C   UNL     1      42.887 -12.565   5.880  1.00  0.00     0.030 A 
HETATM    2  C   UNL     1      44.063 -12.627   6.642  1.00  0.00     0.030 A 
HETATM    3  C   UNL     1      44.452 -11.577   7.491  1.00  0.00     0.019 A 
HETATM    4  C   UNL     1      43.658 -10.433   7.597  1.00  0.00     0.032 A 
HETATM    5  C   UNL     1      42.483 -10.349   6.853  1.00  0.00     0.019 A 
HETATM    6  C   UNL     1      42.111 -11.399   6.002  1.00  0.00     0.030 A 
ENDROOT
BRANCH   1   7
HETATM    7  N   UNL     1      42.432 -13.621   5.081  1.00  0.00    -0.381 N 
HETATM    8  C   UNL     1      42.693 -14.990   5.521  1.00  0.00     0.125 C 
HETATM    9  C   UNL     1      41.696 -15.933   4.851  1.00  0.00     0.053 C 
HETATM   10  C   UNL     1      41.677 -15.793   3.319  1.00  0.00     0.191 C 
HETATM   11  C   UNL     1      41.440 -14.315   2.965  1.00  0.00     0.053 C 
HETATM   12  C   UNL     1      42.445 -13.382   3.635  1.00  0.00     0.125 C 
BRANCH  10  13
HETATM   13  N   UNL     1      42.954 -16.363   2.671  1.00  0.00    -0.067 N 
HETATM   14  C   UNL     1      43.575 -15.445   1.635  1.00  0.00     0.270 C 
HETATM   15  H   UNL     1      43.666 -16.491   3.399  1.00  0.00     0.280 HD
BRANCH  13  16
HETATM   16  C   UNL     1      42.739 -17.743   2.044  1.00  0.00     0.273 C 
BRANCH  16  17
HETATM   17  C   UNL     1      43.304 -18.845   2.883  1.00  0.00    -0.026 A 
HETATM   18  C   UNL     1      43.853 -18.675   4.142  1.00  0.00     0.058 A 
HETATM   19  S   UNL     1      44.386 -20.141   4.840  1.00  0.00    -0.113 SA
HETATM   20  C   UNL     1      43.931 -21.029   3.455  1.00  0.00     0.050 A 
HETATM   21  C   UNL     1      43.373 -20.226   2.486  1.00  0.00     0.016 A 
ENDBRANCH  16  17
ENDBRANCH  13  16
ENDBRANCH  10  13
ENDBRANCH   1   7
BRANCH   4  22
HETATM   22  C   UNL     1      43.980  -9.342   8.555  1.00  0.00     0.251 C 
HETATM   23  N   UNL     1      43.100  -8.285   8.628  1.00  0.00    -0.355 N 
HETATM   24  H   UNL     1      42.275  -8.314   8.039  1.00  0.00     0.162 HD
HETATM   25  O   UNL     1      44.986  -9.405   9.257  1.00  0.00    -0.268 OA
BRANCH  23  26
HETATM   26  C   UNL     1      43.397  -7.007   9.272  1.00  0.00     0.150 C 
BRANCH  26  27
HETATM   27  C   UNL     1      42.719  -6.737  10.635  1.00  0.00     0.254 C 
BRANCH  27  28
HETATM   28  N   UNL     1      42.168  -7.983  11.282  1.00  0.00    -0.066 N 
HETATM   29  H   UNL     1      42.004  -8.658  10.505  1.00  0.00     0.280 HD
HETATM   30  C   UNL     1      43.116  -8.680  12.245  1.00  0.00     0.261 C 
HETATM   31  C   UNL     1      42.462  -9.963  12.772  1.00  0.00     0.195 C 
HETATM   32  O   UNL     1      41.212  -9.674  13.407  1.00  0.00    -0.388 OA
HETATM   33  C   UNL     1      40.283  -9.084  12.491  1.00  0.00     0.195 C 
HETATM   34  C   UNL     1      40.818  -7.757  11.944  1.00  0.00     0.261 C 
ENDBRANCH  27  28
ENDBRANCH  26  27
ENDBRANCH  23  26
ENDBRANCH   4  22
TORSDOF 8
ENDMDL
MODEL 4
REMARK VINA RESULT:      -7.1      6.859      9.541
REMARK  8 active torsions:
REMARK  status: ('A' for Active; 'I' for Inactive)
REMARK    1  A    between atoms: N_2  and  C_4 
REMARK    2  A    between atoms: N_2  and  C_28 
REMARK    3  A    between atoms: N_7  and  C_8 
REMARK    4  A    between atoms: C_11  and  C_12 
REMARK       I    between atoms: C_12  and  N_13 
REMARK    5  A    between atoms: N_13  and  C_14 
REMARK    6  A    between atoms: C_14  and  C_15 
REMARK    7  A    between atoms: C_15  and  N_16 
REMARK    8  A    between atoms: C_28  and  C_29 
ROOT
HETATM    1  C   UNL     1      43.659 -11.948   5.507  1.00  0.00     0.030 A 
HETATM    2  C   UNL     1      44.901 -11.830   6.149  1.00  0.00     0.030 A 
HETATM    3  C   UNL     1      45.147 -10.836   7.110  1.00  0.00     0.019 A 
HETATM    4  C   UNL     1      44.139  -9.933   7.456  1.00  0.00     0.032 A 
HETATM    5  C   UNL     1      42.895 -10.031   6.834  1.00  0.00     0.019 A 
HETATM    6  C   UNL     1      42.666 -11.021   5.869  1.00  0.00     0.030 A 
ENDROOT
BRANCH   1   7
HETATM    7  N   UNL     1      43.356 -12.970   4.599  1.00  0.00    -0.381 N 
HETATM    8  C   UNL     1      43.282 -12.641   3.177  1.00  0.00     0.125 C 
HETATM    9  C   UNL     1      43.484 -13.911   2.355  1.00  0.00     0.053 C 
HETATM   10  C   UNL     1      42.522 -15.043   2.755  1.00  0.00     0.191 C 
HETATM   11  C   UNL     1      42.648 -15.279   4.270  1.00  0.00     0.053 C 
HETATM   12  C   UNL     1      42.438 -14.005   5.083  1.00  0.00     0.125 C 
BRANCH  10  13
HETATM   13  N   UNL     1      41.074 -14.752   2.315  1.00  0.00    -0.067 N 
HETATM   14  C   UNL     1      40.057 -15.725   2.882  1.00  0.00     0.270 C 
HETATM   15  H   UNL     1      40.802 -13.825   2.662  1.00  0.00     0.280 HD
BRANCH  13  16
HETATM   16  C   UNL     1      40.911 -14.698   0.795  1.00  0.00     0.273 C 
BRANCH  16  17
HETATM   17  C   UNL     1      39.975 -13.615   0.359  1.00  0.00    -0.026 A 
HETATM   18  C   UNL     1      39.345 -13.565  -0.871  1.00  0.00     0.058 A 
HETATM   19  S   UNL     1      38.322 -12.207  -1.043  1.00  0.00    -0.113 SA
HETATM   20  C   UNL     1      38.732 -11.634   0.512  1.00  0.00     0.050 A 
HETATM   21  C   UNL     1      39.622 -12.468   1.153  1.00  0.00     0.016 A 
ENDBRANCH  16  17
ENDBRANCH  13  16
ENDBRANCH  10  13
ENDBRANCH   1   7
BRANCH   4  22
HETATM   22  C   UNL     1      44.324  -8.929   8.537  1.00  0.00     0.251 C 
HETATM   23  N   UNL     1      43.576  -9.089   9.682  1.00  0.00    -0.355 N 
HETATM   24  H   UNL     1      42.954  -9.888   9.734  1.00  0.00     0.162 HD
HETATM   25  O   UNL     1      45.127  -8.009   8.403  1.00  0.00    -0.268 OA
BRANCH  23  26
HETATM   26  C   UNL     1      43.400  -8.058  10.704  1.00  0.00     0.150 C 
BRANCH  26  27
HETATM   27  C   UNL     1      43.434  -8.522  12.178  1.00  0.00     0.254 C 
BRANCH  27  28
HETATM   28  N   UNL     1      42.062  -8.668  12.788  1.00  0.00    -0.066 N 
HETATM   29  H   UNL     1      42.204  -8.630  13.820  1.00  0.00     0.280 HD
HETATM   30  C   UNL     1      41.091  -7.546  12.459  1.00  0.00     0.261 C 
HETATM   31  C   UNL     1      39.766  -7.780  13.197  1.00  0.00     0.195 C 
HETATM   32  O   UNL     1      39.210  -9.053  12.852  1.00  0.00    -0.388 OA
HETATM   33  C   UNL     1      40.083 -10.125  13.223  1.00  0.00     0.195 C 
HETATM   34  C   UNL     1      41.426 -10.017  12.493  1.00  0.00     0.261 C 
ENDBRANCH  27  28
ENDBRANCH  26  27
ENDBRANCH  23  26
ENDBRANCH   4  22
TORSDOF 8
ENDMDL
MODEL 5
REMARK VINA RESULT:      -7.1      6.099      9.822
REMARK  8 active torsions:
REMARK  status: ('A' for Active; 'I' for Inactive)
REMARK    1  A    between atoms: N_2  and  C_4 
REMARK    2  A    between atoms: N_2  and  C_28 
REMARK    3  A    between atoms: N_7  and  C_8 
REMARK    4  A    between atoms: C_11  and  C_12 
REMARK       I    between atoms: C_12  and  N_13 
REMARK    5  A    between atoms: N_13  and  C_14 
REMARK    6  A    between atoms: C_14  and  C_15 
REMARK    7  A    between atoms: C_15  and  N_16 
REMARK    8  A    between atoms: C_28  and  C_29 
ROOT
HETATM    1  C   UNL     1      40.698 -12.648   5.355  1.00  0.00     0.030 A 
HETATM    2  C   UNL     1      41.777 -11.961   5.931  1.00  0.00     0.030 A 
HETATM    3  C   UNL     1      41.590 -10.801   6.701  1.00  0.00     0.019 A 
HETATM    4  C   UNL     1      40.303 -10.304   6.916  1.00  0.00     0.032 A 
HETATM    5  C   UNL     1      39.214 -10.971   6.358  1.00  0.00     0.019 A 
HETATM    6  C   UNL     1      39.414 -12.121   5.583  1.00  0.00     0.030 A 
ENDROOT
BRANCH   1   7
HETATM    7  N   UNL     1      40.841 -13.846   4.645  1.00  0.00    -0.381 N 
HETATM    8  C   UNL     1      41.484 -14.978   5.308  1.00  0.00     0.125 C 
HETATM    9  C   UNL     1      41.067 -16.273   4.613  1.00  0.00     0.053 C 
HETATM   10  C   UNL     1      41.323 -16.247   3.097  1.00  0.00     0.191 C 
HETATM   11  C   UNL     1      40.643 -15.001   2.506  1.00  0.00     0.053 C 
HETATM   12  C   UNL     1      41.071 -13.712   3.203  1.00  0.00     0.125 C 
BRANCH  10  13
HETATM   13  N   UNL     1      42.826 -16.320   2.763  1.00  0.00    -0.067 N 
HETATM   14  C   UNL     1      43.344 -15.110   2.009  1.00  0.00     0.270 C 
HETATM   15  H   UNL     1      43.359 -16.356   3.640  1.00  0.00     0.280 HD
BRANCH  13  16
HETATM   16  C   UNL     1      43.205 -17.584   1.989  1.00  0.00     0.273 C 
BRANCH  16  17
HETATM   17  C   UNL     1      43.548 -18.727   2.892  1.00  0.00    -0.026 A 
HETATM   18  C   UNL     1      43.947 -18.596   4.211  1.00  0.00     0.058 A 
HETATM   19  S   UNL     1      44.241 -20.099   4.970  1.00  0.00    -0.113 SA
HETATM   20  C   UNL     1      43.879 -20.954   3.538  1.00  0.00     0.050 A 
HETATM   21  C   UNL     1      43.529 -20.112   2.507  1.00  0.00     0.016 A 
ENDBRANCH  16  17
ENDBRANCH  13  16
ENDBRANCH  10  13
ENDBRANCH   1   7
BRANCH   4  22
HETATM   22  C   UNL     1      40.051  -9.138   7.804  1.00  0.00     0.251 C 
HETATM   23  N   UNL     1      41.061  -8.210   7.930  1.00  0.00    -0.355 N 
HETATM   24  H   UNL     1      41.913  -8.362   7.402  1.00  0.00     0.162 HD
HETATM   25  O   UNL     1      38.973  -9.015   8.380  1.00  0.00    -0.268 OA
BRANCH  23  26
HETATM   26  C   UNL     1      41.113  -7.183   8.970  1.00  0.00     0.150 C 
BRANCH  26  27
HETATM   27  C   UNL     1      42.067  -7.439  10.159  1.00  0.00     0.254 C 
BRANCH  27  28
HETATM   28  N   UNL     1      42.833  -8.733  10.038  1.00  0.00    -0.066 N 
HETATM   29  H   UNL     1      42.255  -9.350   9.428  1.00  0.00     0.280 HD
HETATM   30  C   UNL     1      44.185  -8.617   9.351  1.00  0.00     0.261 C 
HETATM   31  C   UNL     1      44.820 -10.008   9.230  1.00  0.00     0.195 C 
HETATM   32  O   UNL     1      44.954 -10.620  10.517  1.00  0.00    -0.388 OA
HETATM   33  C   UNL     1      43.680 -10.803  11.145  1.00  0.00     0.195 C 
HETATM   34  C   UNL     1      42.978  -9.459  11.366  1.00  0.00     0.261 C 
ENDBRANCH  27  28
ENDBRANCH  26  27
ENDBRANCH  23  26
ENDBRANCH   4  22
TORSDOF 8
ENDMDL
MODEL 6
REMARK VINA RESULT:      -7.1     12.194     14.923
REMARK  8 active torsions:
REMARK  status: ('A' for Active; 'I' for Inactive)
REMARK    1  A    between atoms: N_2  and  C_4 
REMARK    2  A    between atoms: N_2  and  C_28 
REMARK    3  A    between atoms: N_7  and  C_8 
REMARK    4  A    between atoms: C_11  and  C_12 
REMARK       I    between atoms: C_12  and  N_13 
REMARK    5  A    between atoms: N_13  and  C_14 
REMARK    6  A    between atoms: C_14  and  C_15 
REMARK    7  A    between atoms: C_15  and  N_16 
REMARK    8  A    between atoms: C_28  and  C_29 
ROOT
HETATM    1  C   UNL     1      43.142  -8.437  12.436  1.00  0.00     0.030 A 
HETATM    2  C   UNL     1      42.149  -9.228  13.033  1.00  0.00     0.030 A 
HETATM    3  C   UNL     1      41.664  -8.958  14.324  1.00  0.00     0.019 A 
HETATM    4  C   UNL     1      42.166  -7.875  15.048  1.00  0.00     0.032 A 
HETATM    5  C   UNL     1      43.151  -7.072  14.475  1.00  0.00     0.019 A 
HETATM    6  C   UNL     1      43.634  -7.358  13.191  1.00  0.00     0.030 A 
ENDROOT
BRANCH   1   7
HETATM    7  N   UNL     1      43.596  -8.633  11.126  1.00  0.00    -0.381 N 
HETATM    8  C   UNL     1      42.721  -8.252  10.020  1.00  0.00     0.125 C 
HETATM    9  C   UNL     1      43.561  -8.034   8.764  1.00  0.00     0.053 C 
HETATM   10  C   UNL     1      44.456  -9.239   8.427  1.00  0.00     0.191 C 
HETATM   11  C   UNL     1      45.301  -9.583   9.665  1.00  0.00     0.053 C 
HETATM   12  C   UNL     1      44.452  -9.804  10.914  1.00  0.00     0.125 C 
BRANCH  10  13
HETATM   13  N   UNL     1      43.639 -10.440   7.912  1.00  0.00    -0.067 N 
HETATM   14  C   UNL     1      44.490 -11.629   7.509  1.00  0.00     0.270 C 
HETATM   15  H   UNL     1      43.027 -10.772   8.666  1.00  0.00     0.280 HD
BRANCH  13  16
HETATM   16  C   UNL     1      42.714 -10.077   6.747  1.00  0.00     0.273 C 
BRANCH  16  17
HETATM   17  C   UNL     1      42.631 -11.165   5.724  1.00  0.00    -0.026 A 
HETATM   18  C   UNL     1      43.324 -11.176   4.527  1.00  0.00     0.058 A 
HETATM   19  S   UNL     1      43.023 -12.577   3.595  1.00  0.00    -0.113 SA
HETATM   20  C   UNL     1      41.927 -13.180   4.757  1.00  0.00     0.050 A 
HETATM   21  C   UNL     1      41.803 -12.336   5.838  1.00  0.00     0.016 A 
ENDBRANCH  16  17
ENDBRANCH  13  16
ENDBRANCH  10  13
ENDBRANCH   1   7
BRANCH   4  22
HETATM   22  C   UNL     1      41.613  -7.494  16.374  1.00  0.00     0.251 C 
HETATM   23  N   UNL     1      42.298  -6.542  17.095  1.00  0.00    -0.355 N 
HETATM   24  H   UNL     1      43.132  -6.141  16.679  1.00  0.00     0.162 HD
HETATM   25  O   UNL     1      40.575  -8.007  16.787  1.00  0.00    -0.268 OA
BRANCH  23  26
HETATM   26  C   UNL     1      42.083  -6.268  18.516  1.00  0.00     0.150 C 
BRANCH  26  27
HETATM   27  C   UNL     1      42.735  -7.244  19.522  1.00  0.00     0.254 C 
BRANCH  27  28
HETATM   28  N   UNL     1      41.741  -7.879  20.463  1.00  0.00    -0.066 N 
HETATM   29  H   UNL     1      41.990  -7.533  21.415  1.00  0.00     0.280 HD
HETATM   30  C   UNL     1      40.294  -7.473  20.238  1.00  0.00     0.261 C 
HETATM   31  C   UNL     1      39.405  -8.129  21.303  1.00  0.00     0.195 C 
HETATM   32  O   UNL     1      39.544  -9.553  21.275  1.00  0.00    -0.388 OA
HETATM   33  C   UNL     1      40.890  -9.953  21.558  1.00  0.00     0.195 C 
HETATM   34  C   UNL     1      41.861  -9.393  20.513  1.00  0.00     0.261 C 
ENDBRANCH  27  28
ENDBRANCH  26  27
ENDBRANCH  23  26
ENDBRANCH   4  22
TORSDOF 8
ENDMDL
MODEL 7
REMARK VINA RESULT:      -7.0     10.558     13.511
REMARK  8 active torsions:
REMARK  status: ('A' for Active; 'I' for Inactive)
REMARK    1  A    between atoms: N_2  and  C_4 
REMARK    2  A    between atoms: N_2  and  C_28 
REMARK    3  A    between atoms: N_7  and  C_8 
REMARK    4  A    between atoms: C_11  and  C_12 
REMARK       I    between atoms: C_12  and  N_13 
REMARK    5  A    between atoms: N_13  and  C_14 
REMARK    6  A    between atoms: C_14  and  C_15 
REMARK    7  A    between atoms: C_15  and  N_16 
REMARK    8  A    between atoms: C_28  and  C_29 
ROOT
HETATM    1  C   UNL     1      43.250  -8.626  10.751  1.00  0.00     0.030 A 
HETATM    2  C   UNL     1      42.444  -8.824   9.620  1.00  0.00     0.030 A 
HETATM    3  C   UNL     1      42.827  -9.688   8.580  1.00  0.00     0.019 A 
HETATM    4  C   UNL     1      44.035 -10.384   8.657  1.00  0.00     0.032 A 
HETATM    5  C   UNL     1      44.851 -10.208   9.773  1.00  0.00     0.019 A 
HETATM    6  C   UNL     1      44.464  -9.334  10.799  1.00  0.00     0.030 A 
ENDROOT
BRANCH   1   7
HETATM    7  N   UNL     1      42.868  -7.830  11.838  1.00  0.00    -0.381 N 
HETATM    8  C   UNL     1      43.193  -8.287  13.187  1.00  0.00     0.125 C 
HETATM    9  C   UNL     1      43.193  -7.093  14.138  1.00  0.00     0.053 C 
HETATM   10  C   UNL     1      41.885  -6.285  14.083  1.00  0.00     0.191 C 
HETATM   11  C   UNL     1      41.614  -5.891  12.621  1.00  0.00     0.053 C 
HETATM   12  C   UNL     1      41.610  -7.093  11.679  1.00  0.00     0.125 C 
BRANCH  10  13
HETATM   13  N   UNL     1      40.708  -7.046  14.723  1.00  0.00    -0.067 N 
HETATM   14  C   UNL     1      39.624  -6.141  15.276  1.00  0.00     0.270 C 
HETATM   15  H   UNL     1      40.256  -7.622  14.003  1.00  0.00     0.280 HD
BRANCH  13  16
HETATM   16  C   UNL     1      41.151  -8.015  15.821  1.00  0.00     0.273 C 
BRANCH  16  17
HETATM   17  C   UNL     1      41.112  -7.392  17.181  1.00  0.00    -0.026 A 
HETATM   18  C   UNL     1      41.993  -6.425  17.631  1.00  0.00     0.058 A 
HETATM   19  S   UNL     1      41.658  -5.907  19.225  1.00  0.00    -0.113 SA
HETATM   20  C   UNL     1      40.350  -6.995  19.361  1.00  0.00     0.050 A 
HETATM   21  C   UNL     1      40.166  -7.730  18.211  1.00  0.00     0.016 A 
ENDBRANCH  16  17
ENDBRANCH  13  16
ENDBRANCH  10  13
ENDBRANCH   1   7
BRANCH   4  22
HETATM   22  C   UNL     1      44.432 -11.382   7.629  1.00  0.00     0.251 C 
HETATM   23  N   UNL     1      43.464 -12.259   7.193  1.00  0.00    -0.355 N 
HETATM   24  H   UNL     1      42.532 -12.169   7.583  1.00  0.00     0.162 HD
HETATM   25  O   UNL     1      45.578 -11.397   7.186  1.00  0.00    -0.268 OA
BRANCH  23  26
HETATM   26  C   UNL     1      43.737 -13.476   6.431  1.00  0.00     0.150 C 
BRANCH  26  27
HETATM   27  C   UNL     1      42.532 -14.148   5.732  1.00  0.00     0.254 C 
BRANCH  27  28
HETATM   28  N   UNL     1      42.789 -15.586   5.356  1.00  0.00    -0.066 N 
HETATM   29  H   UNL     1      41.874 -16.075   5.462  1.00  0.00     0.280 HD
HETATM   30  C   UNL     1      43.216 -15.807   3.914  1.00  0.00     0.261 C 
HETATM   31  C   UNL     1      43.371 -17.310   3.649  1.00  0.00     0.195 C 
HETATM   32  O   UNL     1      44.315 -17.892   4.554  1.00  0.00    -0.388 OA
HETATM   33  C   UNL     1      43.888 -17.756   5.915  1.00  0.00     0.195 C 
HETATM   34  C   UNL     1      43.755 -16.280   6.303  1.00  0.00     0.261 C 
ENDBRANCH  27  28
ENDBRANCH  26  27
ENDBRANCH  23  26
ENDBRANCH   4  22
TORSDOF 8
ENDMDL
MODEL 8
REMARK VINA RESULT:      -6.9     16.540     19.422
REMARK  8 active torsions:
REMARK  status: ('A' for Active; 'I' for Inactive)
REMARK    1  A    between atoms: N_2  and  C_4 
REMARK    2  A    between atoms: N_2  and  C_28 
REMARK    3  A    between atoms: N_7  and  C_8 
REMARK    4  A    between atoms: C_11  and  C_12 
REMARK       I    between atoms: C_12  and  N_13 
REMARK    5  A    between atoms: N_13  and  C_14 
REMARK    6  A    between atoms: C_14  and  C_15 
REMARK    7  A    between atoms: C_15  and  N_16 
REMARK    8  A    between atoms: C_28  and  C_29 
ROOT
HETATM    1  C   UNL     1      49.211 -29.824   1.719  1.00  0.00     0.030 A 
HETATM    2  C   UNL     1      50.168 -30.849   1.672  1.00  0.00     0.030 A 
HETATM    3  C   UNL     1      50.772 -31.351   2.837  1.00  0.00     0.019 A 
HETATM    4  C   UNL     1      50.421 -30.835   4.086  1.00  0.00     0.032 A 
HETATM    5  C   UNL     1      49.469 -29.819   4.159  1.00  0.00     0.019 A 
HETATM    6  C   UNL     1      48.882 -29.319   2.989  1.00  0.00     0.030 A 
ENDROOT
BRANCH   1   7
HETATM    7  N   UNL     1      48.536 -29.350   0.586  1.00  0.00    -0.381 N 
HETATM    8  C   UNL     1      47.247 -28.688   0.769  1.00  0.00     0.125 C 
HETATM    9  C   UNL     1      46.959 -27.804  -0.443  1.00  0.00     0.053 C 
HETATM   10  C   UNL     1      47.053 -28.567  -1.775  1.00  0.00     0.191 C 
HETATM   11  C   UNL     1      48.425 -29.259  -1.847  1.00  0.00     0.053 C 
HETATM   12  C   UNL     1      48.701 -30.145  -0.635  1.00  0.00     0.125 C 
BRANCH  10  13
HETATM   13  N   UNL     1      45.880 -29.548  -1.964  1.00  0.00    -0.067 N 
HETATM   14  C   UNL     1      45.764 -30.098  -3.373  1.00  0.00     0.270 C 
HETATM   15  H   UNL     1      46.027 -30.361  -1.354  1.00  0.00     0.280 HD
BRANCH  13  16
HETATM   16  C   UNL     1      44.531 -28.952  -1.553  1.00  0.00     0.273 C 
BRANCH  16  17
HETATM   17  C   UNL     1      43.864 -29.741  -0.471  1.00  0.00    -0.026 A 
HETATM   18  C   UNL     1      43.985 -31.109  -0.305  1.00  0.00     0.058 A 
HETATM   19  S   UNL     1      43.113 -31.697   1.043  1.00  0.00    -0.113 SA
HETATM   20  C   UNL     1      42.521 -30.138   1.408  1.00  0.00     0.050 A 
HETATM   21  C   UNL     1      42.989 -29.188   0.527  1.00  0.00     0.016 A 
ENDBRANCH  16  17
ENDBRANCH  13  16
ENDBRANCH  10  13
ENDBRANCH   1   7
BRANCH   4  22
HETATM   22  C   UNL     1      50.961 -31.403   5.349  1.00  0.00     0.251 C 
HETATM   23  N   UNL     1      52.242 -31.046   5.706  1.00  0.00    -0.355 N 
HETATM   24  H   UNL     1      52.741 -30.405   5.100  1.00  0.00     0.162 HD
HETATM   25  O   UNL     1      50.271 -32.147   6.042  1.00  0.00    -0.268 OA
BRANCH  23  26
HETATM   26  C   UNL     1      53.034 -31.727   6.729  1.00  0.00     0.150 C 
BRANCH  26  27
HETATM   27  C   UNL     1      53.833 -30.833   7.705  1.00  0.00     0.254 C 
BRANCH  27  28
HETATM   28  N   UNL     1      55.312 -31.132   7.710  1.00  0.00    -0.066 N 
HETATM   29  H   UNL     1      55.786 -30.217   7.863  1.00  0.00     0.280 HD
HETATM   30  C   UNL     1      55.779 -32.038   8.839  1.00  0.00     0.261 C 
HETATM   31  C   UNL     1      57.303 -32.200   8.769  1.00  0.00     0.195 C 
HETATM   32  O   UNL     1      57.702 -32.723   7.498  1.00  0.00    -0.388 OA
HETATM   33  C   UNL     1      57.332 -31.843   6.430  1.00  0.00     0.195 C 
HETATM   34  C   UNL     1      55.812 -31.656   6.374  1.00  0.00     0.261 C 
ENDBRANCH  27  28
ENDBRANCH  26  27
ENDBRANCH  23  26
ENDBRANCH   4  22
TORSDOF 8
ENDMDL
MODEL 9
REMARK VINA RESULT:      -6.7      7.290     10.176
REMARK  8 active torsions:
REMARK  status: ('A' for Active; 'I' for Inactive)
REMARK    1  A    between atoms: N_2  and  C_4 
REMARK    2  A    between atoms: N_2  and  C_28 
REMARK    3  A    between atoms: N_7  and  C_8 
REMARK    4  A    between atoms: C_11  and  C_12 
REMARK       I    between atoms: C_12  and  N_13 
REMARK    5  A    between atoms: N_13  and  C_14 
REMARK    6  A    between atoms: C_14  and  C_15 
REMARK    7  A    between atoms: C_15  and  N_16 
REMARK    8  A    between atoms: C_28  and  C_29 
ROOT
HETATM    1  C   UNL     1      42.943 -10.715   6.982  1.00  0.00     0.030 A 
HETATM    2  C   UNL     1      41.918 -11.180   6.143  1.00  0.00     0.030 A 
HETATM    3  C   UNL     1      41.880 -12.508   5.687  1.00  0.00     0.019 A 
HETATM    4  C   UNL     1      42.877 -13.408   6.070  1.00  0.00     0.032 A 
HETATM    5  C   UNL     1      43.903 -12.971   6.906  1.00  0.00     0.019 A 
HETATM    6  C   UNL     1      43.936 -11.641   7.346  1.00  0.00     0.030 A 
ENDROOT
BRANCH   1   7
HETATM    7  N   UNL     1      42.972  -9.420   7.514  1.00  0.00    -0.381 N 
HETATM    8  C   UNL     1      43.561  -9.222   8.836  1.00  0.00     0.125 C 
HETATM    9  C   UNL     1      43.980  -7.761   8.988  1.00  0.00     0.053 C 
HETATM   10  C   UNL     1      42.835  -6.777   8.693  1.00  0.00     0.191 C 
HETATM   11  C   UNL     1      42.259  -7.098   7.303  1.00  0.00     0.053 C 
HETATM   12  C   UNL     1      41.838  -8.558   7.164  1.00  0.00     0.125 C 
BRANCH  10  13
HETATM   13  N   UNL     1      41.762  -6.791   9.800  1.00  0.00    -0.067 N 
HETATM   14  C   UNL     1      40.599  -5.853   9.535  1.00  0.00     0.270 C 
HETATM   15  H   UNL     1      41.358  -7.733   9.858  1.00  0.00     0.280 HD
BRANCH  13  16
HETATM   16  C   UNL     1      42.333  -6.490  11.188  1.00  0.00     0.273 C 
BRANCH  16  17
HETATM   17  C   UNL     1      42.002  -7.556  12.184  1.00  0.00    -0.026 A 
HETATM   18  C   UNL     1      40.815  -8.266  12.214  1.00  0.00     0.058 A 
HETATM   19  S   UNL     1      40.766  -9.430  13.465  1.00  0.00    -0.113 SA
HETATM   20  C   UNL     1      42.317  -8.981  14.018  1.00  0.00     0.050 A 
HETATM   21  C   UNL     1      42.865  -7.972  13.257  1.00  0.00     0.016 A 
ENDBRANCH  16  17
ENDBRANCH  13  16
ENDBRANCH  10  13
ENDBRANCH   1   7
BRANCH   4  22
HETATM   22  C   UNL     1      42.823 -14.845   5.692  1.00  0.00     0.251 C 
HETATM   23  N   UNL     1      43.141 -15.168   4.392  1.00  0.00    -0.355 N 
HETATM   24  H   UNL     1      43.410 -14.415   3.768  1.00  0.00     0.162 HD
HETATM   25  O   UNL     1      42.520 -15.697   6.523  1.00  0.00    -0.268 OA
BRANCH  23  26
HETATM   26  C   UNL     1      42.857 -16.460   3.769  1.00  0.00     0.150 C 
BRANCH  26  27
HETATM   27  C   UNL     1      41.723 -16.494   2.718  1.00  0.00     0.254 C 
BRANCH  27  28
HETATM   28  N   UNL     1      41.275 -15.121   2.282  1.00  0.00    -0.066 N 
HETATM   29  H   UNL     1      42.010 -14.463   2.617  1.00  0.00     0.280 HD
HETATM   30  C   UNL     1      41.192 -14.921   0.777  1.00  0.00     0.261 C 
HETATM   31  C   UNL     1      40.798 -13.470   0.473  1.00  0.00     0.195 C 
HETATM   32  O   UNL     1      39.555 -13.137   1.101  1.00  0.00    -0.388 OA
HETATM   33  C   UNL     1      39.642 -13.251   2.526  1.00  0.00     0.195 C 
HETATM   34  C   UNL     1      39.977 -14.686   2.943  1.00  0.00     0.261 C 
ENDBRANCH  27  28
ENDBRANCH  26  27
ENDBRANCH  23  26
ENDBRANCH   4  22
TORSDOF 8
ENDMDL
MODEL 10
REMARK VINA RESULT:      -6.5     11.087     14.013
REMARK  8 active torsions:
REMARK  status: ('A' for Active; 'I' for Inactive)
REMARK    1  A    between atoms: N_2  and  C_4 
REMARK    2  A    between atoms: N_2  and  C_28 
REMARK    3  A    between atoms: N_7  and  C_8 
REMARK    4  A    between atoms: C_11  and  C_12 
REMARK       I    between atoms: C_12  and  N_13 
REMARK    5  A    between atoms: N_13  and  C_14 
REMARK    6  A    between atoms: C_14  and  C_15 
REMARK    7  A    between atoms: C_15  and  N_16 
REMARK    8  A    between atoms: C_28  and  C_29 
ROOT
HETATM    1  C   UNL     1      42.448  -8.070  11.579  1.00  0.00     0.030 A 
HETATM    2  C   UNL     1      43.725  -8.608  11.802  1.00  0.00     0.030 A 
HETATM    3  C   UNL     1      44.308  -9.526  10.913  1.00  0.00     0.019 A 
HETATM    4  C   UNL     1      43.618  -9.925   9.767  1.00  0.00     0.032 A 
HETATM    5  C   UNL     1      42.349  -9.403   9.521  1.00  0.00     0.019 A 
HETATM    6  C   UNL     1      41.774  -8.495  10.421  1.00  0.00     0.030 A 
ENDROOT
BRANCH   1   7
HETATM    7  N   UNL     1      41.868  -7.099  12.404  1.00  0.00    -0.381 N 
HETATM    8  C   UNL     1      42.266  -7.049  13.809  1.00  0.00     0.125 C 
HETATM    9  C   UNL     1      41.966  -5.661  14.369  1.00  0.00     0.053 C 
HETATM   10  C   UNL     1      40.506  -5.229  14.147  1.00  0.00     0.191 C 
HETATM   11  C   UNL     1      40.178  -5.359  12.650  1.00  0.00     0.053 C 
HETATM   12  C   UNL     1      40.476  -6.752  12.102  1.00  0.00     0.125 C 
BRANCH  10  13
HETATM   13  N   UNL     1      39.529  -6.017  15.042  1.00  0.00    -0.067 N 
HETATM   14  C   UNL     1      38.129  -6.127  14.467  1.00  0.00     0.270 C 
HETATM   15  H   UNL     1      39.871  -6.980  15.138  1.00  0.00     0.280 HD
BRANCH  13  16
HETATM   16  C   UNL     1      39.437  -5.458  16.463  1.00  0.00     0.273 C 
BRANCH  16  17
HETATM   17  C   UNL     1      40.306  -6.203  17.427  1.00  0.00    -0.026 A 
HETATM   18  C   UNL     1      41.524  -5.751  17.903  1.00  0.00     0.058 A 
HETATM   19  S   UNL     1      42.250  -6.833  19.009  1.00  0.00    -0.113 SA
HETATM   20  C   UNL     1      40.969  -7.949  18.843  1.00  0.00     0.050 A 
HETATM   21  C   UNL     1      40.002  -7.499  17.971  1.00  0.00     0.016 A 
ENDBRANCH  16  17
ENDBRANCH  13  16
ENDBRANCH  10  13
ENDBRANCH   1   7
BRANCH   4  22
HETATM   22  C   UNL     1      44.236 -10.817   8.751  1.00  0.00     0.251 C 
HETATM   23  N   UNL     1      43.394 -11.414   7.838  1.00  0.00    -0.355 N 
HETATM   24  H   UNL     1      42.404 -11.201   7.898  1.00  0.00     0.162 HD
HETATM   25  O   UNL     1      45.452 -10.991   8.731  1.00  0.00    -0.268 OA
BRANCH  23  26
HETATM   26  C   UNL     1      43.770 -12.534   6.977  1.00  0.00     0.150 C 
BRANCH  26  27
HETATM   27  C   UNL     1      43.730 -12.287   5.451  1.00  0.00     0.254 C 
BRANCH  27  28
HETATM   28  N   UNL     1      42.774 -13.201   4.726  1.00  0.00    -0.066 N 
HETATM   29  H   UNL     1      42.947 -13.045   3.710  1.00  0.00     0.280 HD
HETATM   30  C   UNL     1      42.999 -14.686   4.964  1.00  0.00     0.261 C 
HETATM   31  C   UNL     1      42.012 -15.497   4.116  1.00  0.00     0.195 C 
HETATM   32  O   UNL     1      40.661 -15.133   4.418  1.00  0.00    -0.388 OA
HETATM   33  C   UNL     1      40.414 -13.752   4.129  1.00  0.00     0.195 C 
HETATM   34  C   UNL     1      41.316 -12.844   4.972  1.00  0.00     0.261 C 
ENDBRANCH  27  28
ENDBRANCH  26  27
ENDBRANCH  23  26
ENDBRANCH   4  22
TORSDOF 8
ENDMDL
