MODEL 1
REMARK VINA RESULT:      -8.6      0.000      0.000
REMARK  8 active torsions:
REMARK  status: ('A' for Active; 'I' for Inactive)
REMARK    1  A    between atoms: C_10  and  C_11 
REMARK    2  A    between atoms: C_11  and  C_12 
REMARK       I    between atoms: C_12  and  N_13 
REMARK    3  A    between atoms: N_13  and  N_14 
REMARK       I    between atoms: N_14  and  C_15 
REMARK    4  A    between atoms: C_15  and  C_16 
REMARK    5  A    between atoms: C_16  and  C_17 
REMARK    6  A    between atoms: C_17  and  C_18 
REMARK       I    between atoms: C_18  and  N_19 
REMARK    7  A    between atoms: N_19  and  C_20 
REMARK    8  A    between atoms: C_20  and  C_21 
ROOT
HETATM    1  C   UNL     1      43.240 -13.808   6.529  1.00  0.00     0.240 C 
HETATM    2  N   UNL     1      43.955 -12.751   5.998  1.00  0.00    -0.267 N 
HETATM    3  O   UNL     1      43.489 -14.272   7.641  1.00  0.00    -0.272 OA
HETATM    4  H   UNL     1      43.666 -12.242   5.163  1.00  0.00     0.190 HD
ENDROOT
BRANCH   2   5
HETATM    5  N   UNL     1      44.962 -12.180   6.780  1.00  0.00    -0.268 N 
HETATM    6  C   UNL     1      44.775 -10.906   7.268  1.00  0.00     0.236 C 
HETATM    7  O   UNL     1      43.701 -10.309   7.195  1.00  0.00    -0.272 OA
HETATM    8  H   UNL     1      45.870 -12.645   6.753  1.00  0.00     0.190 HD
BRANCH   6   9
HETATM    9  C   UNL     1      46.015 -10.331   7.918  1.00  0.00     0.114 C 
BRANCH   9  10
HETATM   10  C   UNL     1      45.682  -9.295   8.982  1.00  0.00     0.112 C 
BRANCH  10  11
HETATM   11  C   UNL     1      44.910  -9.927  10.118  1.00  0.00     0.218 C 
HETATM   12  N   UNL     1      43.669  -9.385  10.330  1.00  0.00    -0.355 N 
HETATM   13  H   UNL     1      43.267  -8.797   9.599  1.00  0.00     0.162 HD
HETATM   14  O   UNL     1      45.362 -10.867  10.765  1.00  0.00    -0.274 OA
BRANCH  12  15
HETATM   15  C   UNL     1      42.760  -9.980  11.281  1.00  0.00     0.187 C 
BRANCH  15  16
HETATM   16  C   UNL     1      42.712  -9.126  12.490  1.00  0.00     0.070 A 
HETATM   17  O   UNL     1      41.927  -9.562  13.518  1.00  0.00    -0.325 OA
HETATM   18  C   UNL     1      42.024  -8.637  14.508  1.00  0.00     0.142 A 
HETATM   19  C   UNL     1      42.857  -7.611  14.130  1.00  0.00     0.027 A 
HETATM   20  C   UNL     1      43.303  -7.924  12.824  1.00  0.00     0.036 A 
ENDBRANCH  15  16
ENDBRANCH  12  15
ENDBRANCH  10  11
ENDBRANCH   9  10
ENDBRANCH   6   9
ENDBRANCH   2   5
BRANCH   1  21
HETATM   21  C   UNL     1      42.180 -14.365   5.609  1.00  0.00     0.146 C 
BRANCH  21  22
HETATM   22  C   UNL     1      42.661 -15.184   4.447  1.00  0.00    -0.015 A 
HETATM   23  C   UNL     1      43.087 -16.560   4.386  1.00  0.00    -0.000 A 
HETATM   24  C   UNL     1      43.240 -17.610   5.322  1.00  0.00     0.021 A 
HETATM   25  C   UNL     1      43.395 -16.840   3.054  1.00  0.00     0.043 A 
HETATM   26  C   UNL     1      43.686 -18.879   4.909  1.00  0.00    -0.061 A 
HETATM   27  C   UNL     1      43.816 -19.997   5.903  1.00  0.00     0.048 C 
HETATM   28  C   UNL     1      43.963 -19.111   3.561  1.00  0.00     0.009 A 
HETATM   29  C   UNL     1      43.830 -18.095   2.613  1.00  0.00     0.031 A 
HETATM   30  N   UNL     1      43.190 -15.690   2.334  1.00  0.00    -0.359 N 
HETATM   31  H   UNL     1      43.345 -15.609   1.340  1.00  0.00     0.166 HD
HETATM   32  C   UNL     1      42.743 -14.686   3.150  1.00  0.00     0.013 A 
HETATM   33  C   UNL     1      42.434 -13.334   2.612  1.00  0.00     0.068 C 
ENDBRANCH  21  22
ENDBRANCH   1  21
TORSDOF 8
ENDMDL
MODEL 2
REMARK VINA RESULT:      -8.4      6.324      9.248
REMARK  8 active torsions:
REMARK  status: ('A' for Active; 'I' for Inactive)
REMARK    1  A    between atoms: C_10  and  C_11 
REMARK    2  A    between atoms: C_11  and  C_12 
REMARK       I    between atoms: C_12  and  N_13 
REMARK    3  A    between atoms: N_13  and  N_14 
REMARK       I    between atoms: N_14  and  C_15 
REMARK    4  A    between atoms: C_15  and  C_16 
REMARK    5  A    between atoms: C_16  and  C_17 
REMARK    6  A    between atoms: C_17  and  C_18 
REMARK       I    between atoms: C_18  and  N_19 
REMARK    7  A    between atoms: N_19  and  C_20 
REMARK    8  A    between atoms: C_20  and  C_21 
ROOT
HETATM    1  C   UNL     1      41.255 -14.880   0.930  1.00  0.00     0.240 C 
HETATM    2  N   UNL     1      41.058 -14.226  -0.272  1.00  0.00    -0.267 N 
HETATM    3  O   UNL     1      40.374 -15.562   1.455  1.00  0.00    -0.272 OA
HETATM    4  H   UNL     1      41.812 -13.799  -0.808  1.00  0.00     0.190 HD
ENDROOT
BRANCH   2   5
HETATM    5  N   UNL     1      39.828 -14.390  -0.915  1.00  0.00    -0.268 N 
HETATM    6  C   UNL     1      39.753 -14.139  -2.267  1.00  0.00     0.236 C 
HETATM    7  O   UNL     1      40.743 -13.944  -2.971  1.00  0.00    -0.272 OA
HETATM    8  H   UNL     1      39.010 -14.461  -0.309  1.00  0.00     0.190 HD
BRANCH   6   9
HETATM    9  C   UNL     1      38.334 -14.151  -2.795  1.00  0.00     0.114 C 
BRANCH   9  10
HETATM   10  C   UNL     1      37.477 -13.059  -2.172  1.00  0.00     0.112 C 
BRANCH  10  11
HETATM   11  C   UNL     1      38.216 -11.740  -2.166  1.00  0.00     0.218 C 
HETATM   12  N   UNL     1      38.452 -11.229  -0.916  1.00  0.00    -0.355 N 
HETATM   13  H   UNL     1      38.344 -11.848  -0.112  1.00  0.00     0.162 HD
HETATM   14  O   UNL     1      38.592 -11.203  -3.203  1.00  0.00    -0.274 OA
BRANCH  12  15
HETATM   15  C   UNL     1      39.272 -10.053  -0.746  1.00  0.00     0.187 C 
BRANCH  15  16
HETATM   16  C   UNL     1      40.088 -10.215   0.478  1.00  0.00     0.070 A 
HETATM   17  O   UNL     1      41.171 -11.040   0.388  1.00  0.00    -0.325 OA
HETATM   18  C   UNL     1      41.765 -11.048   1.610  1.00  0.00     0.142 A 
HETATM   19  C   UNL     1      41.077 -10.242   2.485  1.00  0.00     0.027 A 
HETATM   20  C   UNL     1      39.991  -9.702   1.756  1.00  0.00     0.036 A 
ENDBRANCH  15  16
ENDBRANCH  12  15
ENDBRANCH  10  11
ENDBRANCH   9  10
ENDBRANCH   6   9
ENDBRANCH   2   5
BRANCH   1  21
HETATM   21  C   UNL     1      42.607 -14.637   1.554  1.00  0.00     0.146 C 
BRANCH  21  22
HETATM   22  C   UNL     1      42.913 -15.391   2.815  1.00  0.00    -0.015 A 
HETATM   23  C   UNL     1      43.212 -16.786   3.021  1.00  0.00    -0.000 A 
HETATM   24  C   UNL     1      43.307 -17.929   2.193  1.00  0.00     0.021 A 
HETATM   25  C   UNL     1      43.460 -16.960   4.383  1.00  0.00     0.043 A 
HETATM   26  C   UNL     1      43.640 -19.183   2.737  1.00  0.00    -0.061 A 
HETATM   27  C   UNL     1      43.770 -20.385   1.847  1.00  0.00     0.048 C 
HETATM   28  C   UNL     1      43.896 -19.299   4.104  1.00  0.00     0.009 A 
HETATM   29  C   UNL     1      43.803 -18.193   4.951  1.00  0.00     0.031 A 
HETATM   30  N   UNL     1      43.299 -15.740   4.990  1.00  0.00    -0.359 N 
HETATM   31  H   UNL     1      43.413 -15.581   5.981  1.00  0.00     0.166 HD
HETATM   32  C   UNL     1      42.978 -14.783   4.065  1.00  0.00     0.013 A 
HETATM   33  C   UNL     1      42.761 -13.366   4.465  1.00  0.00     0.068 C 
ENDBRANCH  21  22
ENDBRANCH   1  21
TORSDOF 8
ENDMDL
MODEL 3
REMARK VINA RESULT:      -8.4      1.626      2.084
REMARK  8 active torsions:
REMARK  status: ('A' for Active; 'I' for Inactive)
REMARK    1  A    between atoms: C_10  and  C_11 
REMARK    2  A    between atoms: C_11  and  C_12 
REMARK       I    between atoms: C_12  and  N_13 
REMARK    3  A    between atoms: N_13  and  N_14 
REMARK       I    between atoms: N_14  and  C_15 
REMARK    4  A    between atoms: C_15  and  C_16 
REMARK    5  A    between atoms: C_16  and  C_17 
REMARK    6  A    between atoms: C_17  and  C_18 
REMARK       I    between atoms: C_18  and  N_19 
REMARK    7  A    between atoms: N_19  and  C_20 
REMARK    8  A    between atoms: C_20  and  C_21 
ROOT
HETATM    1  C   UNL     1      43.068 -11.829   4.557  1.00  0.00     0.240 C 
HETATM    2  N   UNL     1      43.855 -12.220   5.624  1.00  0.00    -0.267 N 
HETATM    3  O   UNL     1      43.253 -10.766   3.964  1.00  0.00    -0.272 OA
HETATM    4  H   UNL     1      43.835 -13.158   6.021  1.00  0.00     0.190 HD
ENDROOT
BRANCH   2   5
HETATM    5  N   UNL     1      44.914 -11.388   5.999  1.00  0.00    -0.268 N 
HETATM    6  C   UNL     1      45.070 -11.081   7.332  1.00  0.00     0.236 C 
HETATM    7  O   UNL     1      44.433 -11.632   8.229  1.00  0.00    -0.272 OA
HETATM    8  H   UNL     1      45.368 -10.872   5.245  1.00  0.00     0.190 HD
BRANCH   6   9
HETATM    9  C   UNL     1      46.116 -10.014   7.577  1.00  0.00     0.114 C 
BRANCH   9  10
HETATM   10  C   UNL     1      46.021  -9.422   8.975  1.00  0.00     0.112 C 
BRANCH  10  11
HETATM   11  C   UNL     1      44.848  -8.474   9.073  1.00  0.00     0.218 C 
HETATM   12  N   UNL     1      43.804  -8.940   9.830  1.00  0.00    -0.355 N 
HETATM   13  H   UNL     1      43.971  -9.737  10.445  1.00  0.00     0.162 HD
HETATM   14  O   UNL     1      44.860  -7.369   8.537  1.00  0.00    -0.274 OA
BRANCH  12  15
HETATM   15  C   UNL     1      42.679  -8.088  10.133  1.00  0.00     0.187 C 
BRANCH  15  16
HETATM   16  C   UNL     1      42.761  -7.680  11.554  1.00  0.00     0.070 A 
HETATM   17  O   UNL     1      42.226  -6.467  11.876  1.00  0.00    -0.325 OA
HETATM   18  C   UNL     1      42.414  -6.293  13.209  1.00  0.00     0.142 A 
HETATM   19  C   UNL     1      43.065  -7.376  13.750  1.00  0.00     0.027 A 
HETATM   20  C   UNL     1      43.292  -8.274  12.681  1.00  0.00     0.036 A 
ENDBRANCH  15  16
ENDBRANCH  12  15
ENDBRANCH  10  11
ENDBRANCH   9  10
ENDBRANCH   6   9
ENDBRANCH   2   5
BRANCH   1  21
HETATM   21  C   UNL     1      41.946 -12.785   4.231  1.00  0.00     0.146 C 
BRANCH  21  22
HETATM   22  C   UNL     1      42.238 -13.843   3.208  1.00  0.00    -0.015 A 
HETATM   23  C   UNL     1      42.755 -15.179   3.366  1.00  0.00    -0.000 A 
HETATM   24  C   UNL     1      43.190 -15.969   4.456  1.00  0.00     0.021 A 
HETATM   25  C   UNL     1      42.798 -15.759   2.098  1.00  0.00     0.043 A 
HETATM   26  C   UNL     1      43.643 -17.285   4.252  1.00  0.00    -0.061 A 
HETATM   27  C   UNL     1      44.073 -18.128   5.418  1.00  0.00     0.048 C 
HETATM   28  C   UNL     1      43.649 -17.824   2.965  1.00  0.00     0.009 A 
HETATM   29  C   UNL     1      43.235 -17.069   1.866  1.00  0.00     0.031 A 
HETATM   30  N   UNL     1      42.352 -14.822   1.201  1.00  0.00    -0.359 N 
HETATM   31  H   UNL     1      42.286 -14.977   0.205  1.00  0.00     0.166 HD
HETATM   32  C   UNL     1      42.003 -13.667   1.847  1.00  0.00     0.013 A 
HETATM   33  C   UNL     1      41.476 -12.493   1.100  1.00  0.00     0.068 C 
ENDBRANCH  21  22
ENDBRANCH   1  21
TORSDOF 8
ENDMDL
MODEL 4
REMARK VINA RESULT:      -8.3      5.966      9.581
REMARK  8 active torsions:
REMARK  status: ('A' for Active; 'I' for Inactive)
REMARK    1  A    between atoms: C_10  and  C_11 
REMARK    2  A    between atoms: C_11  and  C_12 
REMARK       I    between atoms: C_12  and  N_13 
REMARK    3  A    between atoms: N_13  and  N_14 
REMARK       I    between atoms: N_14  and  C_15 
REMARK    4  A    between atoms: C_15  and  C_16 
REMARK    5  A    between atoms: C_16  and  C_17 
REMARK    6  A    between atoms: C_17  and  C_18 
REMARK       I    between atoms: C_18  and  N_19 
REMARK    7  A    between atoms: N_19  and  C_20 
REMARK    8  A    between atoms: C_20  and  C_21 
ROOT
HETATM    1  C   UNL     1      42.134 -15.111   2.794  1.00  0.00     0.240 C 
HETATM    2  N   UNL     1      42.401 -14.661   1.514  1.00  0.00    -0.267 N 
HETATM    3  O   UNL     1      40.994 -15.398   3.160  1.00  0.00    -0.272 OA
HETATM    4  H   UNL     1      43.344 -14.578   1.135  1.00  0.00     0.190 HD
ENDROOT
BRANCH   2   5
HETATM    5  N   UNL     1      41.338 -14.576   0.612  1.00  0.00    -0.268 N 
HETATM    6  C   UNL     1      40.684 -13.371   0.476  1.00  0.00     0.236 C 
HETATM    7  O   UNL     1      41.091 -12.325   0.977  1.00  0.00    -0.272 OA
HETATM    8  H   UNL     1      40.960 -15.463   0.278  1.00  0.00     0.190 HD
BRANCH   6   9
HETATM    9  C   UNL     1      39.432 -13.468  -0.370  1.00  0.00     0.114 C 
BRANCH   9  10
HETATM   10  C   UNL     1      39.693 -14.136  -1.713  1.00  0.00     0.112 C 
BRANCH  10  11
HETATM   11  C   UNL     1      40.228 -13.134  -2.711  1.00  0.00     0.218 C 
HETATM   12  N   UNL     1      39.680 -11.881  -2.605  1.00  0.00    -0.355 N 
HETATM   13  H   UNL     1      39.163 -11.650  -1.756  1.00  0.00     0.162 HD
HETATM   14  O   UNL     1      41.101 -13.428  -3.521  1.00  0.00    -0.274 OA
BRANCH  12  15
HETATM   15  C   UNL     1      40.195 -10.786  -3.392  1.00  0.00     0.187 C 
BRANCH  15  16
HETATM   16  C   UNL     1      40.798  -9.788  -2.480  1.00  0.00     0.070 A 
HETATM   17  O   UNL     1      41.625 -10.267  -1.506  1.00  0.00    -0.325 OA
HETATM   18  C   UNL     1      42.055  -9.196  -0.791  1.00  0.00     0.142 A 
HETATM   19  C   UNL     1      41.514  -8.034  -1.288  1.00  0.00     0.027 A 
HETATM   20  C   UNL     1      40.699  -8.414  -2.380  1.00  0.00     0.036 A 
ENDBRANCH  15  16
ENDBRANCH  12  15
ENDBRANCH  10  11
ENDBRANCH   9  10
ENDBRANCH   6   9
ENDBRANCH   2   5
BRANCH   1  21
HETATM   21  C   UNL     1      43.340 -15.161   3.699  1.00  0.00     0.146 C 
BRANCH  21  22
HETATM   22  C   UNL     1      43.505 -16.396   4.535  1.00  0.00    -0.015 A 
HETATM   23  C   UNL     1      43.612 -17.780   4.147  1.00  0.00    -0.000 A 
HETATM   24  C   UNL     1      43.583 -18.488   2.922  1.00  0.00     0.021 A 
HETATM   25  C   UNL     1      43.792 -18.525   5.312  1.00  0.00     0.043 A 
HETATM   26  C   UNL     1      43.731 -19.887   2.899  1.00  0.00    -0.061 A 
HETATM   27  C   UNL     1      43.730 -20.628   1.593  1.00  0.00     0.048 C 
HETATM   28  C   UNL     1      43.926 -20.583   4.093  1.00  0.00     0.009 A 
HETATM   29  C   UNL     1      43.952 -19.916   5.319  1.00  0.00     0.031 A 
HETATM   30  N   UNL     1      43.774 -17.649   6.367  1.00  0.00    -0.359 N 
HETATM   31  H   UNL     1      43.876 -17.923   7.334  1.00  0.00     0.166 HD
HETATM   32  C   UNL     1      43.610 -16.365   5.922  1.00  0.00     0.013 A 
HETATM   33  C   UNL     1      43.567 -15.219   6.870  1.00  0.00     0.068 C 
ENDBRANCH  21  22
ENDBRANCH   1  21
TORSDOF 8
ENDMDL
MODEL 5
REMARK VINA RESULT:      -8.1      7.314     11.518
REMARK  8 active torsions:
REMARK  status: ('A' for Active; 'I' for Inactive)
REMARK    1  A    between atoms: C_10  and  C_11 
REMARK    2  A    between atoms: C_11  and  C_12 
REMARK       I    between atoms: C_12  and  N_13 
REMARK    3  A    between atoms: N_13  and  N_14 
REMARK       I    between atoms: N_14  and  C_15 
REMARK    4  A    between atoms: C_15  and  C_16 
REMARK    5  A    between atoms: C_16  and  C_17 
REMARK    6  A    between atoms: C_17  and  C_18 
REMARK       I    between atoms: C_18  and  N_19 
REMARK    7  A    between atoms: N_19  and  C_20 
REMARK    8  A    between atoms: C_20  and  C_21 
ROOT
HETATM    1  C   UNL     1      41.147 -14.811   1.003  1.00  0.00     0.240 C 
HETATM    2  N   UNL     1      40.943 -14.309  -0.269  1.00  0.00    -0.267 N 
HETATM    3  O   UNL     1      40.213 -15.164   1.723  1.00  0.00    -0.272 OA
HETATM    4  H   UNL     1      41.695 -14.169  -0.943  1.00  0.00     0.190 HD
ENDROOT
BRANCH   2   5
HETATM    5  N   UNL     1      39.632 -14.248  -0.748  1.00  0.00    -0.268 N 
HETATM    6  C   UNL     1      39.432 -14.043  -2.096  1.00  0.00     0.236 C 
HETATM    7  O   UNL     1      40.341 -14.082  -2.924  1.00  0.00    -0.272 OA
HETATM    8  H   UNL     1      38.902 -14.126  -0.046  1.00  0.00     0.190 HD
BRANCH   6   9
HETATM    9  C   UNL     1      37.982 -13.790  -2.449  1.00  0.00     0.114 C 
BRANCH   9  10
HETATM   10  C   UNL     1      37.427 -12.554  -1.757  1.00  0.00     0.112 C 
BRANCH  10  11
HETATM   11  C   UNL     1      36.854 -11.589  -2.770  1.00  0.00     0.218 C 
HETATM   12  N   UNL     1      35.738 -12.047  -3.422  1.00  0.00    -0.355 N 
HETATM   13  H   UNL     1      35.248 -12.853  -3.033  1.00  0.00     0.162 HD
HETATM   14  O   UNL     1      37.344 -10.479  -2.957  1.00  0.00    -0.274 OA
BRANCH  12  15
HETATM   15  C   UNL     1      34.998 -11.181  -4.309  1.00  0.00     0.187 C 
BRANCH  15  16
HETATM   16  C   UNL     1      33.834 -10.634  -3.577  1.00  0.00     0.070 A 
HETATM   17  O   UNL     1      32.621 -11.201  -3.840  1.00  0.00    -0.325 OA
HETATM   18  C   UNL     1      31.706 -10.552  -3.075  1.00  0.00     0.142 A 
HETATM   19  C   UNL     1      32.312  -9.572  -2.325  1.00  0.00     0.027 A 
HETATM   20  C   UNL     1      33.689  -9.622  -2.649  1.00  0.00     0.036 A 
ENDBRANCH  15  16
ENDBRANCH  12  15
ENDBRANCH  10  11
ENDBRANCH   9  10
ENDBRANCH   6   9
ENDBRANCH   2   5
BRANCH   1  21
HETATM   21  C   UNL     1      42.592 -14.830   1.438  1.00  0.00     0.146 C 
BRANCH  21  22
HETATM   22  C   UNL     1      42.900 -15.546   2.720  1.00  0.00    -0.015 A 
HETATM   23  C   UNL     1      43.205 -16.933   2.967  1.00  0.00    -0.000 A 
HETATM   24  C   UNL     1      43.305 -18.099   2.172  1.00  0.00     0.021 A 
HETATM   25  C   UNL     1      43.452 -17.067   4.333  1.00  0.00     0.043 A 
HETATM   26  C   UNL     1      43.643 -19.336   2.752  1.00  0.00    -0.061 A 
HETATM   27  C   UNL     1      43.778 -20.563   1.897  1.00  0.00     0.048 C 
HETATM   28  C   UNL     1      43.898 -19.411   4.122  1.00  0.00     0.009 A 
HETATM   29  C   UNL     1      43.800 -18.282   4.937  1.00  0.00     0.031 A 
HETATM   30  N   UNL     1      43.287 -15.831   4.904  1.00  0.00    -0.359 N 
HETATM   31  H   UNL     1      43.398 -15.642   5.890  1.00  0.00     0.166 HD
HETATM   32  C   UNL     1      42.962 -14.902   3.953  1.00  0.00     0.013 A 
HETATM   33  C   UNL     1      42.739 -13.475   4.311  1.00  0.00     0.068 C 
ENDBRANCH  21  22
ENDBRANCH   1  21
TORSDOF 8
ENDMDL
MODEL 6
REMARK VINA RESULT:      -8.1      6.585      9.852
REMARK  8 active torsions:
REMARK  status: ('A' for Active; 'I' for Inactive)
REMARK    1  A    between atoms: C_10  and  C_11 
REMARK    2  A    between atoms: C_11  and  C_12 
REMARK       I    between atoms: C_12  and  N_13 
REMARK    3  A    between atoms: N_13  and  N_14 
REMARK       I    between atoms: N_14  and  C_15 
REMARK    4  A    between atoms: C_15  and  C_16 
REMARK    5  A    between atoms: C_16  and  C_17 
REMARK    6  A    between atoms: C_17  and  C_18 
REMARK       I    between atoms: C_18  and  N_19 
REMARK    7  A    between atoms: N_19  and  C_20 
REMARK    8  A    between atoms: C_20  and  C_21 
ROOT
HETATM    1  C   UNL     1      40.520 -14.706   1.179  1.00  0.00     0.240 C 
HETATM    2  N   UNL     1      39.434 -14.389   0.385  1.00  0.00    -0.267 N 
HETATM    3  O   UNL     1      41.637 -14.229   0.979  1.00  0.00    -0.272 OA
HETATM    4  H   UNL     1      38.473 -14.633   0.625  1.00  0.00     0.190 HD
ENDROOT
BRANCH   2   5
HETATM    5  N   UNL     1      39.621 -13.465  -0.646  1.00  0.00    -0.268 N 
HETATM    6  C   UNL     1      39.470 -13.889  -1.948  1.00  0.00     0.236 C 
HETATM    7  O   UNL     1      39.013 -14.992  -2.246  1.00  0.00    -0.272 OA
HETATM    8  H   UNL     1      40.083 -12.592  -0.388  1.00  0.00     0.190 HD
BRANCH   6   9
HETATM    9  C   UNL     1      39.901 -12.853  -2.964  1.00  0.00     0.114 C 
BRANCH   9  10
HETATM   10  C   UNL     1      41.274 -12.276  -2.652  1.00  0.00     0.112 C 
BRANCH  10  11
HETATM   11  C   UNL     1      41.146 -10.989  -1.870  1.00  0.00     0.218 C 
HETATM   12  N   UNL     1      40.821  -9.894  -2.629  1.00  0.00    -0.355 N 
HETATM   13  H   UNL     1      40.464 -10.049  -3.572  1.00  0.00     0.162 HD
HETATM   14  O   UNL     1      41.295 -10.952  -0.652  1.00  0.00    -0.274 OA
BRANCH  12  15
HETATM   15  C   UNL     1      40.523  -8.628  -2.003  1.00  0.00     0.187 C 
BRANCH  15  16
HETATM   16  C   UNL     1      41.725  -7.768  -2.073  1.00  0.00     0.070 A 
HETATM   17  O   UNL     1      41.661  -6.691  -2.910  1.00  0.00    -0.325 OA
HETATM   18  C   UNL     1      42.857  -6.053  -2.825  1.00  0.00     0.142 A 
HETATM   19  C   UNL     1      43.691  -6.706  -1.948  1.00  0.00     0.027 A 
HETATM   20  C   UNL     1      42.961  -7.816  -1.461  1.00  0.00     0.036 A 
ENDBRANCH  15  16
ENDBRANCH  12  15
ENDBRANCH  10  11
ENDBRANCH   9  10
ENDBRANCH   6   9
ENDBRANCH   2   5
BRANCH   1  21
HETATM   21  C   UNL     1      40.224 -15.718   2.259  1.00  0.00     0.146 C 
BRANCH  21  22
HETATM   22  C   UNL     1      41.344 -16.041   3.204  1.00  0.00    -0.015 A 
HETATM   23  C   UNL     1      42.294 -17.124   3.193  1.00  0.00    -0.000 A 
HETATM   24  C   UNL     1      42.527 -18.252   2.371  1.00  0.00     0.021 A 
HETATM   25  C   UNL     1      43.151 -16.936   4.278  1.00  0.00     0.043 A 
HETATM   26  C   UNL     1      43.585 -19.136   2.649  1.00  0.00    -0.061 A 
HETATM   27  C   UNL     1      43.845 -20.313   1.753  1.00  0.00     0.048 C 
HETATM   28  C   UNL     1      44.424 -18.891   3.737  1.00  0.00     0.009 A 
HETATM   29  C   UNL     1      44.218 -17.793   4.573  1.00  0.00     0.031 A 
HETATM   30  N   UNL     1      42.737 -15.806   4.937  1.00  0.00    -0.359 N 
HETATM   31  H   UNL     1      43.180 -15.441   5.768  1.00  0.00     0.166 HD
HETATM   32  C   UNL     1      41.659 -15.249   4.305  1.00  0.00     0.013 A 
HETATM   33  C   UNL     1      41.023 -14.005   4.815  1.00  0.00     0.068 C 
ENDBRANCH  21  22
ENDBRANCH   1  21
TORSDOF 8
ENDMDL
MODEL 7
REMARK VINA RESULT:      -8.0      2.734      9.860
REMARK  8 active torsions:
REMARK  status: ('A' for Active; 'I' for Inactive)
REMARK    1  A    between atoms: C_10  and  C_11 
REMARK    2  A    between atoms: C_11  and  C_12 
REMARK       I    between atoms: C_12  and  N_13 
REMARK    3  A    between atoms: N_13  and  N_14 
REMARK       I    between atoms: N_14  and  C_15 
REMARK    4  A    between atoms: C_15  and  C_16 
REMARK    5  A    between atoms: C_16  and  C_17 
REMARK    6  A    between atoms: C_17  and  C_18 
REMARK       I    between atoms: C_18  and  N_19 
REMARK    7  A    between atoms: N_19  and  C_20 
REMARK    8  A    between atoms: C_20  and  C_21 
ROOT
HETATM    1  C   UNL     1      41.480 -11.266   5.664  1.00  0.00     0.240 C 
HETATM    2  N   UNL     1      41.115 -12.130   6.679  1.00  0.00    -0.267 N 
HETATM    3  O   UNL     1      41.303 -11.541   4.477  1.00  0.00    -0.272 OA
HETATM    4  H   UNL     1      41.094 -11.861   7.663  1.00  0.00     0.190 HD
ENDROOT
BRANCH   2   5
HETATM    5  N   UNL     1      40.491 -13.329   6.329  1.00  0.00    -0.268 N 
HETATM    6  C   UNL     1      41.203 -14.502   6.446  1.00  0.00     0.236 C 
HETATM    7  O   UNL     1      42.299 -14.571   7.002  1.00  0.00    -0.272 OA
HETATM    8  H   UNL     1      39.628 -13.246   5.790  1.00  0.00     0.190 HD
BRANCH   6   9
HETATM    9  C   UNL     1      40.490 -15.693   5.842  1.00  0.00     0.114 C 
BRANCH   9  10
HETATM   10  C   UNL     1      40.715 -15.801   4.341  1.00  0.00     0.112 C 
BRANCH  10  11
HETATM   11  C   UNL     1      42.160 -16.129   4.042  1.00  0.00     0.218 C 
HETATM   12  N   UNL     1      42.701 -17.096   4.850  1.00  0.00    -0.355 N 
HETATM   13  H   UNL     1      42.067 -17.675   5.402  1.00  0.00     0.162 HD
HETATM   14  O   UNL     1      42.773 -15.586   3.127  1.00  0.00    -0.274 OA
BRANCH  12  15
HETATM   15  C   UNL     1      44.022 -17.617   4.590  1.00  0.00     0.187 C 
BRANCH  15  16
HETATM   16  C   UNL     1      43.898 -18.836   3.761  1.00  0.00     0.070 A 
HETATM   17  O   UNL     1      44.070 -20.031   4.397  1.00  0.00    -0.325 OA
HETATM   18  C   UNL     1      43.921 -21.003   3.460  1.00  0.00     0.142 A 
HETATM   19  C   UNL     1      43.659 -20.451   2.229  1.00  0.00     0.027 A 
HETATM   20  C   UNL     1      43.645 -19.049   2.421  1.00  0.00     0.036 A 
ENDBRANCH  15  16
ENDBRANCH  12  15
ENDBRANCH  10  11
ENDBRANCH   9  10
ENDBRANCH   6   9
ENDBRANCH   2   5
BRANCH   1  21
HETATM   21  C   UNL     1      42.155 -10.001   6.137  1.00  0.00     0.146 C 
BRANCH  21  22
HETATM   22  C   UNL     1      43.220 -10.158   7.183  1.00  0.00    -0.015 A 
HETATM   23  C   UNL     1      43.251  -9.729   8.558  1.00  0.00    -0.000 A 
HETATM   24  C   UNL     1      42.374  -9.018   9.412  1.00  0.00     0.021 A 
HETATM   25  C   UNL     1      44.460 -10.163   9.101  1.00  0.00     0.043 A 
HETATM   26  C   UNL     1      42.724  -8.768  10.751  1.00  0.00    -0.061 A 
HETATM   27  C   UNL     1      41.775  -8.040  11.660  1.00  0.00     0.048 C 
HETATM   28  C   UNL     1      43.939  -9.241  11.250  1.00  0.00     0.009 A 
HETATM   29  C   UNL     1      44.830  -9.938  10.433  1.00  0.00     0.031 A 
HETATM   30  N   UNL     1      45.150 -10.808   8.106  1.00  0.00    -0.359 N 
HETATM   31  H   UNL     1      46.066 -11.217   8.225  1.00  0.00     0.166 HD
HETATM   32  C   UNL     1      44.420 -10.823   6.948  1.00  0.00     0.013 A 
HETATM   33  C   UNL     1      44.941 -11.474   5.716  1.00  0.00     0.068 C 
ENDBRANCH  21  22
ENDBRANCH   1  21
TORSDOF 8
ENDMDL
MODEL 8
REMARK VINA RESULT:      -7.9      6.813     11.487
REMARK  8 active torsions:
REMARK  status: ('A' for Active; 'I' for Inactive)
REMARK    1  A    between atoms: C_10  and  C_11 
REMARK    2  A    between atoms: C_11  and  C_12 
REMARK       I    between atoms: C_12  and  N_13 
REMARK    3  A    between atoms: N_13  and  N_14 
REMARK       I    between atoms: N_14  and  C_15 
REMARK    4  A    between atoms: C_15  and  C_16 
REMARK    5  A    between atoms: C_16  and  C_17 
REMARK    6  A    between atoms: C_17  and  C_18 
REMARK       I    between atoms: C_18  and  N_19 
REMARK    7  A    between atoms: N_19  and  C_20 
REMARK    8  A    between atoms: C_20  and  C_21 
ROOT
HETATM    1  C   UNL     1      41.245 -14.836   0.837  1.00  0.00     0.240 C 
HETATM    2  N   UNL     1      41.046 -14.129  -0.333  1.00  0.00    -0.267 N 
HETATM    3  O   UNL     1      40.377 -15.568   1.314  1.00  0.00    -0.272 OA
HETATM    4  H   UNL     1      41.795 -13.654  -0.836  1.00  0.00     0.190 HD
ENDROOT
BRANCH   2   5
HETATM    5  N   UNL     1      39.830 -14.294  -1.002  1.00  0.00    -0.268 N 
HETATM    6  C   UNL     1      39.796 -14.097  -2.365  1.00  0.00     0.236 C 
HETATM    7  O   UNL     1      40.808 -13.950  -3.049  1.00  0.00    -0.272 OA
HETATM    8  H   UNL     1      38.995 -14.324  -0.416  1.00  0.00     0.190 HD
BRANCH   6   9
HETATM    9  C   UNL     1      38.392 -14.103  -2.930  1.00  0.00     0.114 C 
BRANCH   9  10
HETATM   10  C   UNL     1      37.484 -13.101  -2.231  1.00  0.00     0.112 C 
BRANCH  10  11
HETATM   11  C   UNL     1      38.085 -11.715  -2.277  1.00  0.00     0.218 C 
HETATM   12  N   UNL     1      37.633 -10.935  -3.311  1.00  0.00    -0.355 N 
HETATM   13  H   UNL     1      36.790 -11.229  -3.805  1.00  0.00     0.162 HD
HETATM   14  O   UNL     1      38.887 -11.327  -1.433  1.00  0.00    -0.274 OA
BRANCH  12  15
HETATM   15  C   UNL     1      38.006  -9.543  -3.399  1.00  0.00     0.187 C 
BRANCH  15  16
HETATM   16  C   UNL     1      37.906  -9.113  -4.811  1.00  0.00     0.070 A 
HETATM   17  O   UNL     1      36.675  -9.200  -5.394  1.00  0.00    -0.325 OA
HETATM   18  C   UNL     1      36.812  -8.765  -6.673  1.00  0.00     0.142 A 
HETATM   19  C   UNL     1      38.114  -8.404  -6.924  1.00  0.00     0.027 A 
HETATM   20  C   UNL     1      38.824  -8.628  -5.721  1.00  0.00     0.036 A 
ENDBRANCH  15  16
ENDBRANCH  12  15
ENDBRANCH  10  11
ENDBRANCH   9  10
ENDBRANCH   6   9
ENDBRANCH   2   5
BRANCH   1  21
HETATM   21  C   UNL     1      42.581 -14.587   1.493  1.00  0.00     0.146 C 
BRANCH  21  22
HETATM   22  C   UNL     1      42.859 -15.338   2.762  1.00  0.00    -0.015 A 
HETATM   23  C   UNL     1      43.166 -16.729   2.977  1.00  0.00    -0.000 A 
HETATM   24  C   UNL     1      43.294 -17.872   2.153  1.00  0.00     0.021 A 
HETATM   25  C   UNL     1      43.378 -16.901   4.346  1.00  0.00     0.043 A 
HETATM   26  C   UNL     1      43.623 -19.123   2.706  1.00  0.00    -0.061 A 
HETATM   27  C   UNL     1      43.788 -20.324   1.821  1.00  0.00     0.048 C 
HETATM   28  C   UNL     1      43.842 -19.236   4.080  1.00  0.00     0.009 A 
HETATM   29  C   UNL     1      43.716 -18.131   4.923  1.00  0.00     0.031 A 
HETATM   30  N   UNL     1      43.190 -15.682   4.947  1.00  0.00    -0.359 N 
HETATM   31  H   UNL     1      43.274 -15.522   5.940  1.00  0.00     0.166 HD
HETATM   32  C   UNL     1      42.885 -14.729   4.014  1.00  0.00     0.013 A 
HETATM   33  C   UNL     1      42.644 -13.314   4.406  1.00  0.00     0.068 C 
ENDBRANCH  21  22
ENDBRANCH   1  21
TORSDOF 8
ENDMDL
MODEL 9
REMARK VINA RESULT:      -7.9      2.943      4.024
REMARK  8 active torsions:
REMARK  status: ('A' for Active; 'I' for Inactive)
REMARK    1  A    between atoms: C_10  and  C_11 
REMARK    2  A    between atoms: C_11  and  C_12 
REMARK       I    between atoms: C_12  and  N_13 
REMARK    3  A    between atoms: N_13  and  N_14 
REMARK       I    between atoms: N_14  and  C_15 
REMARK    4  A    between atoms: C_15  and  C_16 
REMARK    5  A    between atoms: C_16  and  C_17 
REMARK    6  A    between atoms: C_17  and  C_18 
REMARK       I    between atoms: C_18  and  N_19 
REMARK    7  A    between atoms: N_19  and  C_20 
REMARK    8  A    between atoms: C_20  and  C_21 
ROOT
HETATM    1  C   UNL     1      41.963 -14.306   5.043  1.00  0.00     0.240 C 
HETATM    2  N   UNL     1      42.226 -13.017   5.463  1.00  0.00    -0.267 N 
HETATM    3  O   UNL     1      40.816 -14.748   4.966  1.00  0.00    -0.272 OA
HETATM    4  H   UNL     1      43.140 -12.574   5.377  1.00  0.00     0.190 HD
ENDROOT
BRANCH   2   5
HETATM    5  N   UNL     1      41.141 -12.191   5.767  1.00  0.00    -0.268 N 
HETATM    6  C   UNL     1      40.838 -11.157   4.909  1.00  0.00     0.236 C 
HETATM    7  O   UNL     1      41.364 -11.024   3.805  1.00  0.00    -0.272 OA
HETATM    8  H   UNL     1      40.779 -12.256   6.720  1.00  0.00     0.190 HD
BRANCH   6   9
HETATM    9  C   UNL     1      39.782 -10.221   5.456  1.00  0.00     0.114 C 
BRANCH   9  10
HETATM   10  C   UNL     1      39.218 -10.701   6.785  1.00  0.00     0.112 C 
BRANCH  10  11
HETATM   11  C   UNL     1      39.473  -9.682   7.872  1.00  0.00     0.218 C 
HETATM   12  N   UNL     1      40.561  -9.955   8.661  1.00  0.00    -0.355 N 
HETATM   13  H   UNL     1      41.234 -10.648   8.333  1.00  0.00     0.162 HD
HETATM   14  O   UNL     1      38.772  -8.683   8.002  1.00  0.00    -0.274 OA
BRANCH  12  15
HETATM   15  C   UNL     1      41.014  -8.999   9.644  1.00  0.00     0.187 C 
BRANCH  15  16
HETATM   16  C   UNL     1      40.626  -9.481  10.988  1.00  0.00     0.070 A 
HETATM   17  O   UNL     1      41.471  -9.178  12.016  1.00  0.00    -0.325 OA
HETATM   18  C   UNL     1      40.932  -9.714  13.142  1.00  0.00     0.142 A 
HETATM   19  C   UNL     1      39.754 -10.360  12.853  1.00  0.00     0.027 A 
HETATM   20  C   UNL     1      39.554 -10.212  11.460  1.00  0.00     0.036 A 
ENDBRANCH  15  16
ENDBRANCH  12  15
ENDBRANCH  10  11
ENDBRANCH   9  10
ENDBRANCH   6   9
ENDBRANCH   2   5
BRANCH   1  21
HETATM   21  C   UNL     1      43.196 -15.126   4.746  1.00  0.00     0.146 C 
BRANCH  21  22
HETATM   22  C   UNL     1      43.293 -16.463   5.420  1.00  0.00    -0.015 A 
HETATM   23  C   UNL     1      43.474 -17.780   4.863  1.00  0.00    -0.000 A 
HETATM   24  C   UNL     1      43.598 -18.314   3.558  1.00  0.00     0.021 A 
HETATM   25  C   UNL     1      43.539 -18.677   5.930  1.00  0.00     0.043 A 
HETATM   26  C   UNL     1      43.779 -19.695   3.363  1.00  0.00    -0.061 A 
HETATM   27  C   UNL     1      43.940 -20.250   1.977  1.00  0.00     0.048 C 
HETATM   28  C   UNL     1      43.855 -20.546   4.466  1.00  0.00     0.009 A 
HETATM   29  C   UNL     1      43.729 -20.054   5.766  1.00  0.00     0.031 A 
HETATM   30  N   UNL     1      43.384 -17.953   7.085  1.00  0.00    -0.359 N 
HETATM   31  H   UNL     1      43.383 -18.357   8.010  1.00  0.00     0.166 HD
HETATM   32  C   UNL     1      43.242 -16.622   6.802  1.00  0.00     0.013 A 
HETATM   33  C   UNL     1      43.068 -15.617   7.885  1.00  0.00     0.068 C 
ENDBRANCH  21  22
ENDBRANCH   1  21
TORSDOF 8
ENDMDL
MODEL 10
REMARK VINA RESULT:      -7.9      5.344      8.138
REMARK  8 active torsions:
REMARK  status: ('A' for Active; 'I' for Inactive)
REMARK    1  A    between atoms: C_10  and  C_11 
REMARK    2  A    between atoms: C_11  and  C_12 
REMARK       I    between atoms: C_12  and  N_13 
REMARK    3  A    between atoms: N_13  and  N_14 
REMARK       I    between atoms: N_14  and  C_15 
REMARK    4  A    between atoms: C_15  and  C_16 
REMARK    5  A    between atoms: C_16  and  C_17 
REMARK    6  A    between atoms: C_17  and  C_18 
REMARK       I    between atoms: C_18  and  N_19 
REMARK    7  A    between atoms: N_19  and  C_20 
REMARK    8  A    between atoms: C_20  and  C_21 
ROOT
HETATM    1  C   UNL     1      41.393 -15.645   1.491  1.00  0.00     0.240 C 
HETATM    2  N   UNL     1      41.200 -14.760   0.447  1.00  0.00    -0.267 N 
HETATM    3  O   UNL     1      40.470 -16.002   2.224  1.00  0.00    -0.272 OA
HETATM    4  H   UNL     1      41.900 -14.580  -0.272  1.00  0.00     0.190 HD
ENDROOT
BRANCH   2   5
HETATM    5  N   UNL     1      39.903 -14.300   0.207  1.00  0.00    -0.268 N 
HETATM    6  C   UNL     1      39.636 -13.673  -0.991  1.00  0.00     0.236 C 
HETATM    7  O   UNL     1      40.433 -13.648  -1.928  1.00  0.00    -0.272 OA
HETATM    8  H   UNL     1      39.287 -14.247   1.019  1.00  0.00     0.190 HD
BRANCH   6   9
HETATM    9  C   UNL     1      38.261 -13.043  -1.038  1.00  0.00     0.114 C 
BRANCH   9  10
HETATM   10  C   UNL     1      38.303 -11.543  -0.785  1.00  0.00     0.112 C 
BRANCH  10  11
HETATM   11  C   UNL     1      38.025 -11.240   0.669  1.00  0.00     0.218 C 
HETATM   12  N   UNL     1      39.135 -10.898   1.399  1.00  0.00    -0.355 N 
HETATM   13  H   UNL     1      39.985 -10.643   0.895  1.00  0.00     0.162 HD
HETATM   14  O   UNL     1      36.889 -11.273   1.133  1.00  0.00    -0.274 OA
BRANCH  12  15
HETATM   15  C   UNL     1      39.005 -10.441   2.762  1.00  0.00     0.187 C 
BRANCH  15  16
HETATM   16  C   UNL     1      39.399 -11.541   3.671  1.00  0.00     0.070 A 
HETATM   17  O   UNL     1      39.073 -11.395   4.989  1.00  0.00    -0.325 OA
HETATM   18  C   UNL     1      39.527 -12.501   5.633  1.00  0.00     0.142 A 
HETATM   19  C   UNL     1      40.143 -13.355   4.750  1.00  0.00     0.027 A 
HETATM   20  C   UNL     1      40.063 -12.736   3.480  1.00  0.00     0.036 A 
ENDBRANCH  15  16
ENDBRANCH  12  15
ENDBRANCH  10  11
ENDBRANCH   9  10
ENDBRANCH   6   9
ENDBRANCH   2   5
BRANCH   1  21
HETATM   21  C   UNL     1      42.826 -16.079   1.679  1.00  0.00     0.146 C 
BRANCH  21  22
HETATM   22  C   UNL     1      43.163 -16.742   2.982  1.00  0.00    -0.015 A 
HETATM   23  C   UNL     1      43.335 -16.183   4.299  1.00  0.00    -0.000 A 
HETATM   24  C   UNL     1      43.288 -14.883   4.856  1.00  0.00     0.021 A 
HETATM   25  C   UNL     1      43.601 -17.242   5.168  1.00  0.00     0.043 A 
HETATM   26  C   UNL     1      43.502 -14.684   6.232  1.00  0.00    -0.061 A 
HETATM   27  C   UNL     1      43.419 -13.305   6.821  1.00  0.00     0.048 C 
HETATM   28  C   UNL     1      43.746 -15.780   7.060  1.00  0.00     0.009 A 
HETATM   29  C   UNL     1      43.808 -17.075   6.543  1.00  0.00     0.031 A 
HETATM   30  N   UNL     1      43.615 -18.393   4.422  1.00  0.00    -0.359 N 
HETATM   31  H   UNL     1      43.792 -19.312   4.802  1.00  0.00     0.166 HD
HETATM   32  C   UNL     1      43.347 -18.116   3.109  1.00  0.00     0.013 A 
HETATM   33  C   UNL     1      43.292 -19.198   2.088  1.00  0.00     0.068 C 
ENDBRANCH  21  22
ENDBRANCH   1  21
TORSDOF 8
ENDMDL
