MODEL 1
REMARK VINA RESULT:      -8.4      0.000      0.000
REMARK  5 active torsions:
REMARK  status: ('A' for Active; 'I' for Inactive)
REMARK    1  A    between atoms: C_5  and  C_6 
REMARK    2  A    between atoms: C_10  and  C_11 
REMARK       I    between atoms: C_11  and  N_12 
REMARK    3  A    between atoms: N_12  and  C_13 
REMARK    4  A    between atoms: C_13  and  C_14 
REMARK    5  A    between atoms: C_14  and  O_15 
ROOT
HETATM    1  C   UNL     1      42.635 -15.447   3.055  1.00  0.00     0.068 A 
HETATM    2  N   UNL     1      43.108 -14.614   4.016  1.00  0.00    -0.248 NA
HETATM    3  C   UNL     1      42.842 -13.298   3.962  1.00  0.00     0.068 A 
HETATM    4  C   UNL     1      42.056 -12.714   2.953  1.00  0.00     0.008 A 
HETATM    5  C   UNL     1      41.529 -13.606   1.996  1.00  0.00     0.046 A 
HETATM    6  C   UNL     1      41.831 -14.969   2.035  1.00  0.00     0.050 A 
HETATM    7  C   UNL     1      43.383 -12.481   4.947  1.00  0.00     0.032 A 
HETATM    8  C   UNL     1      43.185 -11.099   4.956  1.00  0.00     0.002 A 
HETATM    9  C   UNL     1      42.432 -10.508   3.952  1.00  0.00     0.001 A 
HETATM   10  C   UNL     1      41.875 -11.306   2.954  1.00  0.00     0.015 A 
ENDROOT
BRANCH   5  11
HETATM   11  C   UNL     1      40.652 -13.177   0.884  1.00  0.00     0.252 C 
HETATM   12  N   UNL     1      41.284 -12.894  -0.302  1.00  0.00    -0.354 N 
HETATM   13  H   UNL     1      42.289 -13.005  -0.395  1.00  0.00     0.162 HD
HETATM   14  O   UNL     1      39.451 -13.040   1.078  1.00  0.00    -0.268 OA
BRANCH  12  15
HETATM   15  C   UNL     1      40.563 -12.500  -1.499  1.00  0.00     0.154 C 
BRANCH  15  16
HETATM   16  C   UNL     1      40.387 -13.672  -2.473  1.00  0.00     0.132 C 
HETATM   17  C   UNL     1      39.017 -13.676  -3.139  1.00  0.00     0.041 C 
BRANCH  16  18
HETATM   18  O   UNL     1      41.399 -13.597  -3.483  1.00  0.00    -0.394 OA
HETATM   19  H   UNL     1      41.346 -12.709  -3.877  1.00  0.00     0.210 HD
ENDBRANCH  16  18
ENDBRANCH  15  16
ENDBRANCH  12  15
ENDBRANCH   5  11
BRANCH   1  20
HETATM   20  C   UNL     1      43.032 -16.869   3.182  1.00  0.00    -0.007 A 
HETATM   21  C   UNL     1      42.774 -17.784   2.145  1.00  0.00     0.014 A 
HETATM   22  C   UNL     1      43.133 -19.134   2.244  1.00  0.00     0.007 A 
HETATM   23  C   UNL     1      43.756 -19.616   3.397  1.00  0.00    -0.062 A 
HETATM   24  C   UNL     1      44.160 -21.055   3.513  1.00  0.00     0.048 C 
HETATM   25  C   UNL     1      44.027 -18.724   4.438  1.00  0.00     0.007 A 
HETATM   26  C   UNL     1      43.663 -17.375   4.332  1.00  0.00     0.014 A 
ENDBRANCH   1  20
TORSDOF 5
ENDMDL
MODEL 2
REMARK VINA RESULT:      -8.4      4.163      6.248
REMARK  5 active torsions:
REMARK  status: ('A' for Active; 'I' for Inactive)
REMARK    1  A    between atoms: C_5  and  C_6 
REMARK    2  A    between atoms: C_10  and  C_11 
REMARK       I    between atoms: C_11  and  N_12 
REMARK    3  A    between atoms: N_12  and  C_13 
REMARK    4  A    between atoms: C_13  and  C_14 
REMARK    5  A    between atoms: C_14  and  O_15 
ROOT
HETATM    1  C   UNL     1      42.800 -14.800   4.602  1.00  0.00     0.068 A 
HETATM    2  N   UNL     1      41.696 -14.181   4.114  1.00  0.00    -0.248 NA
HETATM    3  C   UNL     1      41.330 -12.977   4.586  1.00  0.00     0.068 A 
HETATM    4  C   UNL     1      42.059 -12.284   5.568  1.00  0.00     0.008 A 
HETATM    5  C   UNL     1      43.234 -12.921   6.021  1.00  0.00     0.046 A 
HETATM    6  C   UNL     1      43.597 -14.185   5.553  1.00  0.00     0.050 A 
HETATM    7  C   UNL     1      40.170 -12.403   4.084  1.00  0.00     0.032 A 
HETATM    8  C   UNL     1      39.697 -11.169   4.536  1.00  0.00     0.002 A 
HETATM    9  C   UNL     1      40.394 -10.487   5.522  1.00  0.00     0.001 A 
HETATM   10  C   UNL     1      41.564 -11.040   6.040  1.00  0.00     0.015 A 
ENDROOT
BRANCH   5  11
HETATM   11  C   UNL     1      44.144 -12.325   7.025  1.00  0.00     0.252 C 
HETATM   12  N   UNL     1      45.221 -11.637   6.522  1.00  0.00    -0.354 N 
HETATM   13  H   UNL     1      45.351 -11.534   5.520  1.00  0.00     0.162 HD
HETATM   14  O   UNL     1      43.939 -12.514   8.216  1.00  0.00    -0.268 OA
BRANCH  12  15
HETATM   15  C   UNL     1      46.184 -10.960   7.372  1.00  0.00     0.154 C 
BRANCH  15  16
HETATM   16  C   UNL     1      45.651  -9.614   7.881  1.00  0.00     0.132 C 
HETATM   17  C   UNL     1      45.449  -9.600   9.391  1.00  0.00     0.041 C 
BRANCH  16  18
HETATM   18  O   UNL     1      46.574  -8.580   7.521  1.00  0.00    -0.394 OA
HETATM   19  H   UNL     1      46.405  -7.826   8.112  1.00  0.00     0.210 HD
ENDBRANCH  16  18
ENDBRANCH  15  16
ENDBRANCH  12  15
ENDBRANCH   5  11
BRANCH   1  20
HETATM   20  C   UNL     1      43.081 -16.146   4.050  1.00  0.00    -0.007 A 
HETATM   21  C   UNL     1      42.544 -16.542   2.811  1.00  0.00     0.014 A 
HETATM   22  C   UNL     1      42.788 -17.810   2.271  1.00  0.00     0.007 A 
HETATM   23  C   UNL     1      43.574 -18.734   2.964  1.00  0.00    -0.062 A 
HETATM   24  C   UNL     1      43.857 -20.090   2.393  1.00  0.00     0.048 C 
HETATM   25  C   UNL     1      44.121 -18.361   4.194  1.00  0.00     0.007 A 
HETATM   26  C   UNL     1      43.871 -17.090   4.730  1.00  0.00     0.014 A 
ENDBRANCH   1  20
TORSDOF 5
ENDMDL
MODEL 3
REMARK VINA RESULT:      -8.3      2.661      5.465
REMARK  5 active torsions:
REMARK  status: ('A' for Active; 'I' for Inactive)
REMARK    1  A    between atoms: C_5  and  C_6 
REMARK    2  A    between atoms: C_10  and  C_11 
REMARK       I    between atoms: C_11  and  N_12 
REMARK    3  A    between atoms: N_12  and  C_13 
REMARK    4  A    between atoms: C_13  and  C_14 
REMARK    5  A    between atoms: C_14  and  O_15 
ROOT
HETATM    1  C   UNL     1      42.896 -15.312   2.842  1.00  0.00     0.068 A 
HETATM    2  N   UNL     1      42.146 -15.010   1.752  1.00  0.00    -0.248 NA
HETATM    3  C   UNL     1      41.796 -13.737   1.501  1.00  0.00     0.068 A 
HETATM    4  C   UNL     1      42.194 -12.659   2.310  1.00  0.00     0.008 A 
HETATM    5  C   UNL     1      43.019 -12.988   3.406  1.00  0.00     0.046 A 
HETATM    6  C   UNL     1      43.357 -14.314   3.683  1.00  0.00     0.050 A 
HETATM    7  C   UNL     1      40.994 -13.485   0.396  1.00  0.00     0.032 A 
HETATM    8  C   UNL     1      40.557 -12.198   0.074  1.00  0.00     0.002 A 
HETATM    9  C   UNL     1      40.922 -11.129   0.879  1.00  0.00     0.001 A 
HETATM   10  C   UNL     1      41.730 -11.355   1.992  1.00  0.00     0.015 A 
ENDROOT
BRANCH   5  11
HETATM   11  C   UNL     1      43.562 -11.980   4.344  1.00  0.00     0.252 C 
HETATM   12  N   UNL     1      42.894 -11.851   5.536  1.00  0.00    -0.354 N 
HETATM   13  H   UNL     1      42.094 -12.438   5.751  1.00  0.00     0.162 HD
HETATM   14  O   UNL     1      44.514 -11.289   4.006  1.00  0.00    -0.268 OA
BRANCH  12  15
HETATM   15  C   UNL     1      43.323 -10.937   6.579  1.00  0.00     0.154 C 
BRANCH  15  16
HETATM   16  C   UNL     1      44.346 -11.585   7.523  1.00  0.00     0.132 C 
HETATM   17  C   UNL     1      45.698 -10.884   7.487  1.00  0.00     0.041 C 
BRANCH  16  18
HETATM   18  O   UNL     1      43.835 -11.551   8.860  1.00  0.00    -0.394 OA
HETATM   19  H   UNL     1      44.537 -11.187   9.426  1.00  0.00     0.210 HD
ENDBRANCH  16  18
ENDBRANCH  15  16
ENDBRANCH  12  15
ENDBRANCH   5  11
BRANCH   1  20
HETATM   20  C   UNL     1      43.178 -16.751   3.051  1.00  0.00    -0.007 A 
HETATM   21  C   UNL     1      42.873 -17.697   2.055  1.00  0.00     0.014 A 
HETATM   22  C   UNL     1      43.123 -19.063   2.232  1.00  0.00     0.007 A 
HETATM   23  C   UNL     1      43.681 -19.531   3.424  1.00  0.00    -0.062 A 
HETATM   24  C   UNL     1      43.968 -20.988   3.623  1.00  0.00     0.048 C 
HETATM   25  C   UNL     1      43.996 -18.609   4.425  1.00  0.00     0.007 A 
HETATM   26  C   UNL     1      43.741 -17.243   4.242  1.00  0.00     0.014 A 
ENDBRANCH   1  20
TORSDOF 5
ENDMDL
MODEL 4
REMARK VINA RESULT:      -8.1      1.824      2.109
REMARK  5 active torsions:
REMARK  status: ('A' for Active; 'I' for Inactive)
REMARK    1  A    between atoms: C_5  and  C_6 
REMARK    2  A    between atoms: C_10  and  C_11 
REMARK       I    between atoms: C_11  and  N_12 
REMARK    3  A    between atoms: N_12  and  C_13 
REMARK    4  A    between atoms: C_13  and  C_14 
REMARK    5  A    between atoms: C_14  and  O_15 
ROOT
HETATM    1  C   UNL     1      41.635 -15.435   3.440  1.00  0.00     0.068 A 
HETATM    2  N   UNL     1      41.158 -14.764   4.519  1.00  0.00    -0.248 NA
HETATM    3  C   UNL     1      40.488 -13.610   4.358  1.00  0.00     0.068 A 
HETATM    4  C   UNL     1      40.218 -13.050   3.097  1.00  0.00     0.008 A 
HETATM    5  C   UNL     1      40.673 -13.792   1.988  1.00  0.00     0.046 A 
HETATM    6  C   UNL     1      41.396 -14.975   2.157  1.00  0.00     0.050 A 
HETATM    7  C   UNL     1      40.056 -12.941   5.495  1.00  0.00     0.032 A 
HETATM    8  C   UNL     1      39.378 -11.722   5.426  1.00  0.00     0.002 A 
HETATM    9  C   UNL     1      39.127 -11.146   4.189  1.00  0.00     0.001 A 
HETATM   10  C   UNL     1      39.547 -11.800   3.032  1.00  0.00     0.015 A 
ENDROOT
BRANCH   5  11
HETATM   11  C   UNL     1      40.448 -13.375   0.585  1.00  0.00     0.252 C 
HETATM   12  N   UNL     1      39.282 -13.817   0.010  1.00  0.00    -0.354 N 
HETATM   13  H   UNL     1      38.618 -14.373   0.540  1.00  0.00     0.162 HD
HETATM   14  O   UNL     1      41.306 -12.728   0.001  1.00  0.00    -0.268 OA
BRANCH  12  15
HETATM   15  C   UNL     1      38.894 -13.463  -1.343  1.00  0.00     0.154 C 
BRANCH  15  16
HETATM   16  C   UNL     1      39.421 -14.472  -2.373  1.00  0.00     0.132 C 
HETATM   17  C   UNL     1      38.434 -14.715  -3.508  1.00  0.00     0.041 C 
BRANCH  16  18
HETATM   18  O   UNL     1      40.652 -13.985  -2.918  1.00  0.00    -0.394 OA
HETATM   19  H   UNL     1      40.497 -13.067  -3.200  1.00  0.00     0.210 HD
ENDBRANCH  16  18
ENDBRANCH  15  16
ENDBRANCH  12  15
ENDBRANCH   5  11
BRANCH   1  20
HETATM   20  C   UNL     1      42.404 -16.666   3.736  1.00  0.00    -0.007 A 
HETATM   21  C   UNL     1      42.785 -16.978   5.054  1.00  0.00     0.014 A 
HETATM   22  C   UNL     1      43.518 -18.131   5.358  1.00  0.00     0.007 A 
HETATM   23  C   UNL     1      43.907 -19.009   4.344  1.00  0.00    -0.062 A 
HETATM   24  C   UNL     1      44.680 -20.255   4.655  1.00  0.00     0.048 C 
HETATM   25  C   UNL     1      43.536 -18.721   3.028  1.00  0.00     0.007 A 
HETATM   26  C   UNL     1      42.803 -17.565   2.730  1.00  0.00     0.014 A 
ENDBRANCH   1  20
TORSDOF 5
ENDMDL
MODEL 5
REMARK VINA RESULT:      -8.0      1.561      2.258
REMARK  5 active torsions:
REMARK  status: ('A' for Active; 'I' for Inactive)
REMARK    1  A    between atoms: C_5  and  C_6 
REMARK    2  A    between atoms: C_10  and  C_11 
REMARK       I    between atoms: C_11  and  N_12 
REMARK    3  A    between atoms: N_12  and  C_13 
REMARK    4  A    between atoms: C_13  and  C_14 
REMARK    5  A    between atoms: C_14  and  O_15 
ROOT
HETATM    1  C   UNL     1      43.131 -15.225   3.939  1.00  0.00     0.068 A 
HETATM    2  N   UNL     1      43.448 -14.811   5.191  1.00  0.00    -0.248 NA
HETATM    3  C   UNL     1      43.360 -13.509   5.517  1.00  0.00     0.068 A 
HETATM    4  C   UNL     1      42.920 -12.522   4.618  1.00  0.00     0.008 A 
HETATM    5  C   UNL     1      42.543 -12.983   3.339  1.00  0.00     0.046 A 
HETATM    6  C   UNL     1      42.664 -14.330   2.993  1.00  0.00     0.050 A 
HETATM    7  C   UNL     1      43.735 -13.129   6.799  1.00  0.00     0.032 A 
HETATM    8  C   UNL     1      43.704 -11.797   7.216  1.00  0.00     0.002 A 
HETATM    9  C   UNL     1      43.296 -10.811   6.331  1.00  0.00     0.001 A 
HETATM   10  C   UNL     1      42.911 -11.167   5.039  1.00  0.00     0.015 A 
ENDROOT
BRANCH   5  11
HETATM   11  C   UNL     1      42.022 -12.094   2.277  1.00  0.00     0.252 C 
HETATM   12  N   UNL     1      41.031 -12.621   1.487  1.00  0.00    -0.354 N 
HETATM   13  H   UNL     1      40.674 -13.556   1.656  1.00  0.00     0.162 HD
HETATM   14  O   UNL     1      42.520 -10.987   2.116  1.00  0.00    -0.268 OA
BRANCH  12  15
HETATM   15  C   UNL     1      40.387 -11.864   0.429  1.00  0.00     0.154 C 
BRANCH  15  16
HETATM   16  C   UNL     1      39.610 -12.772  -0.534  1.00  0.00     0.132 C 
HETATM   17  C   UNL     1      39.962 -14.245  -0.358  1.00  0.00     0.041 C 
BRANCH  16  18
HETATM   18  O   UNL     1      38.206 -12.596  -0.312  1.00  0.00    -0.394 OA
HETATM   19  H   UNL     1      37.754 -13.355  -0.719  1.00  0.00     0.210 HD
ENDBRANCH  16  18
ENDBRANCH  15  16
ENDBRANCH  12  15
ENDBRANCH   5  11
BRANCH   1  20
HETATM   20  C   UNL     1      43.315 -16.672   3.674  1.00  0.00    -0.007 A 
HETATM   21  C   UNL     1      43.952 -17.501   4.616  1.00  0.00     0.014 A 
HETATM   22  C   UNL     1      44.144 -18.868   4.385  1.00  0.00     0.007 A 
HETATM   23  C   UNL     1      43.712 -19.451   3.192  1.00  0.00    -0.062 A 
HETATM   24  C   UNL     1      43.898 -20.917   2.937  1.00  0.00     0.048 C 
HETATM   25  C   UNL     1      43.074 -18.648   2.244  1.00  0.00     0.007 A 
HETATM   26  C   UNL     1      42.886 -17.279   2.480  1.00  0.00     0.014 A 
ENDBRANCH   1  20
TORSDOF 5
ENDMDL
MODEL 6
REMARK VINA RESULT:      -8.0      2.975      7.233
REMARK  5 active torsions:
REMARK  status: ('A' for Active; 'I' for Inactive)
REMARK    1  A    between atoms: C_5  and  C_6 
REMARK    2  A    between atoms: C_10  and  C_11 
REMARK       I    between atoms: C_11  and  N_12 
REMARK    3  A    between atoms: N_12  and  C_13 
REMARK    4  A    between atoms: C_13  and  C_14 
REMARK    5  A    between atoms: C_14  and  O_15 
ROOT
HETATM    1  C   UNL     1      41.387 -14.875   2.260  1.00  0.00     0.068 A 
HETATM    2  N   UNL     1      41.871 -16.105   1.955  1.00  0.00    -0.248 NA
HETATM    3  C   UNL     1      42.652 -16.762   2.829  1.00  0.00     0.068 A 
HETATM    4  C   UNL     1      42.988 -16.249   4.094  1.00  0.00     0.008 A 
HETATM    5  C   UNL     1      42.428 -14.994   4.413  1.00  0.00     0.046 A 
HETATM    6  C   UNL     1      41.643 -14.298   3.492  1.00  0.00     0.050 A 
HETATM    7  C   UNL     1      43.156 -18.001   2.454  1.00  0.00     0.032 A 
HETATM    8  C   UNL     1      43.998 -18.742   3.285  1.00  0.00     0.002 A 
HETATM    9  C   UNL     1      44.357 -18.235   4.525  1.00  0.00     0.001 A 
HETATM   10  C   UNL     1      43.861 -16.996   4.927  1.00  0.00     0.015 A 
ENDROOT
BRANCH   5  11
HETATM   11  C   UNL     1      42.643 -14.316   5.711  1.00  0.00     0.252 C 
HETATM   12  N   UNL     1      43.649 -13.383   5.740  1.00  0.00    -0.354 N 
HETATM   13  H   UNL     1      44.183 -13.167   4.904  1.00  0.00     0.162 HD
HETATM   14  O   UNL     1      41.978 -14.647   6.684  1.00  0.00    -0.268 OA
BRANCH  12  15
HETATM   15  C   UNL     1      43.960 -12.602   6.924  1.00  0.00     0.154 C 
BRANCH  15  16
HETATM   16  C   UNL     1      44.564 -11.237   6.567  1.00  0.00     0.132 C 
HETATM   17  C   UNL     1      45.807 -10.917   7.389  1.00  0.00     0.041 C 
BRANCH  16  18
HETATM   18  O   UNL     1      44.904 -11.225   5.177  1.00  0.00    -0.394 OA
HETATM   19  H   UNL     1      45.438 -12.020   5.005  1.00  0.00     0.210 HD
ENDBRANCH  16  18
ENDBRANCH  15  16
ENDBRANCH  12  15
ENDBRANCH   5  11
BRANCH   1  20
HETATM   20  C   UNL     1      40.583 -14.219   1.203  1.00  0.00    -0.007 A 
HETATM   21  C   UNL     1      40.145 -12.890   1.352  1.00  0.00     0.014 A 
HETATM   22  C   UNL     1      39.378 -12.251   0.371  1.00  0.00     0.007 A 
HETATM   23  C   UNL     1      39.012 -12.929  -0.794  1.00  0.00    -0.062 A 
HETATM   24  C   UNL     1      38.203 -12.254  -1.860  1.00  0.00     0.048 C 
HETATM   25  C   UNL     1      39.439 -14.248  -0.965  1.00  0.00     0.007 A 
HETATM   26  C   UNL     1      40.205 -14.883   0.022  1.00  0.00     0.014 A 
ENDBRANCH   1  20
TORSDOF 5
ENDMDL
MODEL 7
REMARK VINA RESULT:      -7.8      1.596      5.611
REMARK  5 active torsions:
REMARK  status: ('A' for Active; 'I' for Inactive)
REMARK    1  A    between atoms: C_5  and  C_6 
REMARK    2  A    between atoms: C_10  and  C_11 
REMARK       I    between atoms: C_11  and  N_12 
REMARK    3  A    between atoms: N_12  and  C_13 
REMARK    4  A    between atoms: C_13  and  C_14 
REMARK    5  A    between atoms: C_14  and  O_15 
ROOT
HETATM    1  C   UNL     1      42.765 -14.279   4.504  1.00  0.00     0.068 A 
HETATM    2  N   UNL     1      43.518 -15.377   4.764  1.00  0.00    -0.248 NA
HETATM    3  C   UNL     1      43.389 -16.481   4.008  1.00  0.00     0.068 A 
HETATM    4  C   UNL     1      42.513 -16.562   2.911  1.00  0.00     0.008 A 
HETATM    5  C   UNL     1      41.781 -15.390   2.625  1.00  0.00     0.046 A 
HETATM    6  C   UNL     1      41.893 -14.254   3.429  1.00  0.00     0.050 A 
HETATM    7  C   UNL     1      44.152 -17.593   4.339  1.00  0.00     0.032 A 
HETATM    8  C   UNL     1      44.063 -18.792   3.629  1.00  0.00     0.002 A 
HETATM    9  C   UNL     1      43.185 -18.892   2.561  1.00  0.00     0.001 A 
HETATM   10  C   UNL     1      42.410 -17.789   2.205  1.00  0.00     0.015 A 
ENDROOT
BRANCH   5  11
HETATM   11  C   UNL     1      40.840 -15.279   1.489  1.00  0.00     0.252 C 
HETATM   12  N   UNL     1      41.199 -14.399   0.498  1.00  0.00    -0.354 N 
HETATM   13  H   UNL     1      42.073 -13.886   0.549  1.00  0.00     0.162 HD
HETATM   14  O   UNL     1      39.790 -15.910   1.508  1.00  0.00    -0.268 OA
BRANCH  12  15
HETATM   15  C   UNL     1      40.404 -14.205  -0.702  1.00  0.00     0.154 C 
BRANCH  15  16
HETATM   16  C   UNL     1      40.460 -12.753  -1.197  1.00  0.00     0.132 C 
HETATM   17  C   UNL     1      40.922 -11.786  -0.114  1.00  0.00     0.041 C 
BRANCH  16  18
HETATM   18  O   UNL     1      41.354 -12.673  -2.312  1.00  0.00    -0.394 OA
HETATM   19  H   UNL     1      41.376 -11.743  -2.595  1.00  0.00     0.210 HD
ENDBRANCH  16  18
ENDBRANCH  15  16
ENDBRANCH  12  15
ENDBRANCH   5  11
BRANCH   1  20
HETATM   20  C   UNL     1      42.948 -13.138   5.432  1.00  0.00    -0.007 A 
HETATM   21  C   UNL     1      43.903 -13.196   6.464  1.00  0.00     0.014 A 
HETATM   22  C   UNL     1      44.091 -12.135   7.357  1.00  0.00     0.007 A 
HETATM   23  C   UNL     1      43.315 -10.978   7.253  1.00  0.00    -0.062 A 
HETATM   24  C   UNL     1      43.514  -9.827   8.193  1.00  0.00     0.048 C 
HETATM   25  C   UNL     1      42.364 -10.897   6.233  1.00  0.00     0.007 A 
HETATM   26  C   UNL     1      42.180 -11.964   5.343  1.00  0.00     0.014 A 
ENDBRANCH   1  20
TORSDOF 5
ENDMDL
MODEL 8
REMARK VINA RESULT:      -7.6      2.317      2.775
REMARK  5 active torsions:
REMARK  status: ('A' for Active; 'I' for Inactive)
REMARK    1  A    between atoms: C_5  and  C_6 
REMARK    2  A    between atoms: C_10  and  C_11 
REMARK       I    between atoms: C_11  and  N_12 
REMARK    3  A    between atoms: N_12  and  C_13 
REMARK    4  A    between atoms: C_13  and  C_14 
REMARK    5  A    between atoms: C_14  and  O_15 
ROOT
HETATM    1  C   UNL     1      42.777 -15.132   4.212  1.00  0.00     0.068 A 
HETATM    2  N   UNL     1      43.425 -14.736   5.336  1.00  0.00    -0.248 NA
HETATM    3  C   UNL     1      43.279 -13.482   5.796  1.00  0.00     0.068 A 
HETATM    4  C   UNL     1      42.448 -12.531   5.180  1.00  0.00     0.008 A 
HETATM    5  C   UNL     1      41.740 -12.981   4.045  1.00  0.00     0.046 A 
HETATM    6  C   UNL     1      41.916 -14.274   3.550  1.00  0.00     0.050 A 
HETATM    7  C   UNL     1      43.996 -13.113   6.927  1.00  0.00     0.032 A 
HETATM    8  C   UNL     1      43.929 -11.824   7.459  1.00  0.00     0.002 A 
HETATM    9  C   UNL     1      43.132 -10.869   6.846  1.00  0.00     0.001 A 
HETATM   10  C   UNL     1      42.399 -11.216   5.711  1.00  0.00     0.015 A 
ENDROOT
BRANCH   5  11
HETATM   11  C   UNL     1      40.793 -12.130   3.290  1.00  0.00     0.252 C 
HETATM   12  N   UNL     1      41.350 -11.319   2.333  1.00  0.00    -0.354 N 
HETATM   13  H   UNL     1      42.349 -11.336   2.152  1.00  0.00     0.162 HD
HETATM   14  O   UNL     1      39.604 -12.142   3.581  1.00  0.00    -0.268 OA
BRANCH  12  15
HETATM   15  C   UNL     1      40.554 -10.456   1.479  1.00  0.00     0.154 C 
BRANCH  15  16
HETATM   16  C   UNL     1      41.209 -10.246   0.107  1.00  0.00     0.132 C 
HETATM   17  C   UNL     1      40.256  -9.621  -0.905  1.00  0.00     0.041 C 
BRANCH  16  18
HETATM   18  O   UNL     1      42.353  -9.398   0.260  1.00  0.00    -0.394 OA
HETATM   19  H   UNL     1      42.623  -9.446   1.193  1.00  0.00     0.210 HD
ENDBRANCH  16  18
ENDBRANCH  15  16
ENDBRANCH  12  15
ENDBRANCH   5  11
BRANCH   1  20
HETATM   20  C   UNL     1      43.051 -16.518   3.764  1.00  0.00    -0.007 A 
HETATM   21  C   UNL     1      43.854 -17.378   4.537  1.00  0.00     0.014 A 
HETATM   22  C   UNL     1      44.134 -18.689   4.132  1.00  0.00     0.007 A 
HETATM   23  C   UNL     1      43.625 -19.181   2.928  1.00  0.00    -0.062 A 
HETATM   24  C   UNL     1      43.904 -20.586   2.488  1.00  0.00     0.048 C 
HETATM   25  C   UNL     1      42.823 -18.345   2.147  1.00  0.00     0.007 A 
HETATM   26  C   UNL     1      42.548 -17.034   2.557  1.00  0.00     0.014 A 
ENDBRANCH   1  20
TORSDOF 5
ENDMDL
MODEL 9
REMARK VINA RESULT:      -7.4      2.656      3.471
REMARK  5 active torsions:
REMARK  status: ('A' for Active; 'I' for Inactive)
REMARK    1  A    between atoms: C_5  and  C_6 
REMARK    2  A    between atoms: C_10  and  C_11 
REMARK       I    between atoms: C_11  and  N_12 
REMARK    3  A    between atoms: N_12  and  C_13 
REMARK    4  A    between atoms: C_13  and  C_14 
REMARK    5  A    between atoms: C_14  and  O_15 
ROOT
HETATM    1  C   UNL     1      42.975 -14.952   4.109  1.00  0.00     0.068 A 
HETATM    2  N   UNL     1      43.457 -14.592   5.325  1.00  0.00    -0.248 NA
HETATM    3  C   UNL     1      43.356 -13.320   5.744  1.00  0.00     0.068 A 
HETATM    4  C   UNL     1      42.737 -12.309   4.987  1.00  0.00     0.008 A 
HETATM    5  C   UNL     1      42.194 -12.718   3.751  1.00  0.00     0.046 A 
HETATM    6  C   UNL     1      42.327 -14.033   3.302  1.00  0.00     0.050 A 
HETATM    7  C   UNL     1      43.900 -12.993   6.979  1.00  0.00     0.032 A 
HETATM    8  C   UNL     1      43.868 -11.691   7.483  1.00  0.00     0.002 A 
HETATM    9  C   UNL     1      43.283 -10.680   6.734  1.00  0.00     0.001 A 
HETATM   10  C   UNL     1      42.726 -10.983   5.493  1.00  0.00     0.015 A 
ENDROOT
BRANCH   5  11
HETATM   11  C   UNL     1      41.477 -11.800   2.838  1.00  0.00     0.252 C 
HETATM   12  N   UNL     1      40.110 -11.777   2.966  1.00  0.00    -0.354 N 
HETATM   13  H   UNL     1      39.643 -12.342   3.667  1.00  0.00     0.162 HD
HETATM   14  O   UNL     1      42.104 -11.168   1.998  1.00  0.00    -0.268 OA
BRANCH  12  15
HETATM   15  C   UNL     1      39.264 -10.901   2.174  1.00  0.00     0.154 C 
BRANCH  15  16
HETATM   16  C   UNL     1      38.509  -9.891   3.048  1.00  0.00     0.132 C 
HETATM   17  C   UNL     1      38.691 -10.157   4.537  1.00  0.00     0.041 C 
BRANCH  16  18
HETATM   18  O   UNL     1      38.975  -8.571   2.746  1.00  0.00    -0.394 OA
HETATM   19  H   UNL     1      38.222  -7.967   2.867  1.00  0.00     0.210 HD
ENDBRANCH  16  18
ENDBRANCH  15  16
ENDBRANCH  12  15
ENDBRANCH   5  11
BRANCH   1  20
HETATM   20  C   UNL     1      43.188 -16.368   3.725  1.00  0.00    -0.007 A 
HETATM   21  C   UNL     1      42.676 -16.870   2.514  1.00  0.00     0.014 A 
HETATM   22  C   UNL     1      42.857 -18.205   2.133  1.00  0.00     0.007 A 
HETATM   23  C   UNL     1      43.551 -19.089   2.962  1.00  0.00    -0.062 A 
HETATM   24  C   UNL     1      43.765 -20.517   2.561  1.00  0.00     0.048 C 
HETATM   25  C   UNL     1      44.071 -18.611   4.167  1.00  0.00     0.007 A 
HETATM   26  C   UNL     1      43.885 -17.274   4.544  1.00  0.00     0.014 A 
ENDBRANCH   1  20
TORSDOF 5
ENDMDL
MODEL 10
REMARK VINA RESULT:      -7.4      3.440      7.226
REMARK  5 active torsions:
REMARK  status: ('A' for Active; 'I' for Inactive)
REMARK    1  A    between atoms: C_5  and  C_6 
REMARK    2  A    between atoms: C_10  and  C_11 
REMARK       I    between atoms: C_11  and  N_12 
REMARK    3  A    between atoms: N_12  and  C_13 
REMARK    4  A    between atoms: C_13  and  C_14 
REMARK    5  A    between atoms: C_14  and  O_15 
ROOT
HETATM    1  C   UNL     1      41.698 -13.917   3.108  1.00  0.00     0.068 A 
HETATM    2  N   UNL     1      41.535 -15.071   3.803  1.00  0.00    -0.248 NA
HETATM    3  C   UNL     1      42.047 -15.197   5.039  1.00  0.00     0.068 A 
HETATM    4  C   UNL     1      42.742 -14.162   5.690  1.00  0.00     0.008 A 
HETATM    5  C   UNL     1      42.851 -12.953   4.972  1.00  0.00     0.046 A 
HETATM    6  C   UNL     1      42.346 -12.834   3.676  1.00  0.00     0.050 A 
HETATM    7  C   UNL     1      41.888 -16.411   5.692  1.00  0.00     0.032 A 
HETATM    8  C   UNL     1      42.411 -16.643   6.966  1.00  0.00     0.002 A 
HETATM    9  C   UNL     1      43.120 -15.639   7.609  1.00  0.00     0.001 A 
HETATM   10  C   UNL     1      43.290 -14.408   6.976  1.00  0.00     0.015 A 
ENDROOT
BRANCH   5  11
HETATM   11  C   UNL     1      43.517 -11.746   5.513  1.00  0.00     0.252 C 
HETATM   12  N   UNL     1      42.908 -11.162   6.596  1.00  0.00    -0.354 N 
HETATM   13  H   UNL     1      42.069 -11.564   7.001  1.00  0.00     0.162 HD
HETATM   14  O   UNL     1      44.512 -11.302   4.956  1.00  0.00    -0.268 OA
BRANCH  12  15
HETATM   15  C   UNL     1      43.456  -9.998   7.268  1.00  0.00     0.154 C 
BRANCH  15  16
HETATM   16  C   UNL     1      44.447 -10.388   8.374  1.00  0.00     0.132 C 
HETATM   17  C   UNL     1      44.853  -9.201   9.239  1.00  0.00     0.041 C 
BRANCH  16  18
HETATM   18  O   UNL     1      43.850 -11.391   9.203  1.00  0.00    -0.394 OA
HETATM   19  H   UNL     1      44.440 -11.521   9.966  1.00  0.00     0.210 HD
ENDBRANCH  16  18
ENDBRANCH  15  16
ENDBRANCH  12  15
ENDBRANCH   5  11
BRANCH   1  20
HETATM   20  C   UNL     1      41.140 -13.907   1.736  1.00  0.00    -0.007 A 
HETATM   21  C   UNL     1      41.298 -12.783   0.903  1.00  0.00     0.014 A 
HETATM   22  C   UNL     1      40.775 -12.746  -0.395  1.00  0.00     0.007 A 
HETATM   23  C   UNL     1      40.061 -13.835  -0.900  1.00  0.00    -0.062 A 
HETATM   24  C   UNL     1      39.507 -13.817  -2.292  1.00  0.00     0.048 C 
HETATM   25  C   UNL     1      39.896 -14.963  -0.092  1.00  0.00     0.007 A 
HETATM   26  C   UNL     1      40.421 -14.993   1.207  1.00  0.00     0.014 A 
ENDBRANCH   1  20
TORSDOF 5
ENDMDL
