MODEL 1
REMARK VINA RESULT:      -8.4      0.000      0.000
REMARK  3 active torsions:
REMARK  status: ('A' for Active; 'I' for Inactive)
REMARK    1  A    between atoms: C_6  and  C_7 
REMARK       I    between atoms: C_7  and  N_8 
REMARK    2  A    between atoms: N_8  and  C_9 
REMARK    3  A    between atoms: C_13  and  C_14 
ROOT
HETATM    1  C   UNL     1      43.257 -13.576   6.562  1.00  0.00     0.036 A 
HETATM    2  C   UNL     1      43.425 -14.885   7.011  1.00  0.00     0.054 A 
HETATM    3  C   UNL     1      43.352 -15.972   6.120  1.00  0.00     0.050 A 
HETATM    4 CL   UNL     1      43.495 -17.545   6.834  1.00  0.00    -0.083 Cl
HETATM    5  C   UNL     1      43.119 -15.760   4.752  1.00  0.00     0.035 A 
HETATM    6  C   UNL     1      42.971 -14.433   4.309  1.00  0.00     0.019 A 
HETATM    7  C   UNL     1      43.039 -13.357   5.200  1.00  0.00     0.030 A 
ENDROOT
BRANCH   1   8
HETATM    8  N   UNL     1      43.246 -12.442   7.401  1.00  0.00    -0.323 N 
HETATM    9  C   UNL     1      44.278 -11.561   7.652  1.00  0.00     0.261 C 
HETATM   10  O   UNL     1      45.368 -11.559   7.086  1.00  0.00    -0.267 OA
HETATM   11  H   UNL     1      42.381 -12.285   7.921  1.00  0.00     0.169 HD
BRANCH   9  12
HETATM   12  C   UNL     1      43.992 -10.560   8.731  1.00  0.00     0.100 A 
HETATM   13  C   UNL     1      42.765  -9.710   8.775  1.00  0.00     0.261 A 
HETATM   14  N   UNL     1      42.624  -8.880   9.864  1.00  0.00    -0.327 N 
HETATM   15  O   UNL     1      41.916  -9.747   7.886  1.00  0.00    -0.267 OA
HETATM   16  C   UNL     1      43.534  -8.785  10.890  1.00  0.00     0.008 A 
HETATM   17  H   UNL     1      41.782  -8.317   9.881  1.00  0.00     0.169 HD
HETATM   18  C   UNL     1      43.211  -7.840  12.007  1.00  0.00     0.068 C 
HETATM   19  C   UNL     1      44.646  -9.533  10.847  1.00  0.00     0.026 A 
HETATM   20  C   UNL     1      44.873 -10.439   9.742  1.00  0.00     0.025 A 
ENDBRANCH   9  12
ENDBRANCH   1   8
BRANCH   5  21
HETATM   21  C   UNL     1      42.994 -16.835   3.771  1.00  0.00     0.183 A 
HETATM   22  N   UNL     1      42.065 -16.836   2.796  1.00  0.00    -0.152 NA
HETATM   23  N   UNL     1      42.309 -17.994   2.170  1.00  0.00    -0.263 N 
HETATM   24  H   UNL     1      41.728 -18.269   1.387  1.00  0.00     0.190 HD
HETATM   25  C   UNL     1      43.362 -18.652   2.731  1.00  0.00     0.118 A 
HETATM   26  C   UNL     1      43.849 -19.965   2.261  1.00  0.00     0.093 C 
HETATM   27  N   UNL     1      43.826 -17.930   3.724  1.00  0.00    -0.212 NA
ENDBRANCH   5  21
TORSDOF 3
ENDMDL
MODEL 2
REMARK VINA RESULT:      -8.1      1.330      1.859
REMARK  3 active torsions:
REMARK  status: ('A' for Active; 'I' for Inactive)
REMARK    1  A    between atoms: C_6  and  C_7 
REMARK       I    between atoms: C_7  and  N_8 
REMARK    2  A    between atoms: N_8  and  C_9 
REMARK    3  A    between atoms: C_13  and  C_14 
ROOT
HETATM    1  C   UNL     1      43.302 -13.941   6.218  1.00  0.00     0.036 A 
HETATM    2  C   UNL     1      43.088 -14.049   4.844  1.00  0.00     0.054 A 
HETATM    3  C   UNL     1      43.199 -15.290   4.189  1.00  0.00     0.050 A 
HETATM    4 CL   UNL     1      42.991 -15.256   2.468  1.00  0.00    -0.083 Cl
HETATM    5  C   UNL     1      43.518 -16.452   4.908  1.00  0.00     0.035 A 
HETATM    6  C   UNL     1      43.712 -16.331   6.297  1.00  0.00     0.019 A 
HETATM    7  C   UNL     1      43.605 -15.095   6.942  1.00  0.00     0.030 A 
ENDROOT
BRANCH   1   8
HETATM    8  N   UNL     1      43.278 -12.726   6.934  1.00  0.00    -0.323 N 
HETATM    9  C   UNL     1      44.322 -11.854   7.165  1.00  0.00     0.261 C 
HETATM   10  O   UNL     1      45.446 -11.943   6.677  1.00  0.00    -0.267 OA
HETATM   11  H   UNL     1      42.387 -12.491   7.375  1.00  0.00     0.169 HD
BRANCH   9  12
HETATM   12  C   UNL     1      44.003 -10.738   8.113  1.00  0.00     0.100 A 
HETATM   13  C   UNL     1      42.759  -9.915   8.042  1.00  0.00     0.261 A 
HETATM   14  N   UNL     1      42.588  -8.965   9.024  1.00  0.00    -0.327 N 
HETATM   15  O   UNL     1      41.923 -10.075   7.156  1.00  0.00    -0.267 OA
HETATM   16  C   UNL     1      43.483  -8.729  10.041  1.00  0.00     0.008 A 
HETATM   17  H   UNL     1      41.735  -8.421   8.965  1.00  0.00     0.169 HD
HETATM   18  C   UNL     1      43.127  -7.665  11.034  1.00  0.00     0.068 C 
HETATM   19  C   UNL     1      44.610  -9.454  10.099  1.00  0.00     0.026 A 
HETATM   20  C   UNL     1      44.868 -10.480   9.112  1.00  0.00     0.025 A 
ENDBRANCH   9  12
ENDBRANCH   1   8
BRANCH   5  21
HETATM   21  C   UNL     1      43.688 -17.768   4.297  1.00  0.00     0.183 A 
HETATM   22  N   UNL     1      44.333 -18.782   4.903  1.00  0.00    -0.152 NA
HETATM   23  N   UNL     1      44.260 -19.755   3.986  1.00  0.00    -0.263 N 
HETATM   24  H   UNL     1      44.695 -20.651   4.174  1.00  0.00     0.190 HD
HETATM   25  C   UNL     1      43.574 -19.350   2.881  1.00  0.00     0.118 A 
HETATM   26  C   UNL     1      43.349 -20.205   1.698  1.00  0.00     0.093 C 
HETATM   27  N   UNL     1      43.181 -18.111   3.064  1.00  0.00    -0.212 NA
ENDBRANCH   5  21
TORSDOF 3
ENDMDL
MODEL 3
REMARK VINA RESULT:      -7.8      2.819      9.131
REMARK  3 active torsions:
REMARK  status: ('A' for Active; 'I' for Inactive)
REMARK    1  A    between atoms: C_6  and  C_7 
REMARK       I    between atoms: C_7  and  N_8 
REMARK    2  A    between atoms: N_8  and  C_9 
REMARK    3  A    between atoms: C_13  and  C_14 
ROOT
HETATM    1  C   UNL     1      43.183 -13.225   5.701  1.00  0.00     0.036 A 
HETATM    2  C   UNL     1      42.180 -12.258   5.679  1.00  0.00     0.054 A 
HETATM    3  C   UNL     1      42.288 -11.083   6.447  1.00  0.00     0.050 A 
HETATM    4 CL   UNL     1      40.926 -10.012   6.385  1.00  0.00    -0.083 Cl
HETATM    5  C   UNL     1      43.419 -10.854   7.247  1.00  0.00     0.035 A 
HETATM    6  C   UNL     1      44.432 -11.830   7.245  1.00  0.00     0.019 A 
HETATM    7  C   UNL     1      44.317 -12.997   6.483  1.00  0.00     0.030 A 
ENDROOT
BRANCH   1   8
HETATM    8  N   UNL     1      43.118 -14.457   5.016  1.00  0.00    -0.323 N 
HETATM    9  C   UNL     1      42.800 -15.698   5.527  1.00  0.00     0.261 C 
HETATM   10  O   UNL     1      42.405 -15.919   6.670  1.00  0.00    -0.267 OA
HETATM   11  H   UNL     1      43.387 -14.429   4.031  1.00  0.00     0.169 HD
BRANCH   9  12
HETATM   12  C   UNL     1      42.992 -16.834   4.568  1.00  0.00     0.100 A 
HETATM   13  C   UNL     1      42.320 -16.923   3.237  1.00  0.00     0.261 A 
HETATM   14  N   UNL     1      42.648 -18.003   2.449  1.00  0.00    -0.327 N 
HETATM   15  O   UNL     1      41.517 -16.074   2.856  1.00  0.00    -0.267 OA
HETATM   16  C   UNL     1      43.534 -18.990   2.813  1.00  0.00     0.008 A 
HETATM   17  H   UNL     1      42.189 -18.043   1.546  1.00  0.00     0.169 HD
HETATM   18  C   UNL     1      43.784 -20.085   1.822  1.00  0.00     0.068 C 
HETATM   19  C   UNL     1      44.126 -18.924   4.014  1.00  0.00     0.026 A 
HETATM   20  C   UNL     1      43.846 -17.818   4.905  1.00  0.00     0.025 A 
ENDBRANCH   9  12
ENDBRANCH   1   8
BRANCH   5  21
HETATM   21  C   UNL     1      43.589  -9.680   8.100  1.00  0.00     0.183 A 
HETATM   22  N   UNL     1      44.474  -8.702   7.835  1.00  0.00    -0.152 NA
HETATM   23  N   UNL     1      44.297  -7.870   8.870  1.00  0.00    -0.263 N 
HETATM   24  H   UNL     1      44.866  -7.034   8.940  1.00  0.00     0.190 HD
HETATM   25  C   UNL     1      43.323  -8.317   9.710  1.00  0.00     0.118 A 
HETATM   26  C   UNL     1      42.922  -7.614  10.945  1.00  0.00     0.093 C 
HETATM   27  N   UNL     1      42.844  -9.443   9.232  1.00  0.00    -0.212 NA
ENDBRANCH   5  21
TORSDOF 3
ENDMDL
MODEL 4
REMARK VINA RESULT:      -7.8      1.883      2.189
REMARK  3 active torsions:
REMARK  status: ('A' for Active; 'I' for Inactive)
REMARK    1  A    between atoms: C_6  and  C_7 
REMARK       I    between atoms: C_7  and  N_8 
REMARK    2  A    between atoms: N_8  and  C_9 
REMARK    3  A    between atoms: C_13  and  C_14 
ROOT
HETATM    1  C   UNL     1      42.976 -12.419   6.532  1.00  0.00     0.036 A 
HETATM    2  C   UNL     1      42.359 -12.179   5.305  1.00  0.00     0.054 A 
HETATM    3  C   UNL     1      42.376 -13.148   4.284  1.00  0.00     0.050 A 
HETATM    4 CL   UNL     1      41.643 -12.677   2.785  1.00  0.00    -0.083 Cl
HETATM    5  C   UNL     1      43.008 -14.385   4.482  1.00  0.00     0.035 A 
HETATM    6  C   UNL     1      43.610 -14.621   5.732  1.00  0.00     0.019 A 
HETATM    7  C   UNL     1      43.594 -13.653   6.742  1.00  0.00     0.030 A 
ENDROOT
BRANCH   1   8
HETATM    8  N   UNL     1      43.062 -11.476   7.578  1.00  0.00    -0.323 N 
HETATM    9  C   UNL     1      44.194 -10.884   8.097  1.00  0.00     0.261 C 
HETATM   10  O   UNL     1      45.331 -11.001   7.646  1.00  0.00    -0.267 OA
HETATM   11  H   UNL     1      42.179 -11.244   8.036  1.00  0.00     0.169 HD
BRANCH   9  12
HETATM   12  C   UNL     1      43.956 -10.056   9.324  1.00  0.00     0.100 A 
HETATM   13  C   UNL     1      43.883  -8.564   9.321  1.00  0.00     0.261 A 
HETATM   14  N   UNL     1      43.600  -7.955  10.522  1.00  0.00    -0.327 N 
HETATM   15  O   UNL     1      44.062  -7.906   8.298  1.00  0.00    -0.267 OA
HETATM   16  C   UNL     1      43.394  -8.627  11.704  1.00  0.00     0.008 A 
HETATM   17  H   UNL     1      43.547  -6.943  10.500  1.00  0.00     0.169 HD
HETATM   18  C   UNL     1      43.080  -7.803  12.915  1.00  0.00     0.068 C 
HETATM   19  C   UNL     1      43.475  -9.965  11.716  1.00  0.00     0.026 A 
HETATM   20  C   UNL     1      43.762 -10.689  10.496  1.00  0.00     0.025 A 
ENDBRANCH   9  12
ENDBRANCH   1   8
BRANCH   5  21
HETATM   21  C   UNL     1      43.102 -15.425   3.461  1.00  0.00     0.183 A 
HETATM   22  N   UNL     1      43.396 -15.167   2.173  1.00  0.00    -0.152 NA
HETATM   23  N   UNL     1      43.353 -16.386   1.620  1.00  0.00    -0.263 N 
HETATM   24  H   UNL     1      43.519 -16.488   0.626  1.00  0.00     0.190 HD
HETATM   25  C   UNL     1      43.070 -17.344   2.546  1.00  0.00     0.118 A 
HETATM   26  C   UNL     1      42.942 -18.780   2.224  1.00  0.00     0.093 C 
HETATM   27  N   UNL     1      42.934 -16.767   3.718  1.00  0.00    -0.212 NA
ENDBRANCH   5  21
TORSDOF 3
ENDMDL
MODEL 5
REMARK VINA RESULT:      -7.8      5.606      7.976
REMARK  3 active torsions:
REMARK  status: ('A' for Active; 'I' for Inactive)
REMARK    1  A    between atoms: C_6  and  C_7 
REMARK       I    between atoms: C_7  and  N_8 
REMARK    2  A    between atoms: N_8  and  C_9 
REMARK    3  A    between atoms: C_13  and  C_14 
ROOT
HETATM    1  C   UNL     1      42.501 -14.323   1.921  1.00  0.00     0.036 A 
HETATM    2  C   UNL     1      42.635 -14.097   3.290  1.00  0.00     0.054 A 
HETATM    3  C   UNL     1      42.932 -15.152   4.173  1.00  0.00     0.050 A 
HETATM    4 CL   UNL     1      42.984 -14.737   5.856  1.00  0.00    -0.083 Cl
HETATM    5  C   UNL     1      43.112 -16.458   3.692  1.00  0.00     0.035 A 
HETATM    6  C   UNL     1      42.993 -16.668   2.305  1.00  0.00     0.019 A 
HETATM    7  C   UNL     1      42.692 -15.617   1.433  1.00  0.00     0.030 A 
ENDROOT
BRANCH   1   8
HETATM    8  N   UNL     1      42.137 -13.334   0.983  1.00  0.00    -0.323 N 
HETATM    9  C   UNL     1      40.885 -13.071   0.468  1.00  0.00     0.261 C 
HETATM   10  O   UNL     1      39.837 -13.597   0.837  1.00  0.00    -0.267 OA
HETATM   11  H   UNL     1      42.907 -12.780   0.605  1.00  0.00     0.169 HD
BRANCH   9  12
HETATM   12  C   UNL     1      40.867 -12.066  -0.643  1.00  0.00     0.100 A 
HETATM   13  C   UNL     1      41.423 -10.684  -0.527  1.00  0.00     0.261 A 
HETATM   14  N   UNL     1      41.383  -9.902  -1.659  1.00  0.00    -0.327 N 
HETATM   15  O   UNL     1      41.900 -10.262   0.525  1.00  0.00    -0.267 OA
HETATM   16  C   UNL     1      40.862 -10.308  -2.865  1.00  0.00     0.008 A 
HETATM   17  H   UNL     1      41.771  -8.971  -1.563  1.00  0.00     0.169 HD
HETATM   18  C   UNL     1      40.915  -9.330  -3.998  1.00  0.00     0.068 C 
HETATM   19  C   UNL     1      40.345 -11.541  -2.970  1.00  0.00     0.026 A 
HETATM   20  C   UNL     1      40.353 -12.434  -1.832  1.00  0.00     0.025 A 
ENDBRANCH   9  12
ENDBRANCH   1   8
BRANCH   5  21
HETATM   21  C   UNL     1      43.385 -17.612   4.546  1.00  0.00     0.183 A 
HETATM   22  N   UNL     1      43.153 -17.615   5.872  1.00  0.00    -0.152 NA
HETATM   23  N   UNL     1      43.561 -18.840   6.229  1.00  0.00    -0.263 N 
HETATM   24  H   UNL     1      43.519 -19.114   7.204  1.00  0.00     0.190 HD
HETATM   25  C   UNL     1      43.997 -19.554   5.155  1.00  0.00     0.118 A 
HETATM   26  C   UNL     1      44.523 -20.932   5.247  1.00  0.00     0.093 C 
HETATM   27  N   UNL     1      43.871 -18.812   4.079  1.00  0.00    -0.212 NA
ENDBRANCH   5  21
TORSDOF 3
ENDMDL
MODEL 6
REMARK VINA RESULT:      -7.7      2.818      9.052
REMARK  3 active torsions:
REMARK  status: ('A' for Active; 'I' for Inactive)
REMARK    1  A    between atoms: C_6  and  C_7 
REMARK       I    between atoms: C_7  and  N_8 
REMARK    2  A    between atoms: N_8  and  C_9 
REMARK    3  A    between atoms: C_13  and  C_14 
ROOT
HETATM    1  C   UNL     1      42.964 -13.397   5.709  1.00  0.00     0.036 A 
HETATM    2  C   UNL     1      44.060 -12.885   6.402  1.00  0.00     0.054 A 
HETATM    3  C   UNL     1      44.015 -11.606   6.988  1.00  0.00     0.050 A 
HETATM    4 CL   UNL     1      45.480 -11.069   7.743  1.00  0.00    -0.083 Cl
HETATM    5  C   UNL     1      42.857 -10.818   6.895  1.00  0.00     0.035 A 
HETATM    6  C   UNL     1      41.751 -11.355   6.210  1.00  0.00     0.019 A 
HETATM    7  C   UNL     1      41.804 -12.625   5.626  1.00  0.00     0.030 A 
ENDROOT
BRANCH   1   8
HETATM    8  N   UNL     1      42.955 -14.637   5.038  1.00  0.00    -0.323 N 
HETATM    9  C   UNL     1      42.832 -15.898   5.583  1.00  0.00     0.261 C 
HETATM   10  O   UNL     1      42.592 -16.145   6.763  1.00  0.00    -0.267 OA
HETATM   11  H   UNL     1      43.109 -14.594   4.029  1.00  0.00     0.169 HD
BRANCH   9  12
HETATM   12  C   UNL     1      43.037 -17.020   4.610  1.00  0.00     0.100 A 
HETATM   13  C   UNL     1      42.444 -17.053   3.240  1.00  0.00     0.261 A 
HETATM   14  N   UNL     1      42.777 -18.129   2.447  1.00  0.00    -0.327 N 
HETATM   15  O   UNL     1      41.699 -16.165   2.832  1.00  0.00    -0.267 OA
HETATM   16  C   UNL     1      43.600 -19.158   2.839  1.00  0.00     0.008 A 
HETATM   17  H   UNL     1      42.371 -18.131   1.518  1.00  0.00     0.169 HD
HETATM   18  C   UNL     1      43.867 -20.240   1.839  1.00  0.00     0.068 C 
HETATM   19  C   UNL     1      44.121 -19.141   4.075  1.00  0.00     0.026 A 
HETATM   20  C   UNL     1      43.831 -18.045   4.974  1.00  0.00     0.025 A 
ENDBRANCH   9  12
ENDBRANCH   1   8
BRANCH   5  21
HETATM   21  C   UNL     1      42.744  -9.468   7.443  1.00  0.00     0.183 A 
HETATM   22  N   UNL     1      42.275  -8.425   6.733  1.00  0.00    -0.152 NA
HETATM   23  N   UNL     1      42.370  -7.418   7.611  1.00  0.00    -0.263 N 
HETATM   24  H   UNL     1      42.097  -6.483   7.328  1.00  0.00     0.190 HD
HETATM   25  C   UNL     1      42.853  -7.845   8.810  1.00  0.00     0.118 A 
HETATM   26  C   UNL     1      43.081  -6.952   9.965  1.00  0.00     0.093 C 
HETATM   27  N   UNL     1      43.071  -9.137   8.738  1.00  0.00    -0.212 NA
ENDBRANCH   5  21
TORSDOF 3
ENDMDL
MODEL 7
REMARK VINA RESULT:      -7.5      6.331      9.284
REMARK  3 active torsions:
REMARK  status: ('A' for Active; 'I' for Inactive)
REMARK    1  A    between atoms: C_6  and  C_7 
REMARK       I    between atoms: C_7  and  N_8 
REMARK    2  A    between atoms: N_8  and  C_9 
REMARK    3  A    between atoms: C_13  and  C_14 
ROOT
HETATM    1  C   UNL     1      40.823 -14.472   1.276  1.00  0.00     0.036 A 
HETATM    2  C   UNL     1      40.740 -14.562  -0.113  1.00  0.00     0.054 A 
HETATM    3  C   UNL     1      39.988 -13.632  -0.856  1.00  0.00     0.050 A 
HETATM    4 CL   UNL     1      39.906 -13.919  -2.564  1.00  0.00    -0.083 Cl
HETATM    5  C   UNL     1      39.311 -12.584  -0.213  1.00  0.00     0.035 A 
HETATM    6  C   UNL     1      39.419 -12.494   1.187  1.00  0.00     0.019 A 
HETATM    7  C   UNL     1      40.164 -13.423   1.920  1.00  0.00     0.030 A 
ENDROOT
BRANCH   1   8
HETATM    8  N   UNL     1      41.497 -15.402   2.094  1.00  0.00    -0.323 N 
HETATM    9  C   UNL     1      42.848 -15.674   2.136  1.00  0.00     0.261 C 
HETATM   10  O   UNL     1      43.720 -15.055   1.530  1.00  0.00    -0.267 OA
HETATM   11  H   UNL     1      40.901 -15.976   2.693  1.00  0.00     0.169 HD
BRANCH   9  12
HETATM   12  C   UNL     1      43.221 -16.845   2.995  1.00  0.00     0.100 A 
HETATM   13  C   UNL     1      43.245 -16.810   4.488  1.00  0.00     0.261 A 
HETATM   14  N   UNL     1      43.552 -17.988   5.131  1.00  0.00    -0.327 N 
HETATM   15  O   UNL     1      42.999 -15.783   5.118  1.00  0.00    -0.267 OA
HETATM   16  C   UNL     1      43.841 -19.170   4.490  1.00  0.00     0.008 A 
HETATM   17  H   UNL     1      43.556 -17.947   6.143  1.00  0.00     0.169 HD
HETATM   18  C   UNL     1      44.138 -20.359   5.350  1.00  0.00     0.068 C 
HETATM   19  C   UNL     1      43.838 -19.202   3.150  1.00  0.00     0.026 A 
HETATM   20  C   UNL     1      43.519 -18.012   2.392  1.00  0.00     0.025 A 
ENDBRANCH   9  12
ENDBRANCH   1   8
BRANCH   5  21
HETATM   21  C   UNL     1      38.481 -11.602  -0.908  1.00  0.00     0.183 A 
HETATM   22  N   UNL     1      38.746 -10.283  -0.907  1.00  0.00    -0.152 NA
HETATM   23  N   UNL     1      37.735  -9.788  -1.633  1.00  0.00    -0.263 N 
HETATM   24  H   UNL     1      37.671  -8.787  -1.780  1.00  0.00     0.190 HD
HETATM   25  C   UNL     1      36.909 -10.776  -2.077  1.00  0.00     0.118 A 
HETATM   26  C   UNL     1      35.700 -10.527  -2.889  1.00  0.00     0.093 C 
HETATM   27  N   UNL     1      37.372 -11.929  -1.656  1.00  0.00    -0.212 NA
ENDBRANCH   5  21
TORSDOF 3
ENDMDL
MODEL 8
REMARK VINA RESULT:      -7.5      7.729     11.249
REMARK  3 active torsions:
REMARK  status: ('A' for Active; 'I' for Inactive)
REMARK    1  A    between atoms: C_6  and  C_7 
REMARK       I    between atoms: C_7  and  N_8 
REMARK    2  A    between atoms: N_8  and  C_9 
REMARK    3  A    between atoms: C_13  and  C_14 
ROOT
HETATM    1  C   UNL     1      41.650  -8.241  15.141  1.00  0.00     0.036 A 
HETATM    2  C   UNL     1      41.059  -9.010  14.139  1.00  0.00     0.054 A 
HETATM    3  C   UNL     1      41.547  -8.978  12.819  1.00  0.00     0.050 A 
HETATM    4 CL   UNL     1      40.659  -9.918  11.663  1.00  0.00    -0.083 Cl
HETATM    5  C   UNL     1      42.650  -8.177  12.483  1.00  0.00     0.035 A 
HETATM    6  C   UNL     1      43.249  -7.422  13.509  1.00  0.00     0.019 A 
HETATM    7  C   UNL     1      42.757  -7.454  14.817  1.00  0.00     0.030 A 
ENDROOT
BRANCH   1   8
HETATM    8  N   UNL     1      41.179  -8.166  16.469  1.00  0.00    -0.323 N 
HETATM    9  C   UNL     1      40.336  -7.222  17.018  1.00  0.00     0.261 C 
HETATM   10  O   UNL     1      39.756  -6.335  16.397  1.00  0.00    -0.267 OA
HETATM   11  H   UNL     1      41.549  -8.870  17.109  1.00  0.00     0.169 HD
BRANCH   9  12
HETATM   12  C   UNL     1      40.169  -7.328  18.504  1.00  0.00     0.100 A 
HETATM   13  C   UNL     1      40.662  -6.303  19.473  1.00  0.00     0.261 A 
HETATM   14  N   UNL     1      40.378  -6.520  20.802  1.00  0.00    -0.327 N 
HETATM   15  O   UNL     1      41.289  -5.311  19.107  1.00  0.00    -0.267 OA
HETATM   16  C   UNL     1      39.686  -7.608  21.281  1.00  0.00     0.008 A 
HETATM   17  H   UNL     1      40.713  -5.811  21.444  1.00  0.00     0.169 HD
HETATM   18  C   UNL     1      39.452  -7.674  22.759  1.00  0.00     0.068 C 
HETATM   19  C   UNL     1      39.257  -8.539  20.418  1.00  0.00     0.026 A 
HETATM   20  C   UNL     1      39.506  -8.389  19.000  1.00  0.00     0.025 A 
ENDBRANCH   9  12
ENDBRANCH   1   8
BRANCH   5  21
HETATM   21  C   UNL     1      43.191  -8.061  11.131  1.00  0.00     0.183 A 
HETATM   22  N   UNL     1      42.816  -7.097  10.270  1.00  0.00    -0.152 NA
HETATM   23  N   UNL     1      43.538  -7.391   9.181  1.00  0.00    -0.263 N 
HETATM   24  H   UNL     1      43.435  -6.825   8.347  1.00  0.00     0.190 HD
HETATM   25  C   UNL     1      44.337  -8.475   9.389  1.00  0.00     0.118 A 
HETATM   26  C   UNL     1      45.232  -9.040   8.359  1.00  0.00     0.093 C 
HETATM   27  N   UNL     1      44.156  -8.898  10.618  1.00  0.00    -0.212 NA
ENDBRANCH   5  21
TORSDOF 3
ENDMDL
MODEL 9
REMARK VINA RESULT:      -7.5      3.603      5.261
REMARK  3 active torsions:
REMARK  status: ('A' for Active; 'I' for Inactive)
REMARK    1  A    between atoms: C_6  and  C_7 
REMARK       I    between atoms: C_7  and  N_8 
REMARK    2  A    between atoms: N_8  and  C_9 
REMARK    3  A    between atoms: C_13  and  C_14 
ROOT
HETATM    1  C   UNL     1      43.089  -9.581   8.997  1.00  0.00     0.036 A 
HETATM    2  C   UNL     1      44.272 -10.108   8.482  1.00  0.00     0.054 A 
HETATM    3  C   UNL     1      44.315 -10.669   7.191  1.00  0.00     0.050 A 
HETATM    4 CL   UNL     1      45.833 -11.362   6.718  1.00  0.00    -0.083 Cl
HETATM    5  C   UNL     1      43.165 -10.700   6.387  1.00  0.00     0.035 A 
HETATM    6  C   UNL     1      41.982 -10.147   6.912  1.00  0.00     0.019 A 
HETATM    7  C   UNL     1      41.945  -9.596   8.197  1.00  0.00     0.030 A 
ENDROOT
BRANCH   1   8
HETATM    8  N   UNL     1      42.949  -9.067  10.303  1.00  0.00    -0.323 N 
HETATM    9  C   UNL     1      43.084  -9.739  11.500  1.00  0.00     0.261 C 
HETATM   10  O   UNL     1      43.467 -10.899  11.627  1.00  0.00    -0.267 OA
HETATM   11  H   UNL     1      42.664  -8.088  10.363  1.00  0.00     0.169 HD
BRANCH   9  12
HETATM   12  C   UNL     1      42.697  -8.941  12.708  1.00  0.00     0.100 A 
HETATM   13  C   UNL     1      41.508  -9.242  13.560  1.00  0.00     0.261 A 
HETATM   14  N   UNL     1      41.323  -8.448  14.669  1.00  0.00    -0.327 N 
HETATM   15  O   UNL     1      40.730 -10.155  13.291  1.00  0.00    -0.267 OA
HETATM   16  C   UNL     1      42.150  -7.409  15.027  1.00  0.00     0.008 A 
HETATM   17  H   UNL     1      40.516  -8.672  15.240  1.00  0.00     0.169 HD
HETATM   18  C   UNL     1      41.806  -6.660  16.278  1.00  0.00     0.068 C 
HETATM   19  C   UNL     1      43.209  -7.123  14.256  1.00  0.00     0.026 A 
HETATM   20  C   UNL     1      43.483  -7.911  13.074  1.00  0.00     0.025 A 
ENDBRANCH   9  12
ENDBRANCH   1   8
BRANCH   5  21
HETATM   21  C   UNL     1      43.118 -11.296   5.054  1.00  0.00     0.183 A 
HETATM   22  N   UNL     1      42.985 -10.571   3.928  1.00  0.00    -0.152 NA
HETATM   23  N   UNL     1      42.971 -11.516   2.980  1.00  0.00    -0.263 N 
HETATM   24  H   UNL     1      42.857 -11.246   2.009  1.00  0.00     0.190 HD
HETATM   25  C   UNL     1      43.117 -12.760   3.513  1.00  0.00     0.118 A 
HETATM   26  C   UNL     1      43.122 -14.000   2.709  1.00  0.00     0.093 C 
HETATM   27  N   UNL     1      43.238 -12.646   4.815  1.00  0.00    -0.212 NA
ENDBRANCH   5  21
TORSDOF 3
ENDMDL
MODEL 10
REMARK VINA RESULT:      -7.4      4.238      5.062
REMARK  3 active torsions:
REMARK  status: ('A' for Active; 'I' for Inactive)
REMARK    1  A    between atoms: C_6  and  C_7 
REMARK       I    between atoms: C_7  and  N_8 
REMARK    2  A    between atoms: N_8  and  C_9 
REMARK    3  A    between atoms: C_13  and  C_14 
ROOT
HETATM    1  C   UNL     1      41.703 -12.201   3.455  1.00  0.00     0.036 A 
HETATM    2  C   UNL     1      41.170 -13.488   3.408  1.00  0.00     0.054 A 
HETATM    3  C   UNL     1      40.469 -13.942   2.274  1.00  0.00     0.050 A 
HETATM    4 CL   UNL     1      39.789 -15.532   2.393  1.00  0.00    -0.083 Cl
HETATM    5  C   UNL     1      40.301 -13.108   1.157  1.00  0.00     0.035 A 
HETATM    6  C   UNL     1      40.861 -11.819   1.211  1.00  0.00     0.019 A 
HETATM    7  C   UNL     1      41.552 -11.372   2.342  1.00  0.00     0.030 A 
ENDROOT
BRANCH   1   8
HETATM    8  N   UNL     1      42.356 -11.650   4.577  1.00  0.00    -0.323 N 
HETATM    9  C   UNL     1      43.700 -11.385   4.733  1.00  0.00     0.261 C 
HETATM   10  O   UNL     1      44.554 -11.485   3.855  1.00  0.00    -0.267 OA
HETATM   11  H   UNL     1      41.763 -11.474   5.390  1.00  0.00     0.169 HD
BRANCH   9  12
HETATM   12  C   UNL     1      44.095 -10.962   6.116  1.00  0.00     0.100 A 
HETATM   13  C   UNL     1      43.164 -10.313   7.087  1.00  0.00     0.261 A 
HETATM   14  N   UNL     1      43.666 -10.039   8.339  1.00  0.00    -0.327 N 
HETATM   15  O   UNL     1      42.003 -10.038   6.790  1.00  0.00    -0.267 OA
HETATM   16  C   UNL     1      44.953 -10.314   8.737  1.00  0.00     0.008 A 
HETATM   17  H   UNL     1      43.018  -9.605   8.986  1.00  0.00     0.169 HD
HETATM   18  C   UNL     1      45.325  -9.962  10.144  1.00  0.00     0.068 C 
HETATM   19  C   UNL     1      45.798 -10.881   7.864  1.00  0.00     0.026 A 
HETATM   20  C   UNL     1      45.353 -11.211   6.527  1.00  0.00     0.025 A 
ENDBRANCH   9  12
ENDBRANCH   1   8
BRANCH   5  21
HETATM   21  C   UNL     1      39.556 -13.491  -0.040  1.00  0.00     0.183 A 
HETATM   22  N   UNL     1      39.645 -14.710  -0.603  1.00  0.00    -0.152 NA
HETATM   23  N   UNL     1      38.827 -14.598  -1.657  1.00  0.00    -0.263 N 
HETATM   24  H   UNL     1      38.717 -15.384  -2.288  1.00  0.00     0.190 HD
HETATM   25  C   UNL     1      38.247 -13.367  -1.710  1.00  0.00     0.118 A 
HETATM   26  C   UNL     1      37.310 -12.949  -2.773  1.00  0.00     0.093 C 
HETATM   27  N   UNL     1      38.670 -12.660  -0.688  1.00  0.00    -0.212 NA
ENDBRANCH   5  21
TORSDOF 3
ENDMDL
