MODEL 1
REMARK VINA RESULT:      -8.0      0.000      0.000
REMARK  4 active torsions:
REMARK  status: ('A' for Active; 'I' for Inactive)
REMARK    1  A    between atoms: O_2  and  C_3 
REMARK    2  A    between atoms: C_5  and  N_6 
REMARK    3  A    between atoms: C_10  and  C_11 
REMARK    4  A    between atoms: C_22  and  O_23 
ROOT
HETATM    1  N   UNL     1      42.568 -14.053   2.968  1.00  0.00    -0.315 N 
HETATM    2  C   UNL     1      41.291 -14.508   2.623  1.00  0.00     0.225 C 
HETATM    3  O   UNL     1      40.208 -14.160   3.071  1.00  0.00    -0.273 OA
HETATM    4  C   UNL     1      41.431 -15.427   1.432  1.00  0.00     0.117 C 
HETATM    5  C   UNL     1      42.901 -15.836   1.460  1.00  0.00     0.082 C 
HETATM    6  C   UNL     1      43.578 -14.637   2.117  1.00  0.00     0.145 C 
ENDROOT
BRANCH   1   7
HETATM    7  C   UNL     1      42.868 -13.145   4.021  1.00  0.00     0.073 A 
HETATM    8  C   UNL     1      43.032 -13.633   5.328  1.00  0.00     0.069 A 
HETATM    9  C   UNL     1      43.401 -12.795   6.387  1.00  0.00     0.070 A 
HETATM   10  C   UNL     1      43.564 -11.432   6.158  1.00  0.00     0.039 A 
HETATM   11  C   UNL     1      43.383 -10.918   4.874  1.00  0.00     0.042 A 
HETATM   12  C   UNL     1      43.027 -11.760   3.810  1.00  0.00     0.095 A 
BRANCH   9  13
HETATM   13  O   UNL     1      43.574 -13.423   7.590  1.00  0.00    -0.356 OA
HETATM   14  C   UNL     1      43.153 -14.778   7.666  1.00  0.00     0.210 C 
ENDBRANCH   9  13
BRANCH  12  15
HETATM   15  O   UNL     1      42.828 -11.234   2.557  1.00  0.00    -0.354 OA
HETATM   16  C   UNL     1      41.607 -10.501   2.442  1.00  0.00     0.210 C 
ENDBRANCH  12  15
ENDBRANCH   1   7
BRANCH   5  17
HETATM   17  C   UNL     1      43.078 -17.115   2.222  1.00  0.00     0.111 A 
HETATM   18  N   UNL     1      43.021 -18.338   1.735  1.00  0.00    -0.233 NA
HETATM   19  C   UNL     1      43.407 -19.169   2.757  1.00  0.00     0.085 A 
HETATM   20  C   UNL     1      43.677 -18.442   3.909  1.00  0.00     0.062 A 
HETATM   21  C   UNL     1      43.572 -20.562   2.769  1.00  0.00     0.034 A 
HETATM   22  N   UNL     1      43.433 -17.141   3.551  1.00  0.00    -0.342 N 
HETATM   23  C   UNL     1      44.114 -19.027   5.101  1.00  0.00     0.032 A 
HETATM   24  H   UNL     1      43.555 -16.337   4.149  1.00  0.00     0.167 HD
HETATM   25  C   UNL     1      44.282 -20.417   5.092  1.00  0.00     0.002 A 
HETATM   26  C   UNL     1      44.016 -21.175   3.948  1.00  0.00     0.002 A 
ENDBRANCH   5  17
TORSDOF 4
ENDMDL
MODEL 2
REMARK VINA RESULT:      -8.0      1.981      3.162
REMARK  4 active torsions:
REMARK  status: ('A' for Active; 'I' for Inactive)
REMARK    1  A    between atoms: O_2  and  C_3 
REMARK    2  A    between atoms: C_5  and  N_6 
REMARK    3  A    between atoms: C_10  and  C_11 
REMARK    4  A    between atoms: C_22  and  O_23 
ROOT
HETATM    1  N   UNL     1      41.635 -14.145   3.060  1.00  0.00    -0.315 N 
HETATM    2  C   UNL     1      40.966 -14.746   1.989  1.00  0.00     0.225 C 
HETATM    3  O   UNL     1      39.775 -14.712   1.714  1.00  0.00    -0.273 OA
HETATM    4  C   UNL     1      42.005 -15.345   1.070  1.00  0.00     0.117 C 
HETATM    5  C   UNL     1      43.243 -15.467   1.952  1.00  0.00     0.082 C 
HETATM    6  C   UNL     1      43.063 -14.332   2.956  1.00  0.00     0.145 C 
ENDROOT
BRANCH   1   7
HETATM    7  C   UNL     1      41.018 -13.445   4.134  1.00  0.00     0.073 A 
HETATM    8  C   UNL     1      40.739 -12.075   3.996  1.00  0.00     0.069 A 
HETATM    9  C   UNL     1      40.068 -11.355   4.991  1.00  0.00     0.070 A 
HETATM   10  C   UNL     1      39.708 -11.993   6.173  1.00  0.00     0.039 A 
HETATM   11  C   UNL     1      39.995 -13.347   6.347  1.00  0.00     0.042 A 
HETATM   12  C   UNL     1      40.655 -14.072   5.344  1.00  0.00     0.095 A 
BRANCH   9  13
HETATM   13  O   UNL     1      39.819 -10.044   4.691  1.00  0.00    -0.356 OA
HETATM   14  C   UNL     1      38.454  -9.670   4.561  1.00  0.00     0.210 C 
ENDBRANCH   9  13
BRANCH  12  15
HETATM   15  O   UNL     1      40.955 -15.398   5.541  1.00  0.00    -0.354 OA
HETATM   16  C   UNL     1      41.617 -15.647   6.782  1.00  0.00     0.210 C 
ENDBRANCH  12  15
ENDBRANCH   1   7
BRANCH   5  17
HETATM   17  C   UNL     1      43.306 -16.824   2.588  1.00  0.00     0.111 A 
HETATM   18  N   UNL     1      43.302 -17.986   1.968  1.00  0.00    -0.233 NA
HETATM   19  C   UNL     1      43.542 -18.930   2.935  1.00  0.00     0.085 A 
HETATM   20  C   UNL     1      43.666 -18.336   4.184  1.00  0.00     0.062 A 
HETATM   21  C   UNL     1      43.690 -20.320   2.818  1.00  0.00     0.034 A 
HETATM   22  N   UNL     1      43.484 -16.999   3.941  1.00  0.00    -0.342 N 
HETATM   23  C   UNL     1      43.937 -19.054   5.352  1.00  0.00     0.032 A 
HETATM   24  H   UNL     1      43.535 -16.265   4.633  1.00  0.00     0.167 HD
HETATM   25  C   UNL     1      44.090 -20.439   5.215  1.00  0.00     0.002 A 
HETATM   26  C   UNL     1      43.970 -21.065   3.971  1.00  0.00     0.002 A 
ENDBRANCH   5  17
TORSDOF 4
ENDMDL
MODEL 3
REMARK VINA RESULT:      -8.0      2.999      6.660
REMARK  4 active torsions:
REMARK  status: ('A' for Active; 'I' for Inactive)
REMARK    1  A    between atoms: O_2  and  C_3 
REMARK    2  A    between atoms: C_5  and  N_6 
REMARK    3  A    between atoms: C_10  and  C_11 
REMARK    4  A    between atoms: C_22  and  O_23 
ROOT
HETATM    1  N   UNL     1      42.279 -14.440   3.494  1.00  0.00    -0.315 N 
HETATM    2  C   UNL     1      41.172 -13.860   4.121  1.00  0.00     0.225 C 
HETATM    3  O   UNL     1      40.501 -14.296   5.045  1.00  0.00    -0.273 OA
HETATM    4  C   UNL     1      41.009 -12.461   3.575  1.00  0.00     0.117 C 
HETATM    5  C   UNL     1      41.785 -12.492   2.261  1.00  0.00     0.082 C 
HETATM    6  C   UNL     1      42.859 -13.544   2.521  1.00  0.00     0.145 C 
ENDROOT
BRANCH   1   7
HETATM    7  C   UNL     1      42.787 -15.745   3.749  1.00  0.00     0.073 A 
HETATM    8  C   UNL     1      42.601 -16.757   2.793  1.00  0.00     0.069 A 
HETATM    9  C   UNL     1      43.144 -18.037   2.959  1.00  0.00     0.070 A 
HETATM   10  C   UNL     1      43.846 -18.338   4.121  1.00  0.00     0.039 A 
HETATM   11  C   UNL     1      44.024 -17.358   5.098  1.00  0.00     0.042 A 
HETATM   12  C   UNL     1      43.492 -16.072   4.925  1.00  0.00     0.095 A 
BRANCH   9  13
HETATM   13  O   UNL     1      42.925 -18.899   1.919  1.00  0.00    -0.356 OA
HETATM   14  C   UNL     1      43.401 -20.229   2.086  1.00  0.00     0.210 C 
ENDBRANCH   9  13
BRANCH  12  15
HETATM   15  O   UNL     1      43.654 -15.125   5.908  1.00  0.00    -0.354 OA
HETATM   16  C   UNL     1      43.076 -15.508   7.158  1.00  0.00     0.210 C 
ENDBRANCH  12  15
ENDBRANCH   1   7
BRANCH   5  17
HETATM   17  C   UNL     1      40.875 -12.834   1.119  1.00  0.00     0.111 A 
HETATM   18  N   UNL     1      39.676 -12.339   0.891  1.00  0.00    -0.233 NA
HETATM   19  C   UNL     1      39.302 -12.814  -0.342  1.00  0.00     0.085 A 
HETATM   20  C   UNL     1      40.281 -13.645  -0.869  1.00  0.00     0.062 A 
HETATM   21  C   UNL     1      38.143 -12.558  -1.089  1.00  0.00     0.034 A 
HETATM   22  N   UNL     1      41.259 -13.665   0.092  1.00  0.00    -0.342 N 
HETATM   23  C   UNL     1      40.179 -14.252  -2.124  1.00  0.00     0.032 A 
HETATM   24  H   UNL     1      42.138 -14.158   0.023  1.00  0.00     0.167 HD
HETATM   25  C   UNL     1      39.019 -13.979  -2.859  1.00  0.00     0.002 A 
HETATM   26  C   UNL     1      38.016 -13.147  -2.354  1.00  0.00     0.002 A 
ENDBRANCH   5  17
TORSDOF 4
ENDMDL
MODEL 4
REMARK VINA RESULT:      -7.8      2.236      4.179
REMARK  4 active torsions:
REMARK  status: ('A' for Active; 'I' for Inactive)
REMARK    1  A    between atoms: O_2  and  C_3 
REMARK    2  A    between atoms: C_5  and  N_6 
REMARK    3  A    between atoms: C_10  and  C_11 
REMARK    4  A    between atoms: C_22  and  O_23 
ROOT
HETATM    1  N   UNL     1      41.691 -14.450   5.968  1.00  0.00    -0.315 N 
HETATM    2  C   UNL     1      43.037 -14.169   6.226  1.00  0.00     0.225 C 
HETATM    3  O   UNL     1      43.692 -13.193   5.892  1.00  0.00    -0.273 OA
HETATM    4  C   UNL     1      43.559 -15.225   7.172  1.00  0.00     0.117 C 
HETATM    5  C   UNL     1      42.564 -16.372   7.021  1.00  0.00     0.082 C 
HETATM    6  C   UNL     1      41.270 -15.657   6.642  1.00  0.00     0.145 C 
ENDROOT
BRANCH   1   7
HETATM    7  C   UNL     1      40.826 -13.677   5.145  1.00  0.00     0.073 A 
HETATM    8  C   UNL     1      40.151 -12.576   5.695  1.00  0.00     0.069 A 
HETATM    9  C   UNL     1      39.346 -11.738   4.913  1.00  0.00     0.070 A 
HETATM   10  C   UNL     1      39.165 -12.025   3.564  1.00  0.00     0.039 A 
HETATM   11  C   UNL     1      39.804 -13.128   2.998  1.00  0.00     0.042 A 
HETATM   12  C   UNL     1      40.621 -13.959   3.778  1.00  0.00     0.095 A 
BRANCH   9  13
HETATM   13  O   UNL     1      38.798 -10.675   5.578  1.00  0.00    -0.356 OA
HETATM   14  C   UNL     1      38.419  -9.558   4.785  1.00  0.00     0.210 C 
ENDBRANCH   9  13
BRANCH  12  15
HETATM   15  O   UNL     1      41.223 -15.057   3.212  1.00  0.00    -0.354 OA
HETATM   16  C   UNL     1      40.349 -15.801   2.361  1.00  0.00     0.210 C 
ENDBRANCH  12  15
ENDBRANCH   1   7
BRANCH   5  17
HETATM   17  C   UNL     1      43.035 -17.346   5.983  1.00  0.00     0.111 A 
HETATM   18  N   UNL     1      43.506 -18.558   6.195  1.00  0.00    -0.233 NA
HETATM   19  C   UNL     1      43.648 -19.129   4.955  1.00  0.00     0.085 A 
HETATM   20  C   UNL     1      43.285 -18.236   3.956  1.00  0.00     0.062 A 
HETATM   21  C   UNL     1      44.063 -20.422   4.603  1.00  0.00     0.034 A 
HETATM   22  N   UNL     1      42.926 -17.100   4.634  1.00  0.00    -0.342 N 
HETATM   23  C   UNL     1      43.307 -18.556   2.595  1.00  0.00     0.032 A 
HETATM   24  H   UNL     1      42.581 -16.250   4.211  1.00  0.00     0.167 HD
HETATM   25  C   UNL     1      43.715 -19.853   2.263  1.00  0.00     0.002 A 
HETATM   26  C   UNL     1      44.088 -20.773   3.247  1.00  0.00     0.002 A 
ENDBRANCH   5  17
TORSDOF 4
ENDMDL
MODEL 5
REMARK VINA RESULT:      -7.6      2.755      5.920
REMARK  4 active torsions:
REMARK  status: ('A' for Active; 'I' for Inactive)
REMARK    1  A    between atoms: O_2  and  C_3 
REMARK    2  A    between atoms: C_5  and  N_6 
REMARK    3  A    between atoms: C_10  and  C_11 
REMARK    4  A    between atoms: C_22  and  O_23 
ROOT
HETATM    1  N   UNL     1      41.898 -15.074   3.769  1.00  0.00    -0.315 N 
HETATM    2  C   UNL     1      42.445 -16.046   2.925  1.00  0.00     0.225 C 
HETATM    3  O   UNL     1      43.603 -16.430   2.850  1.00  0.00    -0.273 OA
HETATM    4  C   UNL     1      41.308 -16.712   2.186  1.00  0.00     0.117 C 
HETATM    5  C   UNL     1      40.161 -15.714   2.308  1.00  0.00     0.082 C 
HETATM    6  C   UNL     1      40.463 -15.002   3.623  1.00  0.00     0.145 C 
ENDROOT
BRANCH   1   7
HETATM    7  C   UNL     1      42.632 -14.239   4.657  1.00  0.00     0.073 A 
HETATM    8  C   UNL     1      42.835 -12.889   4.327  1.00  0.00     0.069 A 
HETATM    9  C   UNL     1      43.485 -12.006   5.198  1.00  0.00     0.070 A 
HETATM   10  C   UNL     1      43.991 -12.482   6.404  1.00  0.00     0.039 A 
HETATM   11  C   UNL     1      43.825 -13.824   6.745  1.00  0.00     0.042 A 
HETATM   12  C   UNL     1      43.161 -14.705   5.878  1.00  0.00     0.095 A 
BRANCH   9  13
HETATM   13  O   UNL     1      43.559 -10.711   4.763  1.00  0.00    -0.356 OA
HETATM   14  C   UNL     1      42.329 -10.083   4.426  1.00  0.00     0.210 C 
ENDBRANCH   9  13
BRANCH  12  15
HETATM   15  O   UNL     1      43.029 -16.030   6.216  1.00  0.00    -0.354 OA
HETATM   16  C   UNL     1      44.282 -16.700   6.366  1.00  0.00     0.210 C 
ENDBRANCH  12  15
ENDBRANCH   1   7
BRANCH   5  17
HETATM   17  C   UNL     1      40.134 -14.796   1.123  1.00  0.00     0.111 A 
HETATM   18  N   UNL     1      40.627 -13.576   1.058  1.00  0.00    -0.233 NA
HETATM   19  C   UNL     1      40.521 -13.195  -0.257  1.00  0.00     0.085 A 
HETATM   20  C   UNL     1      39.919 -14.193  -1.012  1.00  0.00     0.062 A 
HETATM   21  C   UNL     1      40.938 -12.014  -0.887  1.00  0.00     0.034 A 
HETATM   22  N   UNL     1      39.657 -15.189  -0.107  1.00  0.00    -0.342 N 
HETATM   23  C   UNL     1      39.704 -14.089  -2.389  1.00  0.00     0.032 A 
HETATM   24  H   UNL     1      39.241 -16.083  -0.324  1.00  0.00     0.167 HD
HETATM   25  C   UNL     1      40.135 -12.907  -3.003  1.00  0.00     0.002 A 
HETATM   26  C   UNL     1      40.742 -11.885  -2.268  1.00  0.00     0.002 A 
ENDBRANCH   5  17
TORSDOF 4
ENDMDL
MODEL 6
REMARK VINA RESULT:      -7.6      2.054      3.340
REMARK  4 active torsions:
REMARK  status: ('A' for Active; 'I' for Inactive)
REMARK    1  A    between atoms: O_2  and  C_3 
REMARK    2  A    between atoms: C_5  and  N_6 
REMARK    3  A    between atoms: C_10  and  C_11 
REMARK    4  A    between atoms: C_22  and  O_23 
ROOT
HETATM    1  N   UNL     1      41.659 -12.593   4.865  1.00  0.00    -0.315 N 
HETATM    2  C   UNL     1      40.413 -13.193   5.072  1.00  0.00     0.225 C 
HETATM    3  O   UNL     1      39.712 -13.175   6.073  1.00  0.00    -0.273 OA
HETATM    4  C   UNL     1      39.949 -13.767   3.754  1.00  0.00     0.117 C 
HETATM    5  C   UNL     1      41.232 -13.879   2.935  1.00  0.00     0.082 C 
HETATM    6  C   UNL     1      42.098 -12.757   3.499  1.00  0.00     0.145 C 
ENDROOT
BRANCH   1   7
HETATM    7  C   UNL     1      42.426 -11.913   5.852  1.00  0.00     0.073 A 
HETATM    8  C   UNL     1      42.206 -10.543   6.074  1.00  0.00     0.069 A 
HETATM    9  C   UNL     1      42.880  -9.842   7.082  1.00  0.00     0.070 A 
HETATM   10  C   UNL     1      43.830 -10.500   7.857  1.00  0.00     0.039 A 
HETATM   11  C   UNL     1      44.085 -11.854   7.641  1.00  0.00     0.042 A 
HETATM   12  C   UNL     1      43.400 -12.559   6.640  1.00  0.00     0.095 A 
BRANCH   9  13
HETATM   13  O   UNL     1      42.522  -8.528   7.214  1.00  0.00    -0.356 OA
HETATM   14  C   UNL     1      42.877  -7.892   8.434  1.00  0.00     0.210 C 
ENDBRANCH   9  13
BRANCH  12  15
HETATM   15  O   UNL     1      43.682 -13.887   6.421  1.00  0.00    -0.354 OA
HETATM   16  C   UNL     1      43.109 -14.752   7.404  1.00  0.00     0.210 C 
ENDBRANCH  12  15
ENDBRANCH   1   7
BRANCH   5  17
HETATM   17  C   UNL     1      41.840 -15.241   3.091  1.00  0.00     0.111 A 
HETATM   18  N   UNL     1      41.721 -16.257   2.262  1.00  0.00    -0.233 NA
HETATM   19  C   UNL     1      42.576 -17.225   2.727  1.00  0.00     0.085 A 
HETATM   20  C   UNL     1      43.212 -16.805   3.888  1.00  0.00     0.062 A 
HETATM   21  C   UNL     1      42.880 -18.487   2.195  1.00  0.00     0.034 A 
HETATM   22  N   UNL     1      42.706 -15.551   4.115  1.00  0.00    -0.342 N 
HETATM   23  C   UNL     1      44.156 -17.579   4.569  1.00  0.00     0.032 A 
HETATM   24  H   UNL     1      42.973 -14.940   4.872  1.00  0.00     0.167 HD
HETATM   25  C   UNL     1      44.453 -18.831   4.019  1.00  0.00     0.002 A 
HETATM   26  C   UNL     1      43.829 -19.281   2.853  1.00  0.00     0.002 A 
ENDBRANCH   5  17
TORSDOF 4
ENDMDL
MODEL 7
REMARK VINA RESULT:      -7.5      5.310      8.274
REMARK  4 active torsions:
REMARK  status: ('A' for Active; 'I' for Inactive)
REMARK    1  A    between atoms: O_2  and  C_3 
REMARK    2  A    between atoms: C_5  and  N_6 
REMARK    3  A    between atoms: C_10  and  C_11 
REMARK    4  A    between atoms: C_22  and  O_23 
ROOT
HETATM    1  N   UNL     1      44.431  -9.191   9.806  1.00  0.00    -0.315 N 
HETATM    2  C   UNL     1      44.943  -8.375   8.792  1.00  0.00     0.225 C 
HETATM    3  O   UNL     1      44.651  -7.220   8.519  1.00  0.00    -0.273 OA
HETATM    4  C   UNL     1      46.093  -9.108   8.142  1.00  0.00     0.117 C 
HETATM    5  C   UNL     1      45.859 -10.566   8.528  1.00  0.00     0.082 C 
HETATM    6  C   UNL     1      45.129 -10.454   9.863  1.00  0.00     0.145 C 
ENDROOT
BRANCH   1   7
HETATM    7  C   UNL     1      43.356  -8.856  10.677  1.00  0.00     0.073 A 
HETATM    8  C   UNL     1      43.635  -8.434  11.987  1.00  0.00     0.069 A 
HETATM    9  C   UNL     1      42.622  -8.022  12.861  1.00  0.00     0.070 A 
HETATM   10  C   UNL     1      41.295  -8.076  12.445  1.00  0.00     0.039 A 
HETATM   11  C   UNL     1      40.989  -8.515  11.157  1.00  0.00     0.042 A 
HETATM   12  C   UNL     1      42.006  -8.914  10.277  1.00  0.00     0.095 A 
BRANCH   9  13
HETATM   13  O   UNL     1      43.052  -7.588  14.084  1.00  0.00    -0.356 OA
HETATM   14  C   UNL     1      42.077  -7.534  15.118  1.00  0.00     0.210 C 
ENDBRANCH   9  13
BRANCH  12  15
HETATM   15  O   UNL     1      41.686  -9.369   9.020  1.00  0.00    -0.354 OA
HETATM   16  C   UNL     1      41.147  -8.351   8.174  1.00  0.00     0.210 C 
ENDBRANCH  12  15
ENDBRANCH   1   7
BRANCH   5  17
HETATM   17  C   UNL     1      45.067 -11.272   7.469  1.00  0.00     0.111 A 
HETATM   18  N   UNL     1      44.093 -12.137   7.659  1.00  0.00    -0.233 NA
HETATM   19  C   UNL     1      43.561 -12.384   6.417  1.00  0.00     0.085 A 
HETATM   20  C   UNL     1      44.246 -11.677   5.438  1.00  0.00     0.062 A 
HETATM   21  C   UNL     1      42.473 -13.189   6.050  1.00  0.00     0.034 A 
HETATM   22  N   UNL     1      45.217 -10.999   6.129  1.00  0.00    -0.342 N 
HETATM   23  C   UNL     1      43.907 -11.718   4.083  1.00  0.00     0.032 A 
HETATM   24  H   UNL     1      45.886 -10.360   5.724  1.00  0.00     0.167 HD
HETATM   25  C   UNL     1      42.812 -12.520   3.735  1.00  0.00     0.002 A 
HETATM   26  C   UNL     1      42.105 -13.244   4.699  1.00  0.00     0.002 A 
ENDBRANCH   5  17
TORSDOF 4
ENDMDL
MODEL 8
REMARK VINA RESULT:      -7.4      2.734      5.443
REMARK  4 active torsions:
REMARK  status: ('A' for Active; 'I' for Inactive)
REMARK    1  A    between atoms: O_2  and  C_3 
REMARK    2  A    between atoms: C_5  and  N_6 
REMARK    3  A    between atoms: C_10  and  C_11 
REMARK    4  A    between atoms: C_22  and  O_23 
ROOT
HETATM    1  N   UNL     1      41.677 -14.822   3.578  1.00  0.00    -0.315 N 
HETATM    2  C   UNL     1      42.188 -15.902   2.851  1.00  0.00     0.225 C 
HETATM    3  O   UNL     1      43.293 -16.420   2.925  1.00  0.00    -0.273 OA
HETATM    4  C   UNL     1      41.063 -16.480   2.025  1.00  0.00     0.117 C 
HETATM    5  C   UNL     1      40.039 -15.351   1.966  1.00  0.00     0.082 C 
HETATM    6  C   UNL     1      40.285 -14.596   3.269  1.00  0.00     0.145 C 
ENDROOT
BRANCH   1   7
HETATM    7  C   UNL     1      42.409 -14.022   4.499  1.00  0.00     0.073 A 
HETATM    8  C   UNL     1      42.547 -14.452   5.829  1.00  0.00     0.069 A 
HETATM    9  C   UNL     1      43.318 -13.742   6.758  1.00  0.00     0.070 A 
HETATM   10  C   UNL     1      43.927 -12.551   6.374  1.00  0.00     0.039 A 
HETATM   11  C   UNL     1      43.786 -12.089   5.066  1.00  0.00     0.042 A 
HETATM   12  C   UNL     1      43.025 -12.808   4.133  1.00  0.00     0.095 A 
BRANCH   9  13
HETATM   13  O   UNL     1      43.403 -14.312   7.998  1.00  0.00    -0.356 OA
HETATM   14  C   UNL     1      43.106 -15.700   8.081  1.00  0.00     0.210 C 
ENDBRANCH   9  13
BRANCH  12  15
HETATM   15  O   UNL     1      42.874 -12.326   2.855  1.00  0.00    -0.354 OA
HETATM   16  C   UNL     1      42.470 -10.956   2.815  1.00  0.00     0.210 C 
ENDBRANCH  12  15
ENDBRANCH   1   7
BRANCH   5  17
HETATM   17  C   UNL     1      40.247 -14.513   0.740  1.00  0.00     0.111 A 
HETATM   18  N   UNL     1      39.870 -14.804  -0.488  1.00  0.00    -0.233 NA
HETATM   19  C   UNL     1      40.121 -13.681  -1.235  1.00  0.00     0.085 A 
HETATM   20  C   UNL     1      40.695 -12.686  -0.454  1.00  0.00     0.062 A 
HETATM   21  C   UNL     1      39.864 -13.427  -2.591  1.00  0.00     0.034 A 
HETATM   22  N   UNL     1      40.791 -13.250   0.792  1.00  0.00    -0.342 N 
HETATM   23  C   UNL     1      41.035 -11.423  -0.947  1.00  0.00     0.032 A 
HETATM   24  H   UNL     1      41.144 -12.788   1.618  1.00  0.00     0.167 HD
HETATM   25  C   UNL     1      40.763 -11.185  -2.300  1.00  0.00     0.002 A 
HETATM   26  C   UNL     1      40.188 -12.167  -3.111  1.00  0.00     0.002 A 
ENDBRANCH   5  17
TORSDOF 4
ENDMDL
MODEL 9
REMARK VINA RESULT:      -7.4      2.670      5.172
REMARK  4 active torsions:
REMARK  status: ('A' for Active; 'I' for Inactive)
REMARK    1  A    between atoms: O_2  and  C_3 
REMARK    2  A    between atoms: C_5  and  N_6 
REMARK    3  A    between atoms: C_10  and  C_11 
REMARK    4  A    between atoms: C_22  and  O_23 
ROOT
HETATM    1  N   UNL     1      40.732 -12.597   2.715  1.00  0.00    -0.315 N 
HETATM    2  C   UNL     1      41.967 -12.002   2.991  1.00  0.00     0.225 C 
HETATM    3  O   UNL     1      42.595 -11.196   2.319  1.00  0.00    -0.273 OA
HETATM    4  C   UNL     1      42.367 -12.391   4.394  1.00  0.00     0.117 C 
HETATM    5  C   UNL     1      41.522 -13.629   4.683  1.00  0.00     0.082 C 
HETATM    6  C   UNL     1      40.281 -13.405   3.824  1.00  0.00     0.145 C 
ENDROOT
BRANCH   1   7
HETATM    7  C   UNL     1      39.995 -12.456   1.506  1.00  0.00     0.073 A 
HETATM    8  C   UNL     1      40.312 -13.269   0.405  1.00  0.00     0.069 A 
HETATM    9  C   UNL     1      39.572 -13.224  -0.783  1.00  0.00     0.070 A 
HETATM   10  C   UNL     1      38.523 -12.318  -0.902  1.00  0.00     0.039 A 
HETATM   11  C   UNL     1      38.203 -11.481   0.167  1.00  0.00     0.042 A 
HETATM   12  C   UNL     1      38.936 -11.536   1.361  1.00  0.00     0.095 A 
BRANCH   9  13
HETATM   13  O   UNL     1      39.966 -14.113  -1.746  1.00  0.00    -0.356 OA
HETATM   14  C   UNL     1      38.935 -14.858  -2.382  1.00  0.00     0.210 C 
ENDBRANCH   9  13
BRANCH  12  15
HETATM   15  O   UNL     1      38.625 -10.687   2.396  1.00  0.00    -0.354 OA
HETATM   16  C   UNL     1      39.161  -9.374   2.226  1.00  0.00     0.210 C 
ENDBRANCH  12  15
ENDBRANCH   1   7
BRANCH   5  17
HETATM   17  C   UNL     1      42.276 -14.876   4.331  1.00  0.00     0.111 A 
HETATM   18  N   UNL     1      43.181 -15.485   5.070  1.00  0.00    -0.233 NA
HETATM   19  C   UNL     1      43.468 -16.660   4.420  1.00  0.00     0.085 A 
HETATM   20  C   UNL     1      42.746 -16.760   3.239  1.00  0.00     0.062 A 
HETATM   21  C   UNL     1      44.324 -17.707   4.793  1.00  0.00     0.034 A 
HETATM   22  N   UNL     1      42.016 -15.600   3.190  1.00  0.00    -0.342 N 
HETATM   23  C   UNL     1      42.821 -17.864   2.385  1.00  0.00     0.032 A 
HETATM   24  H   UNL     1      41.355 -15.354   2.468  1.00  0.00     0.167 HD
HETATM   25  C   UNL     1      43.674 -18.903   2.777  1.00  0.00     0.002 A 
HETATM   26  C   UNL     1      44.414 -18.829   3.960  1.00  0.00     0.002 A 
ENDBRANCH   5  17
TORSDOF 4
ENDMDL
MODEL 10
REMARK VINA RESULT:      -7.3      2.279      3.193
REMARK  4 active torsions:
REMARK  status: ('A' for Active; 'I' for Inactive)
REMARK    1  A    between atoms: O_2  and  C_3 
REMARK    2  A    between atoms: C_5  and  N_6 
REMARK    3  A    between atoms: C_10  and  C_11 
REMARK    4  A    between atoms: C_22  and  O_23 
ROOT
HETATM    1  N   UNL     1      41.382 -12.240   4.852  1.00  0.00    -0.315 N 
HETATM    2  C   UNL     1      40.257 -13.056   5.010  1.00  0.00     0.225 C 
HETATM    3  O   UNL     1      39.519 -13.161   5.978  1.00  0.00    -0.273 OA
HETATM    4  C   UNL     1      39.967 -13.709   3.679  1.00  0.00     0.117 C 
HETATM    5  C   UNL     1      41.285 -13.589   2.920  1.00  0.00     0.082 C 
HETATM    6  C   UNL     1      41.907 -12.326   3.509  1.00  0.00     0.145 C 
ENDROOT
BRANCH   1   7
HETATM    7  C   UNL     1      41.966 -11.428   5.864  1.00  0.00     0.073 A 
HETATM    8  C   UNL     1      43.165 -11.837   6.471  1.00  0.00     0.069 A 
HETATM    9  C   UNL     1      43.821 -11.041   7.418  1.00  0.00     0.070 A 
HETATM   10  C   UNL     1      43.252  -9.834   7.811  1.00  0.00     0.039 A 
HETATM   11  C   UNL     1      42.050  -9.415   7.241  1.00  0.00     0.042 A 
HETATM   12  C   UNL     1      41.400 -10.206   6.283  1.00  0.00     0.095 A 
BRANCH   9  13
HETATM   13  O   UNL     1      45.005 -11.547   7.881  1.00  0.00    -0.356 OA
HETATM   14  C   UNL     1      46.164 -10.753   7.663  1.00  0.00     0.210 C 
ENDBRANCH   9  13
BRANCH  12  15
HETATM   15  O   UNL     1      40.203  -9.793   5.750  1.00  0.00    -0.354 OA
HETATM   16  C   UNL     1      39.163  -9.680   6.724  1.00  0.00     0.210 C 
ENDBRANCH  12  15
ENDBRANCH   1   7
BRANCH   5  17
HETATM   17  C   UNL     1      42.122 -14.817   3.120  1.00  0.00     0.111 A 
HETATM   18  N   UNL     1      42.892 -15.087   4.153  1.00  0.00    -0.233 NA
HETATM   19  C   UNL     1      43.322 -16.379   3.975  1.00  0.00     0.085 A 
HETATM   20  C   UNL     1      42.828 -16.904   2.788  1.00  0.00     0.062 A 
HETATM   21  C   UNL     1      44.122 -17.182   4.801  1.00  0.00     0.034 A 
HETATM   22  N   UNL     1      42.091 -15.882   2.248  1.00  0.00    -0.342 N 
HETATM   23  C   UNL     1      43.085 -18.210   2.361  1.00  0.00     0.032 A 
HETATM   24  H   UNL     1      41.566 -15.930   1.387  1.00  0.00     0.167 HD
HETATM   25  C   UNL     1      43.878 -19.000   3.203  1.00  0.00     0.002 A 
HETATM   26  C   UNL     1      44.390 -18.498   4.402  1.00  0.00     0.002 A 
ENDBRANCH   5  17
TORSDOF 4
ENDMDL
