MODEL 1
REMARK VINA RESULT:      -9.9      0.000      0.000
REMARK  8 active torsions:
REMARK  status: ('A' for Active; 'I' for Inactive)
REMARK    1  A    between atoms: C_3  and  N_4 
REMARK       I    between atoms: N_4  and  C_5 
REMARK    2  A    between atoms: C_5  and  C_6 
REMARK    3  A    between atoms: C_6  and  N_7 
REMARK    4  A    between atoms: N_10  and  C_11 
REMARK    5  A    between atoms: C_11  and  C_12 
REMARK    6  A    between atoms: C_12  and  C_13 
REMARK       I    between atoms: C_13  and  N_14 
REMARK    7  A    between atoms: N_14  and  C_15 
REMARK    8  A    between atoms: C_15  and  C_16 
ROOT
HETATM    1  N   UNL     1      42.343 -13.076   4.557  1.00  0.00    -0.289 N 
HETATM    2  C   UNL     1      43.228 -12.937   5.628  1.00  0.00     0.332 C 
HETATM    3  O   UNL     1      44.167 -13.732   5.753  1.00  0.00    -0.246 OA
HETATM    4  N   UNL     1      43.014 -11.883   6.533  1.00  0.00    -0.265 N 
HETATM    5  C   UNL     1      41.989 -10.935   6.397  1.00  0.00     0.271 C 
HETATM    6  O   UNL     1      41.907  -9.915   7.079  1.00  0.00    -0.266 OA
HETATM    7  C   UNL     1      41.040 -11.255   5.368  1.00  0.00     0.100 A 
HETATM    8  C   UNL     1      41.203 -12.284   4.482  1.00  0.00     0.062 A 
HETATM    9  S   UNL     1      39.614 -10.370   5.105  1.00  0.00    -0.094 SA
HETATM   10  C   UNL     1      39.173 -11.384   3.797  1.00  0.00     0.053 A 
HETATM   11  C   UNL     1      40.114 -12.367   3.566  1.00  0.00     0.038 A 
ENDROOT
BRANCH   4  12
HETATM   12  C   UNL     1      44.059 -11.739   7.564  1.00  0.00     0.146 C 
BRANCH  12  13
HETATM   13  C   UNL     1      45.302 -10.914   7.244  1.00  0.00     0.123 C 
BRANCH  13  14
HETATM   14  C   UNL     1      45.343  -9.626   8.034  1.00  0.00     0.219 C 
HETATM   15  N   UNL     1      44.203  -9.430   8.777  1.00  0.00    -0.357 N 
HETATM   16  H   UNL     1      43.433 -10.082   8.691  1.00  0.00     0.162 HD
HETATM   17  O   UNL     1      46.291  -8.852   8.021  1.00  0.00    -0.274 OA
BRANCH  15  18
HETATM   18  C   UNL     1      44.027  -8.295   9.653  1.00  0.00     0.161 C 
BRANCH  18  19
HETATM   19  C   UNL     1      43.096  -8.663  10.779  1.00  0.00    -0.038 A 
HETATM   20  C   UNL     1      41.859  -9.273  10.521  1.00  0.00     0.048 A 
HETATM   21  C   UNL     1      41.074  -9.627  11.599  1.00  0.00     0.105 A 
HETATM   22  C   UNL     1      41.474  -9.401  12.895  1.00  0.00     0.105 A 
HETATM   23  O   UNL     1      39.856 -10.229  11.529  1.00  0.00    -0.323 OA
HETATM   24  O   UNL     1      40.559  -9.833  13.803  1.00  0.00    -0.323 OA
HETATM   25  C   UNL     1      42.679  -8.806  13.189  1.00  0.00     0.040 A 
HETATM   26  C   UNL     1      39.535 -10.354  12.931  1.00  0.00     0.352 A 
HETATM   27  C   UNL     1      43.497  -8.435  12.118  1.00  0.00     0.012 A 
ENDBRANCH  18  19
ENDBRANCH  15  18
ENDBRANCH  13  14
ENDBRANCH  12  13
ENDBRANCH   4  12
BRANCH   1  28
HETATM   28  C   UNL     1      42.690 -14.044   3.520  1.00  0.00     0.237 C 
BRANCH  28  29
HETATM   29  C   UNL     1      42.445 -15.486   3.950  1.00  0.00     0.240 C 
HETATM   30  N   UNL     1      43.619 -16.199   4.130  1.00  0.00    -0.325 N 
HETATM   31  H   UNL     1      44.416 -15.637   4.436  1.00  0.00     0.169 HD
HETATM   32  O   UNL     1      41.308 -15.905   4.151  1.00  0.00    -0.271 OA
BRANCH  30  33
HETATM   33  C   UNL     1      43.720 -17.598   4.299  1.00  0.00     0.042 A 
HETATM   34  C   UNL     1      43.739 -18.252   5.547  1.00  0.00    -0.035 A 
HETATM   35  C   UNL     1      43.585 -17.553   6.871  1.00  0.00     0.050 C 
HETATM   36  C   UNL     1      43.858 -19.656   5.580  1.00  0.00     0.011 A 
HETATM   37  C   UNL     1      43.902 -20.402   4.405  1.00  0.00     0.024 A 
HETATM   38  C   UNL     1      43.821 -19.752   3.180  1.00  0.00     0.036 A 
HETATM   39  C   UNL     1      43.718 -18.362   3.122  1.00  0.00     0.053 A 
HETATM   40 CL   UNL     1      43.856 -20.670   1.724  1.00  0.00    -0.084 Cl
ENDBRANCH  30  33
ENDBRANCH  28  29
ENDBRANCH   1  28
TORSDOF 8
ENDMDL
MODEL 2
REMARK VINA RESULT:      -9.3      3.501      5.332
REMARK  8 active torsions:
REMARK  status: ('A' for Active; 'I' for Inactive)
REMARK    1  A    between atoms: C_3  and  N_4 
REMARK       I    between atoms: N_4  and  C_5 
REMARK    2  A    between atoms: C_5  and  C_6 
REMARK    3  A    between atoms: C_6  and  N_7 
REMARK    4  A    between atoms: N_10  and  C_11 
REMARK    5  A    between atoms: C_11  and  C_12 
REMARK    6  A    between atoms: C_12  and  C_13 
REMARK       I    between atoms: C_13  and  N_14 
REMARK    7  A    between atoms: N_14  and  C_15 
REMARK    8  A    between atoms: C_15  and  C_16 
ROOT
HETATM    1  N   UNL     1      39.802 -14.054   0.799  1.00  0.00    -0.289 N 
HETATM    2  C   UNL     1      39.741 -13.158   1.868  1.00  0.00     0.332 C 
HETATM    3  O   UNL     1      39.745 -13.587   3.028  1.00  0.00    -0.246 OA
HETATM    4  N   UNL     1      39.679 -11.783   1.578  1.00  0.00    -0.265 N 
HETATM    5  C   UNL     1      39.720 -11.257   0.279  1.00  0.00     0.271 C 
HETATM    6  O   UNL     1      39.847 -10.061   0.030  1.00  0.00    -0.266 OA
HETATM    7  C   UNL     1      39.617 -12.254  -0.750  1.00  0.00     0.100 A 
HETATM    8  C   UNL     1      39.654 -13.600  -0.506  1.00  0.00     0.062 A 
HETATM    9  S   UNL     1      39.472 -11.880  -2.401  1.00  0.00    -0.094 SA
HETATM   10  C   UNL     1      39.427 -13.541  -2.818  1.00  0.00     0.053 A 
HETATM   11  C   UNL     1      39.538 -14.355  -1.709  1.00  0.00     0.038 A 
ENDROOT
BRANCH   4  12
HETATM   12  C   UNL     1      39.736 -10.906   2.762  1.00  0.00     0.146 C 
BRANCH  12  13
HETATM   13  C   UNL     1      40.965 -10.025   2.971  1.00  0.00     0.123 C 
BRANCH  13  14
HETATM   14  C   UNL     1      42.221 -10.845   3.157  1.00  0.00     0.219 C 
HETATM   15  N   UNL     1      42.666 -10.836   4.458  1.00  0.00    -0.357 N 
HETATM   16  H   UNL     1      42.195 -10.256   5.142  1.00  0.00     0.162 HD
HETATM   17  O   UNL     1      42.772 -11.458   2.251  1.00  0.00    -0.274 OA
BRANCH  15  18
HETATM   18  C   UNL     1      43.821 -11.586   4.894  1.00  0.00     0.161 C 
BRANCH  18  19
HETATM   19  C   UNL     1      44.251 -11.108   6.257  1.00  0.00    -0.038 A 
HETATM   20  C   UNL     1      43.302 -10.703   7.209  1.00  0.00     0.048 A 
HETATM   21  C   UNL     1      43.759 -10.320   8.454  1.00  0.00     0.105 A 
HETATM   22  C   UNL     1      45.096 -10.331   8.774  1.00  0.00     0.105 A 
HETATM   23  O   UNL     1      42.981  -9.907   9.491  1.00  0.00    -0.323 OA
HETATM   24  O   UNL     1      45.328  -9.927  10.051  1.00  0.00    -0.323 OA
HETATM   25  C   UNL     1      46.055 -10.722   7.868  1.00  0.00     0.040 A 
HETATM   26  C   UNL     1      43.983  -9.657  10.499  1.00  0.00     0.352 A 
HETATM   27  C   UNL     1      45.625 -11.115   6.598  1.00  0.00     0.012 A 
ENDBRANCH  18  19
ENDBRANCH  15  18
ENDBRANCH  13  14
ENDBRANCH  12  13
ENDBRANCH   4  12
BRANCH   1  28
HETATM   28  C   UNL     1      40.067 -15.455   1.112  1.00  0.00     0.237 C 
BRANCH  28  29
HETATM   29  C   UNL     1      41.425 -15.669   1.770  1.00  0.00     0.240 C 
HETATM   30  N   UNL     1      41.347 -16.416   2.934  1.00  0.00    -0.325 N 
HETATM   31  H   UNL     1      40.587 -17.100   2.950  1.00  0.00     0.169 HD
HETATM   32  O   UNL     1      42.456 -15.246   1.251  1.00  0.00    -0.271 OA
BRANCH  30  33
HETATM   33  C   UNL     1      42.382 -16.586   3.879  1.00  0.00     0.042 A 
HETATM   34  C   UNL     1      43.350 -17.608   3.827  1.00  0.00    -0.035 A 
HETATM   35  C   UNL     1      43.456 -18.619   2.716  1.00  0.00     0.050 C 
HETATM   36  C   UNL     1      44.325 -17.677   4.843  1.00  0.00     0.011 A 
HETATM   37  C   UNL     1      44.375 -16.724   5.858  1.00  0.00     0.024 A 
HETATM   38  C   UNL     1      43.453 -15.687   5.865  1.00  0.00     0.036 A 
HETATM   39  C   UNL     1      42.470 -15.605   4.880  1.00  0.00     0.053 A 
HETATM   40 CL   UNL     1      43.522 -14.495   7.107  1.00  0.00    -0.084 Cl
ENDBRANCH  30  33
ENDBRANCH  28  29
ENDBRANCH   1  28
TORSDOF 8
ENDMDL
MODEL 3
REMARK VINA RESULT:      -9.1      3.540      5.723
REMARK  8 active torsions:
REMARK  status: ('A' for Active; 'I' for Inactive)
REMARK    1  A    between atoms: C_3  and  N_4 
REMARK       I    between atoms: N_4  and  C_5 
REMARK    2  A    between atoms: C_5  and  C_6 
REMARK    3  A    between atoms: C_6  and  N_7 
REMARK    4  A    between atoms: N_10  and  C_11 
REMARK    5  A    between atoms: C_11  and  C_12 
REMARK    6  A    between atoms: C_12  and  C_13 
REMARK       I    between atoms: C_13  and  N_14 
REMARK    7  A    between atoms: N_14  and  C_15 
REMARK    8  A    between atoms: C_15  and  C_16 
ROOT
HETATM    1  N   UNL     1      41.738 -15.776   3.622  1.00  0.00    -0.289 N 
HETATM    2  C   UNL     1      41.933 -14.795   4.597  1.00  0.00     0.332 C 
HETATM    3  O   UNL     1      41.240 -13.771   4.582  1.00  0.00    -0.246 OA
HETATM    4  N   UNL     1      42.923 -15.016   5.571  1.00  0.00    -0.265 N 
HETATM    5  C   UNL     1      43.695 -16.184   5.648  1.00  0.00     0.271 C 
HETATM    6  O   UNL     1      44.429 -16.456   6.594  1.00  0.00    -0.266 OA
HETATM    7  C   UNL     1      43.538 -17.054   4.516  1.00  0.00     0.100 A 
HETATM    8  C   UNL     1      42.601 -16.862   3.538  1.00  0.00     0.062 A 
HETATM    9  S   UNL     1      44.478 -18.448   4.273  1.00  0.00    -0.094 SA
HETATM   10  C   UNL     1      43.649 -18.807   2.817  1.00  0.00     0.053 A 
HETATM   11  C   UNL     1      42.665 -17.880   2.542  1.00  0.00     0.038 A 
ENDROOT
BRANCH   4  12
HETATM   12  C   UNL     1      42.982 -13.987   6.626  1.00  0.00     0.146 C 
BRANCH  12  13
HETATM   13  C   UNL     1      44.163 -13.022   6.651  1.00  0.00     0.123 C 
BRANCH  13  14
HETATM   14  C   UNL     1      43.719 -11.590   6.842  1.00  0.00     0.219 C 
HETATM   15  N   UNL     1      44.485 -10.921   7.766  1.00  0.00    -0.357 N 
HETATM   16  H   UNL     1      45.200 -11.423   8.279  1.00  0.00     0.162 HD
HETATM   17  O   UNL     1      42.787 -11.082   6.230  1.00  0.00    -0.274 OA
BRANCH  15  18
HETATM   18  C   UNL     1      44.285  -9.526   8.084  1.00  0.00     0.161 C 
BRANCH  18  19
HETATM   19  C   UNL     1      43.537  -9.405   9.386  1.00  0.00    -0.038 A 
HETATM   20  C   UNL     1      42.136  -9.495   9.422  1.00  0.00     0.048 A 
HETATM   21  C   UNL     1      41.515  -9.423  10.652  1.00  0.00     0.105 A 
HETATM   22  C   UNL     1      42.226  -9.271  11.819  1.00  0.00     0.105 A 
HETATM   23  O   UNL     1      40.174  -9.497  10.869  1.00  0.00    -0.323 OA
HETATM   24  O   UNL     1      41.423  -9.231  12.916  1.00  0.00    -0.323 OA
HETATM   25  C   UNL     1      43.599  -9.180  11.825  1.00  0.00     0.040 A 
HETATM   26  C   UNL     1      40.124  -9.372  12.306  1.00  0.00     0.352 A 
HETATM   27  C   UNL     1      44.259  -9.249  10.594  1.00  0.00     0.012 A 
ENDBRANCH  18  19
ENDBRANCH  15  18
ENDBRANCH  13  14
ENDBRANCH  12  13
ENDBRANCH   4  12
BRANCH   1  28
HETATM   28  C   UNL     1      40.581 -15.630   2.744  1.00  0.00     0.237 C 
BRANCH  28  29
HETATM   29  C   UNL     1      40.900 -14.863   1.465  1.00  0.00     0.240 C 
HETATM   30  N   UNL     1      39.801 -14.194   0.951  1.00  0.00    -0.325 N 
HETATM   31  H   UNL     1      39.126 -13.884   1.653  1.00  0.00     0.169 HD
HETATM   32  O   UNL     1      42.041 -14.833   1.011  1.00  0.00    -0.271 OA
BRANCH  30  33
HETATM   33  C   UNL     1      39.720 -13.596  -0.325  1.00  0.00     0.042 A 
HETATM   34  C   UNL     1      40.247 -12.330  -0.648  1.00  0.00    -0.035 A 
HETATM   35  C   UNL     1      41.031 -11.470   0.307  1.00  0.00     0.050 C 
HETATM   36  C   UNL     1      40.086 -11.838  -1.960  1.00  0.00     0.011 A 
HETATM   37  C   UNL     1      39.467 -12.604  -2.944  1.00  0.00     0.024 A 
HETATM   38  C   UNL     1      39.005 -13.875  -2.630  1.00  0.00     0.036 A 
HETATM   39  C   UNL     1      39.139 -14.378  -1.336  1.00  0.00     0.053 A 
HETATM   40 CL   UNL     1      38.256 -14.834  -3.848  1.00  0.00    -0.084 Cl
ENDBRANCH  30  33
ENDBRANCH  28  29
ENDBRANCH   1  28
TORSDOF 8
ENDMDL
MODEL 4
REMARK VINA RESULT:      -9.1      4.145      7.187
REMARK  8 active torsions:
REMARK  status: ('A' for Active; 'I' for Inactive)
REMARK    1  A    between atoms: C_3  and  N_4 
REMARK       I    between atoms: N_4  and  C_5 
REMARK    2  A    between atoms: C_5  and  C_6 
REMARK    3  A    between atoms: C_6  and  N_7 
REMARK    4  A    between atoms: N_10  and  C_11 
REMARK    5  A    between atoms: C_11  and  C_12 
REMARK    6  A    between atoms: C_12  and  C_13 
REMARK       I    between atoms: C_13  and  N_14 
REMARK    7  A    between atoms: N_14  and  C_15 
REMARK    8  A    between atoms: C_15  and  C_16 
ROOT
HETATM    1  N   UNL     1      41.215 -11.061   6.277  1.00  0.00    -0.289 N 
HETATM    2  C   UNL     1      42.427 -10.405   6.506  1.00  0.00     0.332 C 
HETATM    3  O   UNL     1      42.460  -9.169   6.527  1.00  0.00    -0.246 OA
HETATM    4  N   UNL     1      43.577 -11.188   6.706  1.00  0.00    -0.265 N 
HETATM    5  C   UNL     1      43.570 -12.590   6.736  1.00  0.00     0.271 C 
HETATM    6  O   UNL     1      44.531 -13.271   7.087  1.00  0.00    -0.266 OA
HETATM    7  C   UNL     1      42.320 -13.169   6.331  1.00  0.00     0.100 A 
HETATM    8  C   UNL     1      41.185 -12.439   6.107  1.00  0.00     0.062 A 
HETATM    9  S   UNL     1      42.091 -14.839   6.114  1.00  0.00    -0.094 SA
HETATM   10  C   UNL     1      40.450 -14.603   5.683  1.00  0.00     0.053 A 
HETATM   11  C   UNL     1      40.093 -13.270   5.724  1.00  0.00     0.038 A 
ENDROOT
BRANCH   4  12
HETATM   12  C   UNL     1      44.787 -10.420   7.056  1.00  0.00     0.146 C 
BRANCH  12  13
HETATM   13  C   UNL     1      45.020 -10.034   8.513  1.00  0.00     0.123 C 
BRANCH  13  14
HETATM   14  C   UNL     1      44.646  -8.594   8.783  1.00  0.00     0.219 C 
HETATM   15  N   UNL     1      43.462  -8.479   9.472  1.00  0.00    -0.357 N 
HETATM   16  H   UNL     1      42.919  -9.311   9.672  1.00  0.00     0.162 HD
HETATM   17  O   UNL     1      45.329  -7.639   8.435  1.00  0.00    -0.274 OA
BRANCH  15  18
HETATM   18  C   UNL     1      42.920  -7.207   9.888  1.00  0.00     0.161 C 
BRANCH  18  19
HETATM   19  C   UNL     1      42.756  -7.192  11.386  1.00  0.00    -0.038 A 
HETATM   20  C   UNL     1      42.229  -6.068  12.040  1.00  0.00     0.048 A 
HETATM   21  C   UNL     1      42.061  -6.135  13.408  1.00  0.00     0.105 A 
HETATM   22  C   UNL     1      42.391  -7.259  14.127  1.00  0.00     0.105 A 
HETATM   23  O   UNL     1      41.561  -5.145  14.196  1.00  0.00    -0.323 OA
HETATM   24  O   UNL     1      42.140  -7.119  15.456  1.00  0.00    -0.323 OA
HETATM   25  C   UNL     1      42.910  -8.381  13.522  1.00  0.00     0.040 A 
HETATM   26  C   UNL     1      41.616  -5.775  15.493  1.00  0.00     0.352 A 
HETATM   27  C   UNL     1      43.093  -8.344  12.137  1.00  0.00     0.012 A 
ENDBRANCH  18  19
ENDBRANCH  15  18
ENDBRANCH  13  14
ENDBRANCH  12  13
ENDBRANCH   4  12
BRANCH   1  28
HETATM   28  C   UNL     1      40.003 -10.247   6.271  1.00  0.00     0.237 C 
BRANCH  28  29
HETATM   29  C   UNL     1      39.387 -10.090   7.656  1.00  0.00     0.240 C 
HETATM   30  N   UNL     1      39.753  -8.906   8.276  1.00  0.00    -0.325 N 
HETATM   31  H   UNL     1      39.933  -8.130   7.637  1.00  0.00     0.169 HD
HETATM   32  O   UNL     1      38.611 -10.931   8.106  1.00  0.00    -0.271 OA
BRANCH  30  33
HETATM   33  C   UNL     1      39.537  -8.582   9.634  1.00  0.00     0.042 A 
HETATM   34  C   UNL     1      39.021  -7.352  10.088  1.00  0.00    -0.035 A 
HETATM   35  C   UNL     1      38.564  -6.240   9.183  1.00  0.00     0.050 C 
HETATM   36  C   UNL     1      38.867  -7.148  11.474  1.00  0.00     0.011 A 
HETATM   37  C   UNL     1      39.163  -8.156  12.388  1.00  0.00     0.024 A 
HETATM   38  C   UNL     1      39.613  -9.385  11.925  1.00  0.00     0.036 A 
HETATM   39  C   UNL     1      39.788  -9.607  10.560  1.00  0.00     0.053 A 
HETATM   40 CL   UNL     1      39.963 -10.642  13.049  1.00  0.00    -0.084 Cl
ENDBRANCH  30  33
ENDBRANCH  28  29
ENDBRANCH   1  28
TORSDOF 8
ENDMDL
MODEL 5
REMARK VINA RESULT:      -9.0      3.983     10.561
REMARK  8 active torsions:
REMARK  status: ('A' for Active; 'I' for Inactive)
REMARK    1  A    between atoms: C_3  and  N_4 
REMARK       I    between atoms: N_4  and  C_5 
REMARK    2  A    between atoms: C_5  and  C_6 
REMARK    3  A    between atoms: C_6  and  N_7 
REMARK    4  A    between atoms: N_10  and  C_11 
REMARK    5  A    between atoms: C_11  and  C_12 
REMARK    6  A    between atoms: C_12  and  C_13 
REMARK       I    between atoms: C_13  and  N_14 
REMARK    7  A    between atoms: N_14  and  C_15 
REMARK    8  A    between atoms: C_15  and  C_16 
ROOT
HETATM    1  N   UNL     1      42.241  -9.208   7.711  1.00  0.00    -0.289 N 
HETATM    2  C   UNL     1      41.472 -10.000   6.856  1.00  0.00     0.332 C 
HETATM    3  O   UNL     1      40.250  -9.820   6.787  1.00  0.00    -0.246 OA
HETATM    4  N   UNL     1      42.128 -10.983   6.094  1.00  0.00    -0.265 N 
HETATM    5  C   UNL     1      43.516 -11.184   6.110  1.00  0.00     0.271 C 
HETATM    6  O   UNL     1      44.110 -11.914   5.319  1.00  0.00    -0.266 OA
HETATM    7  C   UNL     1      44.195 -10.440   7.134  1.00  0.00     0.100 A 
HETATM    8  C   UNL     1      43.587  -9.490   7.908  1.00  0.00     0.062 A 
HETATM    9  S   UNL     1      45.847 -10.626   7.483  1.00  0.00    -0.094 SA
HETATM   10  C   UNL     1      45.766  -9.438   8.716  1.00  0.00     0.053 A 
HETATM   11  C   UNL     1      44.498  -8.907   8.836  1.00  0.00     0.038 A 
ENDROOT
BRANCH   4  12
HETATM   12  C   UNL     1      41.262 -11.692   5.134  1.00  0.00     0.146 C 
BRANCH  12  13
HETATM   13  C   UNL     1      40.947 -13.166   5.372  1.00  0.00     0.123 C 
BRANCH  13  14
HETATM   14  C   UNL     1      41.193 -14.002   4.137  1.00  0.00     0.219 C 
HETATM   15  N   UNL     1      42.532 -14.166   3.872  1.00  0.00    -0.357 N 
HETATM   16  H   UNL     1      43.216 -13.683   4.442  1.00  0.00     0.162 HD
HETATM   17  O   UNL     1      40.298 -14.488   3.457  1.00  0.00    -0.274 OA
BRANCH  15  18
HETATM   18  C   UNL     1      43.019 -14.966   2.773  1.00  0.00     0.161 C 
BRANCH  18  19
HETATM   19  C   UNL     1      43.307 -16.365   3.253  1.00  0.00    -0.038 A 
HETATM   20  C   UNL     1      43.151 -17.466   2.397  1.00  0.00     0.048 A 
HETATM   21  C   UNL     1      43.476 -18.716   2.884  1.00  0.00     0.105 A 
HETATM   22  C   UNL     1      43.943 -18.899   4.164  1.00  0.00     0.105 A 
HETATM   23  O   UNL     1      43.390 -19.884   2.192  1.00  0.00    -0.323 OA
HETATM   24  O   UNL     1      44.210 -20.203   4.438  1.00  0.00    -0.323 OA
HETATM   25  C   UNL     1      44.110 -17.845   5.033  1.00  0.00     0.040 A 
HETATM   26  C   UNL     1      43.855 -20.822   3.184  1.00  0.00     0.352 A 
HETATM   27  C   UNL     1      43.789 -16.566   4.569  1.00  0.00     0.012 A 
ENDBRANCH  18  19
ENDBRANCH  15  18
ENDBRANCH  13  14
ENDBRANCH  12  13
ENDBRANCH   4  12
BRANCH   1  28
HETATM   28  C   UNL     1      41.583  -8.066   8.341  1.00  0.00     0.237 C 
BRANCH  28  29
HETATM   29  C   UNL     1      41.077  -8.374   9.746  1.00  0.00     0.240 C 
HETATM   30  N   UNL     1      41.737  -7.651  10.725  1.00  0.00    -0.325 N 
HETATM   31  H   UNL     1      42.071  -6.733  10.424  1.00  0.00     0.169 HD
HETATM   32  O   UNL     1      40.142  -9.151   9.928  1.00  0.00    -0.271 OA
BRANCH  30  33
HETATM   33  C   UNL     1      41.657  -7.879  12.117  1.00  0.00     0.042 A 
HETATM   34  C   UNL     1      42.310  -8.930  12.791  1.00  0.00    -0.035 A 
HETATM   35  C   UNL     1      43.239  -9.913  12.131  1.00  0.00     0.050 C 
HETATM   36  C   UNL     1      42.138  -9.057  14.185  1.00  0.00     0.011 A 
HETATM   37  C   UNL     1      41.382  -8.135  14.904  1.00  0.00     0.024 A 
HETATM   38  C   UNL     1      40.793  -7.069  14.237  1.00  0.00     0.036 A 
HETATM   39  C   UNL     1      40.936  -6.929  12.857  1.00  0.00     0.053 A 
HETATM   40 CL   UNL     1      39.873  -5.914  15.124  1.00  0.00    -0.084 Cl
ENDBRANCH  30  33
ENDBRANCH  28  29
ENDBRANCH   1  28
TORSDOF 8
ENDMDL
MODEL 6
REMARK VINA RESULT:      -8.8      2.110      3.198
REMARK  8 active torsions:
REMARK  status: ('A' for Active; 'I' for Inactive)
REMARK    1  A    between atoms: C_3  and  N_4 
REMARK       I    between atoms: N_4  and  C_5 
REMARK    2  A    between atoms: C_5  and  C_6 
REMARK    3  A    between atoms: C_6  and  N_7 
REMARK    4  A    between atoms: N_10  and  C_11 
REMARK    5  A    between atoms: C_11  and  C_12 
REMARK    6  A    between atoms: C_12  and  C_13 
REMARK       I    between atoms: C_13  and  N_14 
REMARK    7  A    between atoms: N_14  and  C_15 
REMARK    8  A    between atoms: C_15  and  C_16 
ROOT
HETATM    1  N   UNL     1      41.263 -13.365   3.162  1.00  0.00    -0.289 N 
HETATM    2  C   UNL     1      40.728 -12.851   4.345  1.00  0.00     0.332 C 
HETATM    3  O   UNL     1      41.219 -13.177   5.432  1.00  0.00    -0.246 OA
HETATM    4  N   UNL     1      39.638 -11.967   4.251  1.00  0.00    -0.265 N 
HETATM    5  C   UNL     1      39.085 -11.538   3.036  1.00  0.00     0.271 C 
HETATM    6  O   UNL     1      38.257 -10.635   2.943  1.00  0.00    -0.266 OA
HETATM    7  C   UNL     1      39.591 -12.243   1.891  1.00  0.00     0.100 A 
HETATM    8  C   UNL     1      40.636 -13.124   1.946  1.00  0.00     0.062 A 
HETATM    9  S   UNL     1      38.973 -12.040   0.322  1.00  0.00    -0.094 SA
HETATM   10  C   UNL     1      40.095 -13.168  -0.314  1.00  0.00     0.053 A 
HETATM   11  C   UNL     1      40.930 -13.670   0.663  1.00  0.00     0.038 A 
ENDROOT
BRANCH   4  12
HETATM   12  C   UNL     1      39.212 -11.382   5.536  1.00  0.00     0.146 C 
BRANCH  12  13
HETATM   13  C   UNL     1      39.566  -9.929   5.839  1.00  0.00     0.123 C 
BRANCH  13  14
HETATM   14  C   UNL     1      41.057  -9.731   5.987  1.00  0.00     0.219 C 
HETATM   15  N   UNL     1      41.595 -10.516   6.980  1.00  0.00    -0.357 N 
HETATM   16  H   UNL     1      40.982 -11.080   7.556  1.00  0.00     0.162 HD
HETATM   17  O   UNL     1      41.712  -8.964   5.293  1.00  0.00    -0.274 OA
BRANCH  15  18
HETATM   18  C   UNL     1      43.008 -10.539   7.278  1.00  0.00     0.161 C 
BRANCH  18  19
HETATM   19  C   UNL     1      43.250  -9.918   8.629  1.00  0.00    -0.038 A 
HETATM   20  C   UNL     1      42.223  -9.241   9.305  1.00  0.00     0.048 A 
HETATM   21  C   UNL     1      42.498  -8.735  10.559  1.00  0.00     0.105 A 
HETATM   22  C   UNL     1      43.731  -8.882  11.149  1.00  0.00     0.105 A 
HETATM   23  O   UNL     1      41.621  -8.060  11.351  1.00  0.00    -0.323 OA
HETATM   24  O   UNL     1      43.785  -8.319  12.385  1.00  0.00    -0.323 OA
HETATM   25  C   UNL     1      44.762  -9.540  10.519  1.00  0.00     0.040 A 
HETATM   26  C   UNL     1      42.446  -7.797  12.506  1.00  0.00     0.352 A 
HETATM   27  C   UNL     1      44.516 -10.063   9.247  1.00  0.00     0.012 A 
ENDBRANCH  18  19
ENDBRANCH  15  18
ENDBRANCH  13  14
ENDBRANCH  12  13
ENDBRANCH   4  12
BRANCH   1  28
HETATM   28  C   UNL     1      42.511 -14.116   3.261  1.00  0.00     0.237 C 
BRANCH  28  29
HETATM   29  C   UNL     1      42.292 -15.590   3.586  1.00  0.00     0.240 C 
HETATM   30  N   UNL     1      43.433 -16.208   4.072  1.00  0.00    -0.325 N 
HETATM   31  H   UNL     1      44.062 -15.592   4.593  1.00  0.00     0.169 HD
HETATM   32  O   UNL     1      41.187 -16.110   3.461  1.00  0.00    -0.271 OA
BRANCH  30  33
HETATM   33  C   UNL     1      43.612 -17.598   4.241  1.00  0.00     0.042 A 
HETATM   34  C   UNL     1      43.668 -18.249   5.490  1.00  0.00    -0.035 A 
HETATM   35  C   UNL     1      43.473 -17.560   6.814  1.00  0.00     0.050 C 
HETATM   36  C   UNL     1      43.865 -19.644   5.524  1.00  0.00     0.011 A 
HETATM   37  C   UNL     1      43.952 -20.387   4.349  1.00  0.00     0.024 A 
HETATM   38  C   UNL     1      43.835 -19.744   3.125  1.00  0.00     0.036 A 
HETATM   39  C   UNL     1      43.654 -18.362   3.065  1.00  0.00     0.053 A 
HETATM   40 CL   UNL     1      43.921 -20.660   1.669  1.00  0.00    -0.084 Cl
ENDBRANCH  30  33
ENDBRANCH  28  29
ENDBRANCH   1  28
TORSDOF 8
ENDMDL
MODEL 7
REMARK VINA RESULT:      -8.7      2.817      7.457
REMARK  8 active torsions:
REMARK  status: ('A' for Active; 'I' for Inactive)
REMARK    1  A    between atoms: C_3  and  N_4 
REMARK       I    between atoms: N_4  and  C_5 
REMARK    2  A    between atoms: C_5  and  C_6 
REMARK    3  A    between atoms: C_6  and  N_7 
REMARK    4  A    between atoms: N_10  and  C_11 
REMARK    5  A    between atoms: C_11  and  C_12 
REMARK    6  A    between atoms: C_12  and  C_13 
REMARK       I    between atoms: C_13  and  N_14 
REMARK    7  A    between atoms: N_14  and  C_15 
REMARK    8  A    between atoms: C_15  and  C_16 
ROOT
HETATM    1  N   UNL     1      43.344 -10.195   7.372  1.00  0.00    -0.289 N 
HETATM    2  C   UNL     1      42.311  -9.735   6.554  1.00  0.00     0.332 C 
HETATM    3  O   UNL     1      42.314 -10.013   5.349  1.00  0.00    -0.246 OA
HETATM    4  N   UNL     1      41.292  -8.965   7.142  1.00  0.00    -0.265 N 
HETATM    5  C   UNL     1      41.230  -8.670   8.511  1.00  0.00     0.271 C 
HETATM    6  O   UNL     1      40.257  -8.154   9.056  1.00  0.00    -0.266 OA
HETATM    7  C   UNL     1      42.413  -9.043   9.236  1.00  0.00     0.100 A 
HETATM    8  C   UNL     1      43.433  -9.774   8.694  1.00  0.00     0.062 A 
HETATM    9  S   UNL     1      42.671  -8.649  10.868  1.00  0.00    -0.094 SA
HETATM   10  C   UNL     1      44.190  -9.441  10.865  1.00  0.00     0.053 A 
HETATM   11  C   UNL     1      44.475 -10.005   9.639  1.00  0.00     0.038 A 
ENDROOT
BRANCH   4  12
HETATM   12  C   UNL     1      40.184  -8.620   6.233  1.00  0.00     0.146 C 
BRANCH  12  13
HETATM   13  C   UNL     1      39.153  -9.691   5.886  1.00  0.00     0.123 C 
BRANCH  13  14
HETATM   14  C   UNL     1      38.948  -9.815   4.394  1.00  0.00     0.219 C 
HETATM   15  N   UNL     1      39.774 -10.757   3.827  1.00  0.00    -0.357 N 
HETATM   16  H   UNL     1      40.471 -11.218   4.399  1.00  0.00     0.162 HD
HETATM   17  O   UNL     1      38.129  -9.158   3.764  1.00  0.00    -0.274 OA
BRANCH  15  18
HETATM   18  C   UNL     1      39.731 -11.090   2.422  1.00  0.00     0.161 C 
BRANCH  18  19
HETATM   19  C   UNL     1      40.321 -12.460   2.208  1.00  0.00    -0.038 A 
HETATM   20  C   UNL     1      41.708 -12.634   2.083  1.00  0.00     0.048 A 
HETATM   21  C   UNL     1      42.188 -13.919   1.935  1.00  0.00     0.105 A 
HETATM   22  C   UNL     1      41.352 -15.010   1.912  1.00  0.00     0.105 A 
HETATM   23  O   UNL     1      43.497 -14.267   1.807  1.00  0.00    -0.323 OA
HETATM   24  O   UNL     1      42.028 -16.181   1.767  1.00  0.00    -0.323 OA
HETATM   25  C   UNL     1      39.987 -14.881   2.032  1.00  0.00     0.040 A 
HETATM   26  C   UNL     1      43.387 -15.702   1.698  1.00  0.00     0.352 A 
HETATM   27  C   UNL     1      39.469 -13.591   2.183  1.00  0.00     0.012 A 
ENDBRANCH  18  19
ENDBRANCH  15  18
ENDBRANCH  13  14
ENDBRANCH  12  13
ENDBRANCH   4  12
BRANCH   1  28
HETATM   28  C   UNL     1      44.281 -11.155   6.795  1.00  0.00     0.237 C 
BRANCH  28  29
HETATM   29  C   UNL     1      43.811 -12.599   6.931  1.00  0.00     0.240 C 
HETATM   30  N   UNL     1      43.351 -13.129   5.737  1.00  0.00    -0.325 N 
HETATM   31  H   UNL     1      43.800 -12.748   4.902  1.00  0.00     0.169 HD
HETATM   32  O   UNL     1      43.902 -13.198   8.000  1.00  0.00    -0.271 OA
BRANCH  30  33
HETATM   33  C   UNL     1      42.646 -14.344   5.589  1.00  0.00     0.042 A 
HETATM   34  C   UNL     1      41.245 -14.469   5.683  1.00  0.00    -0.035 A 
HETATM   35  C   UNL     1      40.303 -13.313   5.885  1.00  0.00     0.050 C 
HETATM   36  C   UNL     1      40.663 -15.744   5.529  1.00  0.00     0.011 A 
HETATM   37  C   UNL     1      41.442 -16.860   5.234  1.00  0.00     0.024 A 
HETATM   38  C   UNL     1      42.815 -16.714   5.084  1.00  0.00     0.036 A 
HETATM   39  C   UNL     1      43.416 -15.466   5.246  1.00  0.00     0.053 A 
HETATM   40 CL   UNL     1      43.781 -18.087   4.701  1.00  0.00    -0.084 Cl
ENDBRANCH  30  33
ENDBRANCH  28  29
ENDBRANCH   1  28
TORSDOF 8
ENDMDL
MODEL 8
REMARK VINA RESULT:      -8.7      4.685      8.906
REMARK  8 active torsions:
REMARK  status: ('A' for Active; 'I' for Inactive)
REMARK    1  A    between atoms: C_3  and  N_4 
REMARK       I    between atoms: N_4  and  C_5 
REMARK    2  A    between atoms: C_5  and  C_6 
REMARK    3  A    between atoms: C_6  and  N_7 
REMARK    4  A    between atoms: N_10  and  C_11 
REMARK    5  A    between atoms: C_11  and  C_12 
REMARK    6  A    between atoms: C_12  and  C_13 
REMARK       I    between atoms: C_13  and  N_14 
REMARK    7  A    between atoms: N_14  and  C_15 
REMARK    8  A    between atoms: C_15  and  C_16 
ROOT
HETATM    1  N   UNL     1      41.393 -12.576   2.418  1.00  0.00    -0.289 N 
HETATM    2  C   UNL     1      40.142 -12.045   2.100  1.00  0.00     0.332 C 
HETATM    3  O   UNL     1      39.530 -12.466   1.111  1.00  0.00    -0.246 OA
HETATM    4  N   UNL     1      39.619 -11.037   2.930  1.00  0.00    -0.265 N 
HETATM    5  C   UNL     1      40.260 -10.568   4.085  1.00  0.00     0.271 C 
HETATM    6  O   UNL     1      39.730  -9.823   4.906  1.00  0.00    -0.266 OA
HETATM    7  C   UNL     1      41.604 -11.053   4.236  1.00  0.00     0.100 A 
HETATM    8  C   UNL     1      42.154 -12.017   3.437  1.00  0.00     0.062 A 
HETATM    9  S   UNL     1      42.661 -10.511   5.451  1.00  0.00    -0.094 SA
HETATM   10  C   UNL     1      43.901 -11.556   4.899  1.00  0.00     0.053 A 
HETATM   11  C   UNL     1      43.496 -12.310   3.816  1.00  0.00     0.038 A 
ENDROOT
BRANCH   4  12
HETATM   12  C   UNL     1      38.247 -10.616   2.591  1.00  0.00     0.146 C 
BRANCH  12  13
HETATM   13  C   UNL     1      38.013  -9.193   2.091  1.00  0.00     0.123 C 
BRANCH  13  14
HETATM   14  C   UNL     1      37.917  -9.133   0.583  1.00  0.00     0.219 C 
HETATM   15  N   UNL     1      39.145  -9.250  -0.026  1.00  0.00    -0.357 N 
HETATM   16  H   UNL     1      39.982  -9.289   0.543  1.00  0.00     0.162 HD
HETATM   17  O   UNL     1      36.862  -9.007  -0.025  1.00  0.00    -0.274 OA
BRANCH  15  18
HETATM   18  C   UNL     1      39.306  -9.270  -1.461  1.00  0.00     0.161 C 
BRANCH  18  19
HETATM   19  C   UNL     1      39.409 -10.695  -1.939  1.00  0.00    -0.038 A 
HETATM   20  C   UNL     1      38.257 -11.469  -2.149  1.00  0.00     0.048 A 
HETATM   21  C   UNL     1      38.418 -12.751  -2.632  1.00  0.00     0.105 A 
HETATM   22  C   UNL     1      39.659 -13.274  -2.909  1.00  0.00     0.105 A 
HETATM   23  O   UNL     1      37.415 -13.631  -2.896  1.00  0.00    -0.323 OA
HETATM   24  O   UNL     1      39.594 -14.546  -3.383  1.00  0.00    -0.323 OA
HETATM   25  C   UNL     1      40.812 -12.547  -2.717  1.00  0.00     0.040 A 
HETATM   26  C   UNL     1      38.168 -14.768  -3.369  1.00  0.00     0.352 A 
HETATM   27  C   UNL     1      40.682 -11.243  -2.228  1.00  0.00     0.012 A 
ENDBRANCH  18  19
ENDBRANCH  15  18
ENDBRANCH  13  14
ENDBRANCH  12  13
ENDBRANCH   4  12
BRANCH   1  28
HETATM   28  C   UNL     1      41.832 -13.752   1.672  1.00  0.00     0.237 C 
BRANCH  28  29
HETATM   29  C   UNL     1      41.847 -15.020   2.519  1.00  0.00     0.240 C 
HETATM   30  N   UNL     1      43.122 -15.535   2.692  1.00  0.00    -0.325 N 
HETATM   31  H   UNL     1      43.867 -14.835   2.693  1.00  0.00     0.169 HD
HETATM   32  O   UNL     1      40.815 -15.465   3.014  1.00  0.00    -0.271 OA
BRANCH  30  33
HETATM   33  C   UNL     1      43.435 -16.806   3.222  1.00  0.00     0.042 A 
HETATM   34  C   UNL     1      43.739 -17.052   4.576  1.00  0.00    -0.035 A 
HETATM   35  C   UNL     1      43.702 -16.005   5.657  1.00  0.00     0.050 C 
HETATM   36  C   UNL     1      44.050 -18.368   4.977  1.00  0.00     0.011 A 
HETATM   37  C   UNL     1      44.008 -19.425   4.071  1.00  0.00     0.024 A 
HETATM   38  C   UNL     1      43.648 -19.179   2.752  1.00  0.00     0.036 A 
HETATM   39  C   UNL     1      43.351 -17.885   2.328  1.00  0.00     0.053 A 
HETATM   40 CL   UNL     1      43.576 -20.485   1.632  1.00  0.00    -0.084 Cl
ENDBRANCH  30  33
ENDBRANCH  28  29
ENDBRANCH   1  28
TORSDOF 8
ENDMDL
MODEL 9
REMARK VINA RESULT:      -8.7      3.750      5.785
REMARK  8 active torsions:
REMARK  status: ('A' for Active; 'I' for Inactive)
REMARK    1  A    between atoms: C_3  and  N_4 
REMARK       I    between atoms: N_4  and  C_5 
REMARK    2  A    between atoms: C_5  and  C_6 
REMARK    3  A    between atoms: C_6  and  N_7 
REMARK    4  A    between atoms: N_10  and  C_11 
REMARK    5  A    between atoms: C_11  and  C_12 
REMARK    6  A    between atoms: C_12  and  C_13 
REMARK       I    between atoms: C_13  and  N_14 
REMARK    7  A    between atoms: N_14  and  C_15 
REMARK    8  A    between atoms: C_15  and  C_16 
ROOT
HETATM    1  N   UNL     1      40.313 -13.207   0.877  1.00  0.00    -0.289 N 
HETATM    2  C   UNL     1      40.725 -11.940   1.294  1.00  0.00     0.332 C 
HETATM    3  O   UNL     1      40.851 -11.703   2.501  1.00  0.00    -0.246 OA
HETATM    4  N   UNL     1      40.985 -10.970   0.309  1.00  0.00    -0.265 N 
HETATM    5  C   UNL     1      40.899 -11.215  -1.069  1.00  0.00     0.271 C 
HETATM    6  O   UNL     1      41.295 -10.432  -1.928  1.00  0.00    -0.266 OA
HETATM    7  C   UNL     1      40.314 -12.487  -1.393  1.00  0.00     0.100 A 
HETATM    8  C   UNL     1      40.028 -13.447  -0.462  1.00  0.00     0.062 A 
HETATM    9  S   UNL     1      39.938 -12.965  -2.979  1.00  0.00    -0.094 SA
HETATM   10  C   UNL     1      39.352 -14.479  -2.431  1.00  0.00     0.053 A 
HETATM   11  C   UNL     1      39.463 -14.609  -1.062  1.00  0.00     0.038 A 
ENDROOT
BRANCH   4  12
HETATM   12  C   UNL     1      41.525  -9.700   0.829  1.00  0.00     0.146 C 
BRANCH  12  13
HETATM   13  C   UNL     1      40.660  -8.445   0.757  1.00  0.00     0.123 C 
BRANCH  13  14
HETATM   14  C   UNL     1      40.271  -7.948   2.131  1.00  0.00     0.219 C 
HETATM   15  N   UNL     1      41.030  -8.513   3.128  1.00  0.00    -0.357 N 
HETATM   16  H   UNL     1      41.703  -9.233   2.895  1.00  0.00     0.162 HD
HETATM   17  O   UNL     1      39.385  -7.126   2.329  1.00  0.00    -0.274 OA
BRANCH  15  18
HETATM   18  C   UNL     1      40.879  -8.160   4.520  1.00  0.00     0.161 C 
BRANCH  18  19
HETATM   19  C   UNL     1      41.656  -9.127   5.376  1.00  0.00    -0.038 A 
HETATM   20  C   UNL     1      42.400 -10.165   4.793  1.00  0.00     0.048 A 
HETATM   21  C   UNL     1      43.126 -10.989   5.630  1.00  0.00     0.105 A 
HETATM   22  C   UNL     1      43.137 -10.814   6.993  1.00  0.00     0.105 A 
HETATM   23  O   UNL     1      43.902 -12.034   5.235  1.00  0.00    -0.323 OA
HETATM   24  O   UNL     1      43.921 -11.725   7.628  1.00  0.00    -0.323 OA
HETATM   25  C   UNL     1      42.421  -9.808   7.601  1.00  0.00     0.040 A 
HETATM   26  C   UNL     1      44.401 -12.497   6.508  1.00  0.00     0.352 A 
HETATM   27  C   UNL     1      41.674  -8.957   6.781  1.00  0.00     0.012 A 
ENDBRANCH  18  19
ENDBRANCH  15  18
ENDBRANCH  13  14
ENDBRANCH  12  13
ENDBRANCH   4  12
BRANCH   1  28
HETATM   28  C   UNL     1      40.242 -14.256   1.890  1.00  0.00     0.237 C 
BRANCH  28  29
HETATM   29  C   UNL     1      41.543 -15.038   2.028  1.00  0.00     0.240 C 
HETATM   30  N   UNL     1      41.369 -16.269   2.640  1.00  0.00    -0.325 N 
HETATM   31  H   UNL     1      40.456 -16.698   2.478  1.00  0.00     0.169 HD
HETATM   32  O   UNL     1      42.599 -14.598   1.578  1.00  0.00    -0.271 OA
BRANCH  30  33
HETATM   33  C   UNL     1      42.399 -17.111   3.111  1.00  0.00     0.042 A 
HETATM   34  C   UNL     1      43.115 -16.903   4.308  1.00  0.00    -0.035 A 
HETATM   35  C   UNL     1      42.830 -15.792   5.283  1.00  0.00     0.050 C 
HETATM   36  C   UNL     1      44.133 -17.812   4.660  1.00  0.00     0.011 A 
HETATM   37  C   UNL     1      44.401 -18.932   3.876  1.00  0.00     0.024 A 
HETATM   38  C   UNL     1      43.649 -19.159   2.732  1.00  0.00     0.036 A 
HETATM   39  C   UNL     1      42.646 -18.267   2.354  1.00  0.00     0.053 A 
HETATM   40 CL   UNL     1      43.963 -20.552   1.769  1.00  0.00    -0.084 Cl
ENDBRANCH  30  33
ENDBRANCH  28  29
ENDBRANCH   1  28
TORSDOF 8
ENDMDL
MODEL 10
REMARK VINA RESULT:      -8.6      3.435      5.932
REMARK  8 active torsions:
REMARK  status: ('A' for Active; 'I' for Inactive)
REMARK    1  A    between atoms: C_3  and  N_4 
REMARK       I    between atoms: N_4  and  C_5 
REMARK    2  A    between atoms: C_5  and  C_6 
REMARK    3  A    between atoms: C_6  and  N_7 
REMARK    4  A    between atoms: N_10  and  C_11 
REMARK    5  A    between atoms: C_11  and  C_12 
REMARK    6  A    between atoms: C_12  and  C_13 
REMARK       I    between atoms: C_13  and  N_14 
REMARK    7  A    between atoms: N_14  and  C_15 
REMARK    8  A    between atoms: C_15  and  C_16 
ROOT
HETATM    1  N   UNL     1      43.158 -15.965   2.935  1.00  0.00    -0.289 N 
HETATM    2  C   UNL     1      43.033 -14.862   3.783  1.00  0.00     0.332 C 
HETATM    3  O   UNL     1      42.892 -13.732   3.301  1.00  0.00    -0.246 OA
HETATM    4  N   UNL     1      43.070 -15.085   5.171  1.00  0.00    -0.265 N 
HETATM    5  C   UNL     1      43.181 -16.356   5.754  1.00  0.00     0.271 C 
HETATM    6  O   UNL     1      43.034 -16.572   6.954  1.00  0.00    -0.266 OA
HETATM    7  C   UNL     1      43.467 -17.400   4.810  1.00  0.00     0.100 A 
HETATM    8  C   UNL     1      43.460 -17.218   3.454  1.00  0.00     0.062 A 
HETATM    9  S   UNL     1      43.817 -18.999   5.265  1.00  0.00    -0.094 SA
HETATM   10  C   UNL     1      43.993 -19.473   3.628  1.00  0.00     0.053 A 
HETATM   11  C   UNL     1      43.771 -18.423   2.761  1.00  0.00     0.038 A 
ENDROOT
BRANCH   4  12
HETATM   12  C   UNL     1      42.814 -13.886   5.990  1.00  0.00     0.146 C 
BRANCH  12  13
HETATM   13  C   UNL     1      43.962 -13.282   6.795  1.00  0.00     0.123 C 
BRANCH  13  14
HETATM   14  C   UNL     1      44.000 -11.775   6.681  1.00  0.00     0.219 C 
HETATM   15  N   UNL     1      43.173 -11.159   7.590  1.00  0.00    -0.357 N 
HETATM   16  H   UNL     1      42.576 -11.723   8.184  1.00  0.00     0.162 HD
HETATM   17  O   UNL     1      44.699 -11.173   5.876  1.00  0.00    -0.274 OA
BRANCH  15  18
HETATM   18  C   UNL     1      43.074  -9.724   7.709  1.00  0.00     0.161 C 
BRANCH  18  19
HETATM   19  C   UNL     1      42.549  -9.363   9.074  1.00  0.00    -0.038 A 
HETATM   20  C   UNL     1      43.048  -9.991  10.226  1.00  0.00     0.048 A 
HETATM   21  C   UNL     1      42.557  -9.582  11.450  1.00  0.00     0.105 A 
HETATM   22  C   UNL     1      41.613  -8.590  11.561  1.00  0.00     0.105 A 
HETATM   23  O   UNL     1      42.933 -10.078  12.660  1.00  0.00    -0.323 OA
HETATM   24  O   UNL     1      41.275  -8.336  12.853  1.00  0.00    -0.323 OA
HETATM   25  C   UNL     1      41.100  -7.950  10.455  1.00  0.00     0.040 A 
HETATM   26  C   UNL     1      42.114  -9.285  13.544  1.00  0.00     0.352 A 
HETATM   27  C   UNL     1      41.576  -8.342   9.201  1.00  0.00     0.012 A 
ENDBRANCH  18  19
ENDBRANCH  15  18
ENDBRANCH  13  14
ENDBRANCH  12  13
ENDBRANCH   4  12
BRANCH   1  28
HETATM   28  C   UNL     1      42.918 -15.747   1.512  1.00  0.00     0.237 C 
BRANCH  28  29
HETATM   29  C   UNL     1      41.498 -15.279   1.215  1.00  0.00     0.240 C 
HETATM   30  N   UNL     1      41.461 -14.074   0.532  1.00  0.00    -0.325 N 
HETATM   31  H   UNL     1      42.261 -13.909  -0.083  1.00  0.00     0.169 HD
HETATM   32  O   UNL     1      40.525 -15.963   1.524  1.00  0.00    -0.271 OA
BRANCH  30  33
HETATM   33  C   UNL     1      40.314 -13.278   0.320  1.00  0.00     0.042 A 
HETATM   34  C   UNL     1      39.544 -13.287  -0.861  1.00  0.00    -0.035 A 
HETATM   35  C   UNL     1      39.799 -14.197  -2.031  1.00  0.00     0.050 C 
HETATM   36  C   UNL     1      38.427 -12.431  -0.952  1.00  0.00     0.011 A 
HETATM   37  C   UNL     1      38.048 -11.626   0.118  1.00  0.00     0.024 A 
HETATM   38  C   UNL     1      38.778 -11.671   1.298  1.00  0.00     0.036 A 
HETATM   39  C   UNL     1      39.895 -12.498   1.409  1.00  0.00     0.053 A 
HETATM   40 CL   UNL     1      38.301 -10.692   2.632  1.00  0.00    -0.084 Cl
ENDBRANCH  30  33
ENDBRANCH  28  29
ENDBRANCH   1  28
TORSDOF 8
ENDMDL
