MODEL 1
REMARK VINA RESULT:      -8.4      0.000      0.000
REMARK  9 active torsions:
REMARK  status: ('A' for Active; 'I' for Inactive)
REMARK    1  A    between atoms: C_2  and  C_3 
REMARK    2  A    between atoms: C_3  and  C_4 
REMARK    3  A    between atoms: C_4  and  N_5 
REMARK    4  A    between atoms: C_14  and  C_15 
REMARK    5  A    between atoms: C_15  and  C_16 
REMARK    6  A    between atoms: C_16  and  C_17 
REMARK       I    between atoms: C_17  and  N_18 
REMARK    7  A    between atoms: N_18  and  C_19 
REMARK    8  A    between atoms: N_32  and  C_33 
REMARK    9  A    between atoms: C_33  and  C_34 
ROOT
HETATM    1  N   UNL     1      43.693 -17.584   4.377  1.00  0.00    -0.282 N 
HETATM    2  C   UNL     1      43.640 -18.263   5.593  1.00  0.00     0.331 A 
HETATM    3  O   UNL     1      43.994 -19.431   5.744  1.00  0.00    -0.246 OA
HETATM    4  N   UNL     1      43.178 -17.559   6.687  1.00  0.00    -0.273 N 
HETATM    5  C   UNL     1      42.771 -16.245   6.729  1.00  0.00     0.280 A 
HETATM    6  O   UNL     1      42.432 -15.697   7.770  1.00  0.00    -0.265 OA
HETATM    7  C   UNL     1      42.834 -15.614   5.453  1.00  0.00     0.151 A 
HETATM    8  C   UNL     1      43.294 -16.264   4.345  1.00  0.00     0.168 A 
HETATM    9  N   UNL     1      43.323 -15.447   3.262  1.00  0.00    -0.215 NA
HETATM   10  C   UNL     1      42.772 -14.312   3.664  1.00  0.00     0.109 A 
HETATM   11  N   UNL     1      42.479 -14.364   5.019  1.00  0.00    -0.327 N 
HETATM   12  H   UNL     1      43.147 -18.071   7.557  1.00  0.00     0.173 HD
ENDROOT
BRANCH  10  13
HETATM   13  C   UNL     1      42.518 -13.126   2.781  1.00  0.00     0.088 C 
BRANCH  13  14
HETATM   14  C   UNL     1      41.968 -13.518   1.410  1.00  0.00     0.110 C 
BRANCH  14  15
HETATM   15  C   UNL     1      40.511 -13.136   1.226  1.00  0.00     0.218 C 
HETATM   16  N   UNL     1      40.241 -12.355   0.120  1.00  0.00    -0.356 N 
HETATM   17  H   UNL     1      40.997 -12.401  -0.572  1.00  0.00     0.162 HD
HETATM   18  O   UNL     1      39.655 -13.483   2.030  1.00  0.00    -0.274 OA
BRANCH  16  19
HETATM   19  C   UNL     1      38.910 -12.123  -0.431  1.00  0.00     0.089 C 
HETATM   20  C   UNL     1      38.435 -13.339  -1.240  1.00  0.00     0.063 C 
HETATM   21  C   UNL     1      39.001 -13.442  -2.667  1.00  0.00     0.121 C 
HETATM   22  C   UNL     1      40.446 -13.948  -2.721  1.00  0.00     0.046 C 
HETATM   23  C   UNL     1      38.139 -14.427  -3.485  1.00  0.00     0.046 C 
HETATM   24  N   UNL     1      38.889 -12.110  -3.377  1.00  0.00    -0.059 N 
HETATM   25  H   UNL     1      37.907 -12.003  -3.669  1.00  0.00     0.279 HD
HETATM   26  H   UNL     1      39.410 -12.155  -4.264  1.00  0.00     0.279 HD
HETATM   27  C   UNL     1      39.270 -10.830  -2.657  1.00  0.00     0.121 C 
HETATM   28  C   UNL     1      38.626  -9.682  -3.467  1.00  0.00     0.046 C 
HETATM   29  C   UNL     1      40.785 -10.627  -2.712  1.00  0.00     0.046 C 
HETATM   30  C   UNL     1      38.662 -10.849  -1.251  1.00  0.00     0.063 C 
ENDBRANCH  16  19
ENDBRANCH  14  15
ENDBRANCH  13  14
ENDBRANCH  10  13
BRANCH  11  31
HETATM   31  C   UNL     1      41.957 -13.278   5.830  1.00  0.00     0.134 C 
BRANCH  31  32
HETATM   32  C   UNL     1      42.944 -12.124   6.057  1.00  0.00    -0.004 C 
HETATM   33  C   UNL     1      42.233 -10.832   6.461  1.00  0.00     0.011 C 
HETATM   34  C   UNL     1      43.955 -12.521   7.134  1.00  0.00     0.011 C 
ENDBRANCH  31  32
ENDBRANCH  11  31
BRANCH   1  35
HETATM   35  C   UNL     1      44.074 -18.297   3.161  1.00  0.00     0.135 C 
BRANCH  35  36
HETATM   36  C   UNL     1      42.892 -18.714   2.285  1.00  0.00     0.020 C 
BRANCH  36  37
HETATM   37  C   UNL     1      42.957 -20.177   1.848  1.00  0.00    -0.003 C 
HETATM   38  C   UNL     1      44.012 -20.938   2.635  1.00  0.00     0.005 C 
ENDBRANCH  36  37
ENDBRANCH  35  36
ENDBRANCH   1  35
TORSDOF 9
ENDMDL
MODEL 2
REMARK VINA RESULT:      -8.2      1.914      2.560
REMARK  9 active torsions:
REMARK  status: ('A' for Active; 'I' for Inactive)
REMARK    1  A    between atoms: C_2  and  C_3 
REMARK    2  A    between atoms: C_3  and  C_4 
REMARK    3  A    between atoms: C_4  and  N_5 
REMARK    4  A    between atoms: C_14  and  C_15 
REMARK    5  A    between atoms: C_15  and  C_16 
REMARK    6  A    between atoms: C_16  and  C_17 
REMARK       I    between atoms: C_17  and  N_18 
REMARK    7  A    between atoms: N_18  and  C_19 
REMARK    8  A    between atoms: N_32  and  C_33 
REMARK    9  A    between atoms: C_33  and  C_34 
ROOT
HETATM    1  N   UNL     1      43.387 -16.589   5.370  1.00  0.00    -0.282 N 
HETATM    2  C   UNL     1      44.211 -15.928   6.279  1.00  0.00     0.331 A 
HETATM    3  O   UNL     1      45.066 -16.488   6.964  1.00  0.00    -0.246 OA
HETATM    4  N   UNL     1      44.058 -14.561   6.389  1.00  0.00    -0.273 N 
HETATM    5  C   UNL     1      43.189 -13.755   5.691  1.00  0.00     0.280 A 
HETATM    6  O   UNL     1      43.174 -12.537   5.823  1.00  0.00    -0.265 OA
HETATM    7  C   UNL     1      42.366 -14.492   4.791  1.00  0.00     0.151 A 
HETATM    8  C   UNL     1      42.487 -15.842   4.639  1.00  0.00     0.168 A 
HETATM    9  N   UNL     1      41.646 -16.315   3.685  1.00  0.00    -0.215 NA
HETATM   10  C   UNL     1      40.913 -15.276   3.317  1.00  0.00     0.109 A 
HETATM   11  N   UNL     1      41.342 -14.124   3.958  1.00  0.00    -0.327 N 
HETATM   12  H   UNL     1      44.665 -14.103   7.054  1.00  0.00     0.173 HD
ENDROOT
BRANCH  10  13
HETATM   13  C   UNL     1      39.785 -15.333   2.329  1.00  0.00     0.088 C 
BRANCH  13  14
HETATM   14  C   UNL     1      40.264 -15.243   0.880  1.00  0.00     0.110 C 
BRANCH  14  15
HETATM   15  C   UNL     1      40.361 -13.814   0.377  1.00  0.00     0.218 C 
HETATM   16  N   UNL     1      39.187 -13.281  -0.114  1.00  0.00    -0.356 N 
HETATM   17  H   UNL     1      38.366 -13.806   0.207  1.00  0.00     0.162 HD
HETATM   18  O   UNL     1      41.424 -13.205   0.390  1.00  0.00    -0.274 OA
BRANCH  16  19
HETATM   19  C   UNL     1      38.956 -11.862  -0.361  1.00  0.00     0.089 C 
HETATM   20  C   UNL     1      37.561 -11.632  -0.962  1.00  0.00     0.063 C 
HETATM   21  C   UNL     1      37.439 -11.908  -2.470  1.00  0.00     0.121 C 
HETATM   22  C   UNL     1      37.363 -13.398  -2.819  1.00  0.00     0.046 C 
HETATM   23  C   UNL     1      36.152 -11.246  -3.005  1.00  0.00     0.046 C 
HETATM   24  N   UNL     1      38.581 -11.255  -3.220  1.00  0.00    -0.059 N 
HETATM   25  H   UNL     1      38.365 -10.250  -3.286  1.00  0.00     0.279 HD
HETATM   26  H   UNL     1      38.571 -11.579  -4.198  1.00  0.00     0.279 HD
HETATM   27  C   UNL     1      39.998 -11.360  -2.689  1.00  0.00     0.121 C 
HETATM   28  C   UNL     1      40.800 -10.248  -3.403  1.00  0.00     0.046 C 
HETATM   29  C   UNL     1      40.615 -12.698  -3.101  1.00  0.00     0.046 C 
HETATM   30  C   UNL     1      39.988 -11.078  -1.184  1.00  0.00     0.063 C 
ENDBRANCH  16  19
ENDBRANCH  14  15
ENDBRANCH  13  14
ENDBRANCH  10  13
BRANCH  11  31
HETATM   31  C   UNL     1      40.843 -12.778   3.737  1.00  0.00     0.134 C 
BRANCH  31  32
HETATM   32  C   UNL     1      39.494 -12.483   4.410  1.00  0.00    -0.004 C 
HETATM   33  C   UNL     1      39.649 -12.196   5.904  1.00  0.00     0.011 C 
HETATM   34  C   UNL     1      38.827 -11.294   3.717  1.00  0.00     0.011 C 
ENDBRANCH  31  32
ENDBRANCH  11  31
BRANCH   1  35
HETATM   35  C   UNL     1      43.425 -18.046   5.277  1.00  0.00     0.135 C 
BRANCH  35  36
HETATM   36  C   UNL     1      44.221 -18.575   4.082  1.00  0.00     0.020 C 
BRANCH  36  37
HETATM   37  C   UNL     1      43.889 -20.026   3.737  1.00  0.00    -0.003 C 
HETATM   38  C   UNL     1      43.523 -20.170   2.268  1.00  0.00     0.005 C 
ENDBRANCH  36  37
ENDBRANCH  35  36
ENDBRANCH   1  35
TORSDOF 9
ENDMDL
MODEL 3
REMARK VINA RESULT:      -8.2      1.451      4.738
REMARK  9 active torsions:
REMARK  status: ('A' for Active; 'I' for Inactive)
REMARK    1  A    between atoms: C_2  and  C_3 
REMARK    2  A    between atoms: C_3  and  C_4 
REMARK    3  A    between atoms: C_4  and  N_5 
REMARK    4  A    between atoms: C_14  and  C_15 
REMARK    5  A    between atoms: C_15  and  C_16 
REMARK    6  A    between atoms: C_16  and  C_17 
REMARK       I    between atoms: C_17  and  N_18 
REMARK    7  A    between atoms: N_18  and  C_19 
REMARK    8  A    between atoms: N_32  and  C_33 
REMARK    9  A    between atoms: C_33  and  C_34 
ROOT
HETATM    1  N   UNL     1      43.496 -12.675   5.639  1.00  0.00    -0.282 N 
HETATM    2  C   UNL     1      43.669 -13.019   6.979  1.00  0.00     0.331 A 
HETATM    3  O   UNL     1      43.959 -12.215   7.862  1.00  0.00    -0.246 OA
HETATM    4  N   UNL     1      43.479 -14.344   7.318  1.00  0.00    -0.273 N 
HETATM    5  C   UNL     1      43.121 -15.380   6.487  1.00  0.00     0.280 A 
HETATM    6  O   UNL     1      42.920 -16.515   6.902  1.00  0.00    -0.265 OA
HETATM    7  C   UNL     1      42.975 -14.966   5.132  1.00  0.00     0.151 A 
HETATM    8  C   UNL     1      43.141 -13.667   4.748  1.00  0.00     0.168 A 
HETATM    9  N   UNL     1      42.890 -13.500   3.425  1.00  0.00    -0.215 NA
HETATM   10  C   UNL     1      42.678 -14.718   2.952  1.00  0.00     0.109 A 
HETATM   11  N   UNL     1      42.696 -15.651   3.978  1.00  0.00    -0.327 N 
HETATM   12  H   UNL     1      43.610 -14.570   8.294  1.00  0.00     0.173 HD
ENDROOT
BRANCH  10  13
HETATM   13  C   UNL     1      42.432 -15.042   1.507  1.00  0.00     0.088 C 
BRANCH  13  14
HETATM   14  C   UNL     1      40.952 -15.259   1.195  1.00  0.00     0.110 C 
BRANCH  14  15
HETATM   15  C   UNL     1      40.154 -13.968   1.188  1.00  0.00     0.218 C 
HETATM   16  N   UNL     1      40.317 -13.180   0.067  1.00  0.00    -0.356 N 
HETATM   17  H   UNL     1      40.705 -13.711  -0.720  1.00  0.00     0.162 HD
HETATM   18  O   UNL     1      39.442 -13.654   2.135  1.00  0.00    -0.274 OA
BRANCH  16  19
HETATM   19  C   UNL     1      39.443 -12.071  -0.306  1.00  0.00     0.089 C 
HETATM   20  C   UNL     1      38.124 -12.590  -0.895  1.00  0.00     0.063 C 
HETATM   21  C   UNL     1      38.188 -13.028  -2.369  1.00  0.00     0.121 C 
HETATM   22  C   UNL     1      38.840 -14.399  -2.576  1.00  0.00     0.046 C 
HETATM   23  C   UNL     1      36.755 -13.112  -2.936  1.00  0.00     0.046 C 
HETATM   24  N   UNL     1      38.899 -11.981  -3.199  1.00  0.00    -0.059 N 
HETATM   25  H   UNL     1      38.231 -11.212  -3.354  1.00  0.00     0.279 HD
HETATM   26  H   UNL     1      39.070 -12.358  -4.143  1.00  0.00     0.279 HD
HETATM   27  C   UNL     1      40.180 -11.348  -2.691  1.00  0.00     0.121 C 
HETATM   28  C   UNL     1      40.373 -10.059  -3.522  1.00  0.00     0.046 C 
HETATM   29  C   UNL     1      41.371 -12.261  -2.990  1.00  0.00     0.046 C 
HETATM   30  C   UNL     1      39.998 -10.969  -1.218  1.00  0.00     0.063 C 
ENDBRANCH  16  19
ENDBRANCH  14  15
ENDBRANCH  13  14
ENDBRANCH  10  13
BRANCH  11  31
HETATM   31  C   UNL     1      42.409 -17.070   3.857  1.00  0.00     0.134 C 
BRANCH  31  32
HETATM   32  C   UNL     1      43.592 -17.916   3.363  1.00  0.00    -0.004 C 
HETATM   33  C   UNL     1      44.206 -18.754   4.485  1.00  0.00     0.011 C 
HETATM   34  C   UNL     1      43.127 -18.828   2.226  1.00  0.00     0.011 C 
ENDBRANCH  31  32
ENDBRANCH  11  31
BRANCH   1  35
HETATM   35  C   UNL     1      43.780 -11.314   5.194  1.00  0.00     0.135 C 
BRANCH  35  36
HETATM   36  C   UNL     1      42.534 -10.503   4.831  1.00  0.00     0.020 C 
BRANCH  36  37
HETATM   37  C   UNL     1      41.544 -10.375   5.988  1.00  0.00    -0.003 C 
HETATM   38  C   UNL     1      42.024  -9.358   7.011  1.00  0.00     0.005 C 
ENDBRANCH  36  37
ENDBRANCH  35  36
ENDBRANCH   1  35
TORSDOF 9
ENDMDL
MODEL 4
REMARK VINA RESULT:      -8.1      1.946      2.942
REMARK  9 active torsions:
REMARK  status: ('A' for Active; 'I' for Inactive)
REMARK    1  A    between atoms: C_2  and  C_3 
REMARK    2  A    between atoms: C_3  and  C_4 
REMARK    3  A    between atoms: C_4  and  N_5 
REMARK    4  A    between atoms: C_14  and  C_15 
REMARK    5  A    between atoms: C_15  and  C_16 
REMARK    6  A    between atoms: C_16  and  C_17 
REMARK       I    between atoms: C_17  and  N_18 
REMARK    7  A    between atoms: N_18  and  C_19 
REMARK    8  A    between atoms: N_32  and  C_33 
REMARK    9  A    between atoms: C_33  and  C_34 
ROOT
HETATM    1  N   UNL     1      43.111 -16.560   5.219  1.00  0.00    -0.282 N 
HETATM    2  C   UNL     1      42.731 -16.719   6.550  1.00  0.00     0.331 A 
HETATM    3  O   UNL     1      43.343 -17.413   7.361  1.00  0.00    -0.246 OA
HETATM    4  N   UNL     1      41.609 -16.033   6.971  1.00  0.00    -0.273 N 
HETATM    5  C   UNL     1      40.816 -15.188   6.231  1.00  0.00     0.280 A 
HETATM    6  O   UNL     1      39.871 -14.580   6.719  1.00  0.00    -0.265 OA
HETATM    7  C   UNL     1      41.248 -15.080   4.878  1.00  0.00     0.151 A 
HETATM    8  C   UNL     1      42.357 -15.729   4.417  1.00  0.00     0.168 A 
HETATM    9  N   UNL     1      42.609 -15.428   3.118  1.00  0.00    -0.215 NA
HETATM   10  C   UNL     1      41.591 -14.677   2.728  1.00  0.00     0.109 A 
HETATM   11  N   UNL     1      40.739 -14.417   3.792  1.00  0.00    -0.327 N 
HETATM   12  H   UNL     1      41.352 -16.164   7.939  1.00  0.00     0.173 HD
ENDROOT
BRANCH  10  13
HETATM   13  C   UNL     1      41.394 -14.162   1.332  1.00  0.00     0.088 C 
BRANCH  13  14
HETATM   14  C   UNL     1      40.445 -15.033   0.510  1.00  0.00     0.110 C 
BRANCH  14  15
HETATM   15  C   UNL     1      39.981 -14.359  -0.768  1.00  0.00     0.218 C 
HETATM   16  N   UNL     1      40.573 -13.143  -1.042  1.00  0.00    -0.356 N 
HETATM   17  H   UNL     1      41.445 -13.017  -0.517  1.00  0.00     0.162 HD
HETATM   18  O   UNL     1      39.119 -14.863  -1.478  1.00  0.00    -0.274 OA
BRANCH  16  19
HETATM   19  C   UNL     1      40.524 -12.464  -2.333  1.00  0.00     0.089 C 
HETATM   20  C   UNL     1      41.486 -11.267  -2.358  1.00  0.00     0.063 C 
HETATM   21  C   UNL     1      40.966  -9.990  -1.674  1.00  0.00     0.121 C 
HETATM   22  C   UNL     1      41.036 -10.039  -0.145  1.00  0.00     0.046 C 
HETATM   23  C   UNL     1      41.814  -8.787  -2.135  1.00  0.00     0.046 C 
HETATM   24  N   UNL     1      39.551  -9.692  -2.122  1.00  0.00    -0.059 N 
HETATM   25  H   UNL     1      39.611  -9.281  -3.064  1.00  0.00     0.279 HD
HETATM   26  H   UNL     1      39.166  -8.933  -1.542  1.00  0.00     0.279 HD
HETATM   27  C   UNL     1      38.526 -10.808  -2.199  1.00  0.00     0.121 C 
HETATM   28  C   UNL     1      37.383 -10.270  -3.089  1.00  0.00     0.046 C 
HETATM   29  C   UNL     1      37.934 -11.073  -0.814  1.00  0.00     0.046 C 
HETATM   30  C   UNL     1      39.161 -12.021  -2.884  1.00  0.00     0.063 C 
ENDBRANCH  16  19
ENDBRANCH  14  15
ENDBRANCH  13  14
ENDBRANCH  10  13
BRANCH  11  31
HETATM   31  C   UNL     1      39.571 -13.554   3.770  1.00  0.00     0.134 C 
BRANCH  31  32
HETATM   32  C   UNL     1      39.889 -12.054   3.861  1.00  0.00    -0.004 C 
HETATM   33  C   UNL     1      39.165 -11.248   2.781  1.00  0.00     0.011 C 
HETATM   34  C   UNL     1      39.503 -11.533   5.246  1.00  0.00     0.011 C 
ENDBRANCH  31  32
ENDBRANCH  11  31
BRANCH   1  35
HETATM   35  C   UNL     1      44.227 -17.334   4.682  1.00  0.00     0.135 C 
BRANCH  35  36
HETATM   36  C   UNL     1      43.836 -18.724   4.175  1.00  0.00     0.020 C 
BRANCH  36  37
HETATM   37  C   UNL     1      43.727 -18.798   2.653  1.00  0.00    -0.003 C 
HETATM   38  C   UNL     1      43.312 -20.188   2.200  1.00  0.00     0.005 C 
ENDBRANCH  36  37
ENDBRANCH  35  36
ENDBRANCH   1  35
TORSDOF 9
ENDMDL
MODEL 5
REMARK VINA RESULT:      -8.0      1.889      2.942
REMARK  9 active torsions:
REMARK  status: ('A' for Active; 'I' for Inactive)
REMARK    1  A    between atoms: C_2  and  C_3 
REMARK    2  A    between atoms: C_3  and  C_4 
REMARK    3  A    between atoms: C_4  and  N_5 
REMARK    4  A    between atoms: C_14  and  C_15 
REMARK    5  A    between atoms: C_15  and  C_16 
REMARK    6  A    between atoms: C_16  and  C_17 
REMARK       I    between atoms: C_17  and  N_18 
REMARK    7  A    between atoms: N_18  and  C_19 
REMARK    8  A    between atoms: N_32  and  C_33 
REMARK    9  A    between atoms: C_33  and  C_34 
ROOT
HETATM    1  N   UNL     1      42.887 -15.753   4.702  1.00  0.00    -0.282 N 
HETATM    2  C   UNL     1      43.619 -16.074   5.844  1.00  0.00     0.331 A 
HETATM    3  O   UNL     1      43.963 -17.217   6.141  1.00  0.00    -0.246 OA
HETATM    4  N   UNL     1      43.988 -15.031   6.669  1.00  0.00    -0.273 N 
HETATM    5  C   UNL     1      43.731 -13.690   6.493  1.00  0.00     0.280 A 
HETATM    6  O   UNL     1      44.157 -12.835   7.259  1.00  0.00    -0.265 OA
HETATM    7  C   UNL     1      42.968 -13.432   5.318  1.00  0.00     0.151 A 
HETATM    8  C   UNL     1      42.589 -14.427   4.466  1.00  0.00     0.168 A 
HETATM    9  N   UNL     1      41.928 -13.937   3.387  1.00  0.00    -0.215 NA
HETATM   10  C   UNL     1      41.791 -12.641   3.618  1.00  0.00     0.109 A 
HETATM   11  N   UNL     1      42.442 -12.282   4.789  1.00  0.00    -0.327 N 
HETATM   12  H   UNL     1      44.517 -15.287   7.491  1.00  0.00     0.173 HD
ENDROOT
BRANCH  10  13
HETATM   13  C   UNL     1      41.050 -11.688   2.727  1.00  0.00     0.088 C 
BRANCH  13  14
HETATM   14  C   UNL     1      41.963 -10.635   2.101  1.00  0.00     0.110 C 
BRANCH  14  15
HETATM   15  C   UNL     1      41.750 -10.481   0.606  1.00  0.00     0.218 C 
HETATM   16  N   UNL     1      41.179 -11.568  -0.023  1.00  0.00    -0.356 N 
HETATM   17  H   UNL     1      40.708 -12.190   0.642  1.00  0.00     0.162 HD
HETATM   18  O   UNL     1      42.094  -9.464   0.014  1.00  0.00    -0.274 OA
BRANCH  16  19
HETATM   19  C   UNL     1      40.603 -11.547  -1.364  1.00  0.00     0.089 C 
HETATM   20  C   UNL     1      39.271 -10.781  -1.374  1.00  0.00     0.063 C 
HETATM   21  C   UNL     1      38.052 -11.573  -0.869  1.00  0.00     0.121 C 
HETATM   22  C   UNL     1      37.990 -11.700   0.656  1.00  0.00     0.046 C 
HETATM   23  C   UNL     1      36.761 -10.862  -1.325  1.00  0.00     0.046 C 
HETATM   24  N   UNL     1      38.014 -12.945  -1.508  1.00  0.00    -0.059 N 
HETATM   25  H   UNL     1      37.661 -12.823  -2.468  1.00  0.00     0.279 HD
HETATM   26  H   UNL     1      37.290 -13.513  -1.046  1.00  0.00     0.279 HD
HETATM   27  C   UNL     1      39.282 -13.771  -1.613  1.00  0.00     0.121 C 
HETATM   28  C   UNL     1      38.993 -14.854  -2.677  1.00  0.00     0.046 C 
HETATM   29  C   UNL     1      39.548 -14.495  -0.292  1.00  0.00     0.046 C 
HETATM   30  C   UNL     1      40.420 -12.875  -2.111  1.00  0.00     0.063 C 
ENDBRANCH  16  19
ENDBRANCH  14  15
ENDBRANCH  13  14
ENDBRANCH  10  13
BRANCH  11  31
HETATM   31  C   UNL     1      42.589 -10.937   5.316  1.00  0.00     0.134 C 
BRANCH  31  32
HETATM   32  C   UNL     1      41.560 -10.560   6.391  1.00  0.00    -0.004 C 
HETATM   33  C   UNL     1      42.206  -9.839   7.576  1.00  0.00     0.011 C 
HETATM   34  C   UNL     1      40.475  -9.676   5.773  1.00  0.00     0.011 C 
ENDBRANCH  31  32
ENDBRANCH  11  31
BRANCH   1  35
HETATM   35  C   UNL     1      42.378 -16.816   3.841  1.00  0.00     0.135 C 
BRANCH  35  36
HETATM   36  C   UNL     1      43.322 -17.203   2.701  1.00  0.00     0.020 C 
BRANCH  36  37
HETATM   37  C   UNL     1      43.963 -18.577   2.894  1.00  0.00    -0.003 C 
HETATM   38  C   UNL     1      43.213 -19.647   2.116  1.00  0.00     0.005 C 
ENDBRANCH  36  37
ENDBRANCH  35  36
ENDBRANCH   1  35
TORSDOF 9
ENDMDL
MODEL 6
REMARK VINA RESULT:      -7.8      4.663      9.450
REMARK  9 active torsions:
REMARK  status: ('A' for Active; 'I' for Inactive)
REMARK    1  A    between atoms: C_2  and  C_3 
REMARK    2  A    between atoms: C_3  and  C_4 
REMARK    3  A    between atoms: C_4  and  N_5 
REMARK    4  A    between atoms: C_14  and  C_15 
REMARK    5  A    between atoms: C_15  and  C_16 
REMARK    6  A    between atoms: C_16  and  C_17 
REMARK       I    between atoms: C_17  and  N_18 
REMARK    7  A    between atoms: N_18  and  C_19 
REMARK    8  A    between atoms: N_32  and  C_33 
REMARK    9  A    between atoms: C_33  and  C_34 
ROOT
HETATM    1  N   UNL     1      42.058 -15.065   5.759  1.00  0.00    -0.282 N 
HETATM    2  C   UNL     1      40.903 -15.312   5.019  1.00  0.00     0.331 A 
HETATM    3  O   UNL     1      40.473 -16.438   4.773  1.00  0.00    -0.246 OA
HETATM    4  N   UNL     1      40.203 -14.215   4.560  1.00  0.00    -0.273 N 
HETATM    5  C   UNL     1      40.501 -12.886   4.759  1.00  0.00     0.280 A 
HETATM    6  O   UNL     1      39.777 -11.984   4.356  1.00  0.00    -0.265 OA
HETATM    7  C   UNL     1      41.699 -12.702   5.507  1.00  0.00     0.151 A 
HETATM    8  C   UNL     1      42.420 -13.755   5.992  1.00  0.00     0.168 A 
HETATM    9  N   UNL     1      43.483 -13.337   6.726  1.00  0.00    -0.215 NA
HETATM   10  C   UNL     1      43.495 -12.019   6.606  1.00  0.00     0.109 A 
HETATM   11  N   UNL     1      42.395 -11.583   5.883  1.00  0.00    -0.327 N 
HETATM   12  H   UNL     1      39.370 -14.417   4.026  1.00  0.00     0.173 HD
ENDROOT
BRANCH  10  13
HETATM   13  C   UNL     1      44.544 -11.119   7.190  1.00  0.00     0.088 C 
BRANCH  13  14
HETATM   14  C   UNL     1      44.390 -10.933   8.699  1.00  0.00     0.110 C 
BRANCH  14  15
HETATM   15  C   UNL     1      44.321  -9.474   9.112  1.00  0.00     0.218 C 
HETATM   16  N   UNL     1      43.356  -9.172  10.051  1.00  0.00    -0.356 N 
HETATM   17  H   UNL     1      43.037 -10.008  10.552  1.00  0.00     0.162 HD
HETATM   18  O   UNL     1      45.062  -8.636   8.613  1.00  0.00    -0.274 OA
BRANCH  16  19
HETATM   19  C   UNL     1      43.300  -7.931  10.817  1.00  0.00     0.089 C 
HETATM   20  C   UNL     1      43.359  -8.218  12.325  1.00  0.00     0.063 C 
HETATM   21  C   UNL     1      42.032  -8.666  12.963  1.00  0.00     0.121 C 
HETATM   22  C   UNL     1      41.677 -10.129  12.680  1.00  0.00     0.046 C 
HETATM   23  C   UNL     1      42.126  -8.503  14.495  1.00  0.00     0.046 C 
HETATM   24  N   UNL     1      40.903  -7.759  12.521  1.00  0.00    -0.059 N 
HETATM   25  H   UNL     1      40.983  -6.887  13.064  1.00  0.00     0.279 HD
HETATM   26  H   UNL     1      40.007  -8.163  12.828  1.00  0.00     0.279 HD
HETATM   27  C   UNL     1      40.777  -7.355  11.065  1.00  0.00     0.121 C 
HETATM   28  C   UNL     1      39.846  -6.122  11.048  1.00  0.00     0.046 C 
HETATM   29  C   UNL     1      40.078  -8.460  10.271  1.00  0.00     0.046 C 
HETATM   30  C   UNL     1      42.157  -6.944  10.542  1.00  0.00     0.063 C 
ENDBRANCH  16  19
ENDBRANCH  14  15
ENDBRANCH  13  14
ENDBRANCH  10  13
BRANCH  11  31
HETATM   31  C   UNL     1      42.022 -10.202   5.629  1.00  0.00     0.134 C 
BRANCH  31  32
HETATM   32  C   UNL     1      41.389  -9.486   6.831  1.00  0.00    -0.004 C 
HETATM   33  C   UNL     1      41.801  -8.014   6.903  1.00  0.00     0.011 C 
HETATM   34  C   UNL     1      39.866  -9.597   6.749  1.00  0.00     0.011 C 
ENDBRANCH  31  32
ENDBRANCH  11  31
BRANCH   1  35
HETATM   35  C   UNL     1      42.901 -16.178   6.188  1.00  0.00     0.135 C 
BRANCH  35  36
HETATM   36  C   UNL     1      43.994 -16.556   5.186  1.00  0.00     0.020 C 
BRANCH  36  37
HETATM   37  C   UNL     1      43.699 -17.856   4.439  1.00  0.00    -0.003 C 
HETATM   38  C   UNL     1      43.371 -17.588   2.979  1.00  0.00     0.005 C 
ENDBRANCH  36  37
ENDBRANCH  35  36
ENDBRANCH   1  35
TORSDOF 9
ENDMDL
MODEL 7
REMARK VINA RESULT:      -7.8      2.154      5.412
REMARK  9 active torsions:
REMARK  status: ('A' for Active; 'I' for Inactive)
REMARK    1  A    between atoms: C_2  and  C_3 
REMARK    2  A    between atoms: C_3  and  C_4 
REMARK    3  A    between atoms: C_4  and  N_5 
REMARK    4  A    between atoms: C_14  and  C_15 
REMARK    5  A    between atoms: C_15  and  C_16 
REMARK    6  A    between atoms: C_16  and  C_17 
REMARK       I    between atoms: C_17  and  N_18 
REMARK    7  A    between atoms: N_18  and  C_19 
REMARK    8  A    between atoms: N_32  and  C_33 
REMARK    9  A    between atoms: C_33  and  C_34 
ROOT
HETATM    1  N   UNL     1      43.428 -12.599   5.607  1.00  0.00    -0.282 N 
HETATM    2  C   UNL     1      43.726 -12.955   6.921  1.00  0.00     0.331 A 
HETATM    3  O   UNL     1      44.057 -12.152   7.792  1.00  0.00    -0.246 OA
HETATM    4  N   UNL     1      43.620 -14.291   7.252  1.00  0.00    -0.273 N 
HETATM    5  C   UNL     1      43.235 -15.329   6.434  1.00  0.00     0.280 A 
HETATM    6  O   UNL     1      43.117 -16.477   6.844  1.00  0.00    -0.265 OA
HETATM    7  C   UNL     1      42.960 -14.902   5.104  1.00  0.00     0.151 A 
HETATM    8  C   UNL     1      43.041 -13.592   4.731  1.00  0.00     0.168 A 
HETATM    9  N   UNL     1      42.673 -13.416   3.437  1.00  0.00    -0.215 NA
HETATM   10  C   UNL     1      42.472 -14.635   2.961  1.00  0.00     0.109 A 
HETATM   11  N   UNL     1      42.613 -15.582   3.965  1.00  0.00    -0.327 N 
HETATM   12  H   UNL     1      43.841 -14.526   8.209  1.00  0.00     0.173 HD
ENDROOT
BRANCH  10  13
HETATM   13  C   UNL     1      42.119 -14.948   1.536  1.00  0.00     0.088 C 
BRANCH  13  14
HETATM   14  C   UNL     1      40.668 -15.398   1.373  1.00  0.00     0.110 C 
BRANCH  14  15
HETATM   15  C   UNL     1      39.906 -14.578   0.347  1.00  0.00     0.218 C 
HETATM   16  N   UNL     1      39.536 -13.315   0.760  1.00  0.00    -0.356 N 
HETATM   17  H   UNL     1      40.082 -13.003   1.569  1.00  0.00     0.162 HD
HETATM   18  O   UNL     1      39.626 -15.037  -0.754  1.00  0.00    -0.274 OA
BRANCH  16  19
HETATM   19  C   UNL     1      39.080 -12.249  -0.127  1.00  0.00     0.089 C 
HETATM   20  C   UNL     1      40.269 -11.431  -0.653  1.00  0.00     0.063 C 
HETATM   21  C   UNL     1      40.824 -10.376   0.319  1.00  0.00     0.121 C 
HETATM   22  C   UNL     1      41.698 -10.964   1.432  1.00  0.00     0.046 C 
HETATM   23  C   UNL     1      41.694  -9.371  -0.465  1.00  0.00     0.046 C 
HETATM   24  N   UNL     1      39.695  -9.564   0.917  1.00  0.00    -0.059 N 
HETATM   25  H   UNL     1      39.394  -8.888   0.200  1.00  0.00     0.279 HD
HETATM   26  H   UNL     1      40.067  -8.975   1.676  1.00  0.00     0.279 HD
HETATM   27  C   UNL     1      38.440 -10.257   1.414  1.00  0.00     0.121 C 
HETATM   28  C   UNL     1      37.364  -9.153   1.523  1.00  0.00     0.046 C 
HETATM   29  C   UNL     1      38.667 -10.807   2.823  1.00  0.00     0.046 C 
HETATM   30  C   UNL     1      37.993 -11.287   0.372  1.00  0.00     0.063 C 
ENDBRANCH  16  19
ENDBRANCH  14  15
ENDBRANCH  13  14
ENDBRANCH  10  13
BRANCH  11  31
HETATM   31  C   UNL     1      42.375 -17.009   3.844  1.00  0.00     0.134 C 
BRANCH  31  32
HETATM   32  C   UNL     1      43.546 -17.798   3.237  1.00  0.00    -0.004 C 
HETATM   33  C   UNL     1      44.353 -18.537   4.305  1.00  0.00     0.011 C 
HETATM   34  C   UNL     1      43.011 -18.793   2.207  1.00  0.00     0.011 C 
ENDBRANCH  31  32
ENDBRANCH  11  31
BRANCH   1  35
HETATM   35  C   UNL     1      43.618 -11.221   5.165  1.00  0.00     0.135 C 
BRANCH  35  36
HETATM   36  C   UNL     1      42.322 -10.414   5.060  1.00  0.00     0.020 C 
BRANCH  36  37
HETATM   37  C   UNL     1      41.964  -9.685   6.355  1.00  0.00    -0.003 C 
HETATM   38  C   UNL     1      40.471  -9.411   6.435  1.00  0.00     0.005 C 
ENDBRANCH  36  37
ENDBRANCH  35  36
ENDBRANCH   1  35
TORSDOF 9
ENDMDL
MODEL 8
REMARK VINA RESULT:      -7.8      2.654      5.466
REMARK  9 active torsions:
REMARK  status: ('A' for Active; 'I' for Inactive)
REMARK    1  A    between atoms: C_2  and  C_3 
REMARK    2  A    between atoms: C_3  and  C_4 
REMARK    3  A    between atoms: C_4  and  N_5 
REMARK    4  A    between atoms: C_14  and  C_15 
REMARK    5  A    between atoms: C_15  and  C_16 
REMARK    6  A    between atoms: C_16  and  C_17 
REMARK       I    between atoms: C_17  and  N_18 
REMARK    7  A    between atoms: N_18  and  C_19 
REMARK    8  A    between atoms: N_32  and  C_33 
REMARK    9  A    between atoms: C_33  and  C_34 
ROOT
HETATM    1  N   UNL     1      39.549 -12.511   4.380  1.00  0.00    -0.282 N 
HETATM    2  C   UNL     1      39.628 -12.920   5.710  1.00  0.00     0.331 A 
HETATM    3  O   UNL     1      39.289 -12.222   6.664  1.00  0.00    -0.246 OA
HETATM    4  N   UNL     1      40.100 -14.195   5.950  1.00  0.00    -0.273 N 
HETATM    5  C   UNL     1      40.494 -15.132   5.023  1.00  0.00     0.280 A 
HETATM    6  O   UNL     1      40.844 -16.262   5.341  1.00  0.00    -0.265 OA
HETATM    7  C   UNL     1      40.404 -14.648   3.687  1.00  0.00     0.151 A 
HETATM    8  C   UNL     1      39.934 -13.400   3.398  1.00  0.00     0.168 A 
HETATM    9  N   UNL     1      39.879 -13.184   2.059  1.00  0.00    -0.215 NA
HETATM   10  C   UNL     1      40.424 -14.257   1.508  1.00  0.00     0.109 A 
HETATM   11  N   UNL     1      40.739 -15.198   2.477  1.00  0.00    -0.327 N 
HETATM   12  H   UNL     1      40.149 -14.469   6.921  1.00  0.00     0.173 HD
ENDROOT
BRANCH  10  13
HETATM   13  C   UNL     1      40.652 -14.439   0.036  1.00  0.00     0.088 C 
BRANCH  13  14
HETATM   14  C   UNL     1      39.480 -15.128  -0.662  1.00  0.00     0.110 C 
BRANCH  14  15
HETATM   15  C   UNL     1      38.900 -14.303  -1.797  1.00  0.00     0.218 C 
HETATM   16  N   UNL     1      38.317 -13.110  -1.420  1.00  0.00    -0.356 N 
HETATM   17  H   UNL     1      38.625 -12.813  -0.488  1.00  0.00     0.162 HD
HETATM   18  O   UNL     1      38.932 -14.701  -2.955  1.00  0.00    -0.274 OA
BRANCH  16  19
HETATM   19  C   UNL     1      37.975 -12.025  -2.335  1.00  0.00     0.089 C 
HETATM   20  C   UNL     1      39.239 -11.299  -2.817  1.00  0.00     0.063 C 
HETATM   21  C   UNL     1      39.827 -10.275  -1.831  1.00  0.00     0.121 C 
HETATM   22  C   UNL     1      40.610 -10.910  -0.677  1.00  0.00     0.046 C 
HETATM   23  C   UNL     1      40.798  -9.342  -2.586  1.00  0.00     0.046 C 
HETATM   24  N   UNL     1      38.734  -9.379  -1.288  1.00  0.00    -0.059 N 
HETATM   25  H   UNL     1      38.512  -8.691  -2.022  1.00  0.00     0.279 HD
HETATM   26  H   UNL     1      39.116  -8.809  -0.519  1.00  0.00     0.279 HD
HETATM   27  C   UNL     1      37.414  -9.976  -0.838  1.00  0.00     0.121 C 
HETATM   28  C   UNL     1      36.415  -8.798  -0.784  1.00  0.00     0.046 C 
HETATM   29  C   UNL     1      37.543 -10.525   0.584  1.00  0.00     0.046 C 
HETATM   30  C   UNL     1      36.940 -10.983  -1.889  1.00  0.00     0.063 C 
ENDBRANCH  16  19
ENDBRANCH  14  15
ENDBRANCH  13  14
ENDBRANCH  10  13
BRANCH  11  31
HETATM   31  C   UNL     1      41.263 -16.532   2.245  1.00  0.00     0.134 C 
BRANCH  31  32
HETATM   32  C   UNL     1      42.757 -16.691   2.564  1.00  0.00    -0.004 C 
HETATM   33  C   UNL     1      43.205 -18.152   2.498  1.00  0.00     0.011 C 
HETATM   34  C   UNL     1      43.581 -15.850   1.588  1.00  0.00     0.011 C 
ENDBRANCH  31  32
ENDBRANCH  11  31
BRANCH   1  35
HETATM   35  C   UNL     1      39.155 -11.142   4.060  1.00  0.00     0.135 C 
BRANCH  35  36
HETATM   36  C   UNL     1      40.279 -10.116   4.219  1.00  0.00     0.020 C 
BRANCH  36  37
HETATM   37  C   UNL     1      41.124  -9.953   2.957  1.00  0.00    -0.003 C 
HETATM   38  C   UNL     1      42.398 -10.779   3.038  1.00  0.00     0.005 C 
ENDBRANCH  36  37
ENDBRANCH  35  36
ENDBRANCH   1  35
TORSDOF 9
ENDMDL
MODEL 9
REMARK VINA RESULT:      -7.8      1.979      5.220
REMARK  9 active torsions:
REMARK  status: ('A' for Active; 'I' for Inactive)
REMARK    1  A    between atoms: C_2  and  C_3 
REMARK    2  A    between atoms: C_3  and  C_4 
REMARK    3  A    between atoms: C_4  and  N_5 
REMARK    4  A    between atoms: C_14  and  C_15 
REMARK    5  A    between atoms: C_15  and  C_16 
REMARK    6  A    between atoms: C_16  and  C_17 
REMARK       I    between atoms: C_17  and  N_18 
REMARK    7  A    between atoms: N_18  and  C_19 
REMARK    8  A    between atoms: N_32  and  C_33 
REMARK    9  A    between atoms: C_33  and  C_34 
ROOT
HETATM    1  N   UNL     1      42.745 -11.793   5.488  1.00  0.00    -0.282 N 
HETATM    2  C   UNL     1      43.599 -11.931   6.580  1.00  0.00     0.331 A 
HETATM    3  O   UNL     1      44.045 -10.986   7.229  1.00  0.00    -0.246 OA
HETATM    4  N   UNL     1      43.940 -13.216   6.955  1.00  0.00    -0.273 N 
HETATM    5  C   UNL     1      43.521 -14.395   6.382  1.00  0.00     0.280 A 
HETATM    6  O   UNL     1      43.838 -15.490   6.830  1.00  0.00    -0.265 OA
HETATM    7  C   UNL     1      42.665 -14.184   5.264  1.00  0.00     0.151 A 
HETATM    8  C   UNL     1      42.291 -12.935   4.862  1.00  0.00     0.168 A 
HETATM    9  N   UNL     1      41.424 -12.983   3.819  1.00  0.00    -0.215 NA
HETATM   10  C   UNL     1      41.342 -14.263   3.491  1.00  0.00     0.109 A 
HETATM   11  N   UNL     1      42.073 -15.043   4.374  1.00  0.00    -0.327 N 
HETATM   12  H   UNL     1      44.560 -13.293   7.748  1.00  0.00     0.173 HD
ENDROOT
BRANCH  10  13
HETATM   13  C   UNL     1      40.551 -14.799   2.333  1.00  0.00     0.088 C 
BRANCH  13  14
HETATM   14  C   UNL     1      41.325 -14.750   1.016  1.00  0.00     0.110 C 
BRANCH  14  15
HETATM   15  C   UNL     1      40.423 -14.592  -0.194  1.00  0.00     0.218 C 
HETATM   16  N   UNL     1      40.740 -13.543  -1.033  1.00  0.00    -0.356 N 
HETATM   17  H   UNL     1      41.702 -13.217  -0.888  1.00  0.00     0.162 HD
HETATM   18  O   UNL     1      39.468 -15.337  -0.379  1.00  0.00    -0.274 OA
BRANCH  16  19
HETATM   19  C   UNL     1      40.228 -13.377  -2.390  1.00  0.00     0.089 C 
HETATM   20  C   UNL     1      40.956 -12.234  -3.112  1.00  0.00     0.063 C 
HETATM   21  C   UNL     1      40.470 -10.817  -2.762  1.00  0.00     0.121 C 
HETATM   22  C   UNL     1      40.979 -10.310  -1.408  1.00  0.00     0.046 C 
HETATM   23  C   UNL     1      40.967  -9.830  -3.838  1.00  0.00     0.046 C 
HETATM   24  N   UNL     1      38.959 -10.752  -2.809  1.00  0.00    -0.059 N 
HETATM   25  H   UNL     1      38.687 -10.706  -3.801  1.00  0.00     0.279 HD
HETATM   26  H   UNL     1      38.648  -9.849  -2.422  1.00  0.00     0.279 HD
HETATM   27  C   UNL     1      38.129 -11.857  -2.183  1.00  0.00     0.121 C 
HETATM   28  C   UNL     1      36.715 -11.718  -2.788  1.00  0.00     0.046 C 
HETATM   29  C   UNL     1      38.001 -11.628  -0.676  1.00  0.00     0.046 C 
HETATM   30  C   UNL     1      38.715 -13.212  -2.592  1.00  0.00     0.063 C 
ENDBRANCH  16  19
ENDBRANCH  14  15
ENDBRANCH  13  14
ENDBRANCH  10  13
BRANCH  11  31
HETATM   31  C   UNL     1      42.143 -16.493   4.389  1.00  0.00     0.134 C 
BRANCH  31  32
HETATM   32  C   UNL     1      43.340 -17.078   3.625  1.00  0.00    -0.004 C 
HETATM   33  C   UNL     1      44.177 -18.013   4.500  1.00  0.00     0.011 C 
HETATM   34  C   UNL     1      42.841 -17.829   2.390  1.00  0.00     0.011 C 
ENDBRANCH  31  32
ENDBRANCH  11  31
BRANCH   1  35
HETATM   35  C   UNL     1      42.426 -10.463   4.977  1.00  0.00     0.135 C 
BRANCH  35  36
HETATM   36  C   UNL     1      41.158  -9.851   5.574  1.00  0.00     0.020 C 
BRANCH  36  37
HETATM   37  C   UNL     1      40.050  -9.642   4.543  1.00  0.00    -0.003 C 
HETATM   38  C   UNL     1      38.709 -10.129   5.071  1.00  0.00     0.005 C 
ENDBRANCH  36  37
ENDBRANCH  35  36
ENDBRANCH   1  35
TORSDOF 9
ENDMDL
MODEL 10
REMARK VINA RESULT:      -7.7      3.844      8.638
REMARK  9 active torsions:
REMARK  status: ('A' for Active; 'I' for Inactive)
REMARK    1  A    between atoms: C_2  and  C_3 
REMARK    2  A    between atoms: C_3  and  C_4 
REMARK    3  A    between atoms: C_4  and  N_5 
REMARK    4  A    between atoms: C_14  and  C_15 
REMARK    5  A    between atoms: C_15  and  C_16 
REMARK    6  A    between atoms: C_16  and  C_17 
REMARK       I    between atoms: C_17  and  N_18 
REMARK    7  A    between atoms: N_18  and  C_19 
REMARK    8  A    between atoms: N_32  and  C_33 
REMARK    9  A    between atoms: C_33  and  C_34 
ROOT
HETATM    1  N   UNL     1      40.977 -14.918   3.465  1.00  0.00    -0.282 N 
HETATM    2  C   UNL     1      39.867 -15.038   2.631  1.00  0.00     0.331 A 
HETATM    3  O   UNL     1      39.511 -16.094   2.110  1.00  0.00    -0.246 OA
HETATM    4  N   UNL     1      39.124 -13.897   2.403  1.00  0.00    -0.273 N 
HETATM    5  C   UNL     1      39.338 -12.640   2.918  1.00  0.00     0.280 A 
HETATM    6  O   UNL     1      38.581 -11.703   2.698  1.00  0.00    -0.265 OA
HETATM    7  C   UNL     1      40.494 -12.581   3.748  1.00  0.00     0.151 A 
HETATM    8  C   UNL     1      41.255 -13.683   4.012  1.00  0.00     0.168 A 
HETATM    9  N   UNL     1      42.263 -13.399   4.875  1.00  0.00    -0.215 NA
HETATM   10  C   UNL     1      42.205 -12.091   5.064  1.00  0.00     0.109 A 
HETATM   11  N   UNL     1      41.111 -11.549   4.406  1.00  0.00    -0.327 N 
HETATM   12  H   UNL     1      38.325 -14.008   1.795  1.00  0.00     0.173 HD
ENDROOT
BRANCH  10  13
HETATM   13  C   UNL     1      43.178 -11.304   5.893  1.00  0.00     0.088 C 
BRANCH  13  14
HETATM   14  C   UNL     1      43.623 -12.051   7.150  1.00  0.00     0.110 C 
BRANCH  14  15
HETATM   15  C   UNL     1      44.122 -11.124   8.243  1.00  0.00     0.218 C 
HETATM   16  N   UNL     1      43.154 -10.347   8.845  1.00  0.00    -0.356 N 
HETATM   17  H   UNL     1      42.212 -10.720   8.686  1.00  0.00     0.162 HD
HETATM   18  O   UNL     1      45.311 -11.065   8.535  1.00  0.00    -0.274 OA
BRANCH  16  19
HETATM   19  C   UNL     1      43.329  -9.623  10.101  1.00  0.00     0.089 C 
HETATM   20  C   UNL     1      42.118  -9.827  11.022  1.00  0.00     0.063 C 
HETATM   21  C   UNL     1      40.890  -8.958  10.699  1.00  0.00     0.121 C 
HETATM   22  C   UNL     1      40.082  -9.457   9.496  1.00  0.00     0.046 C 
HETATM   23  C   UNL     1      39.942  -8.947  11.916  1.00  0.00     0.046 C 
HETATM   24  N   UNL     1      41.305  -7.518  10.487  1.00  0.00    -0.059 N 
HETATM   25  H   UNL     1      41.471  -7.110  11.418  1.00  0.00     0.279 HD
HETATM   26  H   UNL     1      40.502  -6.986  10.121  1.00  0.00     0.279 HD
HETATM   27  C   UNL     1      42.525  -7.193   9.646  1.00  0.00     0.121 C 
HETATM   28  C   UNL     1      42.910  -5.741  10.005  1.00  0.00     0.046 C 
HETATM   29  C   UNL     1      42.158  -7.210   8.161  1.00  0.00     0.046 C 
HETATM   30  C   UNL     1      43.670  -8.127  10.049  1.00  0.00     0.063 C 
ENDBRANCH  16  19
ENDBRANCH  14  15
ENDBRANCH  13  14
ENDBRANCH  10  13
BRANCH  11  31
HETATM   31  C   UNL     1      40.671 -10.166   4.460  1.00  0.00     0.134 C 
BRANCH  31  32
HETATM   32  C   UNL     1      40.025  -9.758   5.793  1.00  0.00    -0.004 C 
HETATM   33  C   UNL     1      39.505  -8.320   5.761  1.00  0.00     0.011 C 
HETATM   34  C   UNL     1      38.881 -10.718   6.122  1.00  0.00     0.011 C 
ENDBRANCH  31  32
ENDBRANCH  11  31
BRANCH   1  35
HETATM   35  C   UNL     1      41.864 -16.060   3.667  1.00  0.00     0.135 C 
BRANCH  35  36
HETATM   36  C   UNL     1      42.910 -16.240   2.565  1.00  0.00     0.020 C 
BRANCH  36  37
HETATM   37  C   UNL     1      43.724 -17.525   2.716  1.00  0.00    -0.003 C 
HETATM   38  C   UNL     1      42.939 -18.732   2.229  1.00  0.00     0.005 C 
ENDBRANCH  36  37
ENDBRANCH  35  36
ENDBRANCH   1  35
TORSDOF 9
ENDMDL
