MODEL 1
REMARK VINA RESULT:      -9.8      0.000      0.000
REMARK  8 active torsions:
REMARK  status: ('A' for Active; 'I' for Inactive)
REMARK    1  A    between atoms: C_5  and  C_6 
REMARK    2  A    between atoms: C_11  and  C_12 
REMARK    3  A    between atoms: N_13  and  N_14 
REMARK    4  A    between atoms: C_20  and  C_21 
REMARK    5  A    between atoms: C_21  and  O_22 
REMARK    6  A    between atoms: O_22  and  N_23 
REMARK    7  A    between atoms: N_23  and  C_24 
REMARK    8  A    between atoms: C_24  and  C_25 
ROOT
HETATM    1  N   UNL     1      43.356 -15.996   4.011  1.00  0.00    -0.180 N 
HETATM    2  C   UNL     1      43.312 -16.905   2.944  1.00  0.00     0.282 C 
HETATM    3  O   UNL     1      43.142 -16.618   1.759  1.00  0.00    -0.265 OA
HETATM    4  C   UNL     1      43.542 -18.317   3.298  1.00  0.00     0.063 A 
HETATM    5  C   UNL     1      43.888 -18.614   4.615  1.00  0.00     0.074 A 
HETATM    6  N   UNL     1      44.016 -17.630   5.600  1.00  0.00    -0.230 NA
HETATM    7  C   UNL     1      43.755 -16.396   5.279  1.00  0.00     0.157 C 
HETATM    8  C   UNL     1      43.441 -19.328   2.333  1.00  0.00     0.019 A 
HETATM    9  C   UNL     1      43.690 -20.652   2.691  1.00  0.00     0.001 A 
HETATM   10  C   UNL     1      44.039 -20.961   4.005  1.00  0.00     0.002 A 
HETATM   11  C   UNL     1      44.136 -19.945   4.960  1.00  0.00     0.032 A 
ENDROOT
BRANCH   1  12
HETATM   12  N   UNL     1      43.217 -14.631   3.794  1.00  0.00    -0.174 NA
HETATM   13  C   UNL     1      42.570 -14.253   2.739  1.00  0.00     0.154 C 
BRANCH  13  14
HETATM   14  C   UNL     1      42.461 -12.842   2.455  1.00  0.00     0.031 A 
HETATM   15  C   UNL     1      41.748 -12.187   1.402  1.00  0.00     0.100 A 
HETATM   16  N   UNL     1      41.838 -10.850   1.532  1.00  0.00    -0.174 NA
HETATM   17  N   UNL     1      42.630 -10.663   2.596  1.00  0.00    -0.288 N 
HETATM   18  H   UNL     1      42.849  -9.712   2.868  1.00  0.00     0.188 HD
HETATM   19  C   UNL     1      43.032 -11.818   3.185  1.00  0.00     0.124 A 
BRANCH  15  20
HETATM   20  C   UNL     1      41.005 -12.776   0.285  1.00  0.00    -0.005 A 
HETATM   21  C   UNL     1      40.312 -13.985   0.427  1.00  0.00     0.014 A 
HETATM   22  C   UNL     1      39.612 -14.539  -0.651  1.00  0.00     0.007 A 
HETATM   23  C   UNL     1      39.609 -13.905  -1.897  1.00  0.00    -0.062 A 
HETATM   24  C   UNL     1      38.863 -14.491  -3.058  1.00  0.00     0.048 C 
HETATM   25  C   UNL     1      40.308 -12.702  -2.047  1.00  0.00     0.007 A 
HETATM   26  C   UNL     1      41.002 -12.146  -0.968  1.00  0.00     0.014 A 
ENDBRANCH  15  20
ENDBRANCH  13  14
ENDBRANCH   1  12
BRANCH   7  27
HETATM   27  C   UNL     1      43.912 -15.318   6.361  1.00  0.00     0.274 C 
BRANCH  27  28
HETATM   28  O   UNL     1      42.810 -15.063   7.219  1.00  0.00    -0.293 OA
BRANCH  28  29
HETATM   29  N   UNL     1      42.164 -13.902   6.780  1.00  0.00    -0.171 NA
HETATM   30  H   UNL     1      42.758 -13.285   6.220  1.00  0.00     0.160 HD
BRANCH  29  31
HETATM   31  C   UNL     1      40.894 -14.023   6.245  1.00  0.00     0.035 C 
HETATM   32  C   UNL     1      40.112 -15.110   6.330  1.00  0.00     0.039 C 
BRANCH  31  33
HETATM   33  C   UNL     1      40.363 -12.829   5.557  1.00  0.00    -0.014 A 
HETATM   34  C   UNL     1      39.566 -12.980   4.415  1.00  0.00     0.013 A 
HETATM   35  C   UNL     1      39.060 -11.860   3.752  1.00  0.00     0.001 A 
HETATM   36  C   UNL     1      39.342 -10.580   4.231  1.00  0.00     0.000 A 
HETATM   37  C   UNL     1      40.126 -10.419   5.372  1.00  0.00     0.001 A 
HETATM   38  C   UNL     1      40.635 -11.539   6.034  1.00  0.00     0.013 A 
ENDBRANCH  31  33
ENDBRANCH  29  31
ENDBRANCH  28  29
ENDBRANCH  27  28
ENDBRANCH   7  27
TORSDOF 8
ENDMDL
MODEL 2
REMARK VINA RESULT:      -9.8      2.637      6.737
REMARK  8 active torsions:
REMARK  status: ('A' for Active; 'I' for Inactive)
REMARK    1  A    between atoms: C_5  and  C_6 
REMARK    2  A    between atoms: C_11  and  C_12 
REMARK    3  A    between atoms: N_13  and  N_14 
REMARK    4  A    between atoms: C_20  and  C_21 
REMARK    5  A    between atoms: C_21  and  O_22 
REMARK    6  A    between atoms: O_22  and  N_23 
REMARK    7  A    between atoms: N_23  and  C_24 
REMARK    8  A    between atoms: C_24  and  C_25 
ROOT
HETATM    1  N   UNL     1      40.519 -14.180   3.872  1.00  0.00    -0.180 N 
HETATM    2  C   UNL     1      40.517 -14.748   2.590  1.00  0.00     0.282 C 
HETATM    3  O   UNL     1      40.910 -15.878   2.302  1.00  0.00    -0.265 OA
HETATM    4  C   UNL     1      39.944 -13.911   1.521  1.00  0.00     0.063 A 
HETATM    5  C   UNL     1      39.361 -12.697   1.881  1.00  0.00     0.074 A 
HETATM    6  N   UNL     1      39.309 -12.251   3.205  1.00  0.00    -0.230 NA
HETATM    7  C   UNL     1      39.869 -12.980   4.126  1.00  0.00     0.157 C 
HETATM    8  C   UNL     1      39.962 -14.335   0.185  1.00  0.00     0.019 A 
HETATM    9  C   UNL     1      39.388 -13.533  -0.801  1.00  0.00     0.001 A 
HETATM   10  C   UNL     1      38.800 -12.319  -0.452  1.00  0.00     0.002 A 
HETATM   11  C   UNL     1      38.789 -11.905   0.883  1.00  0.00     0.032 A 
ENDROOT
BRANCH   1  12
HETATM   12  N   UNL     1      40.975 -14.896   4.971  1.00  0.00    -0.174 NA
HETATM   13  C   UNL     1      42.253 -14.946   5.167  1.00  0.00     0.154 C 
BRANCH  13  14
HETATM   14  C   UNL     1      42.760 -15.733   6.267  1.00  0.00     0.031 A 
HETATM   15  C   UNL     1      43.335 -17.043   6.248  1.00  0.00     0.100 A 
HETATM   16  N   UNL     1      43.752 -17.393   7.478  1.00  0.00    -0.174 NA
HETATM   17  N   UNL     1      43.401 -16.366   8.263  1.00  0.00    -0.288 N 
HETATM   18  H   UNL     1      43.608 -16.427   9.253  1.00  0.00     0.188 HD
HETATM   19  C   UNL     1      42.803 -15.348   7.592  1.00  0.00     0.124 A 
BRANCH  15  20
HETATM   20  C   UNL     1      43.489 -17.967   5.121  1.00  0.00    -0.005 A 
HETATM   21  C   UNL     1      43.827 -19.312   5.321  1.00  0.00     0.014 A 
HETATM   22  C   UNL     1      43.977 -20.181   4.235  1.00  0.00     0.007 A 
HETATM   23  C   UNL     1      43.813 -19.717   2.926  1.00  0.00    -0.062 A 
HETATM   24  C   UNL     1      43.972 -20.641   1.756  1.00  0.00     0.048 C 
HETATM   25  C   UNL     1      43.485 -18.372   2.720  1.00  0.00     0.007 A 
HETATM   26  C   UNL     1      43.329 -17.507   3.807  1.00  0.00     0.014 A 
ENDBRANCH  15  20
ENDBRANCH  13  14
ENDBRANCH   1  12
BRANCH   7  27
HETATM   27  C   UNL     1      39.795 -12.492   5.580  1.00  0.00     0.274 C 
BRANCH  27  28
HETATM   28  O   UNL     1      40.609 -11.392   5.961  1.00  0.00    -0.293 OA
BRANCH  28  29
HETATM   29  N   UNL     1      41.820 -11.888   6.459  1.00  0.00    -0.171 NA
HETATM   30  H   UNL     1      41.826 -12.901   6.597  1.00  0.00     0.160 HD
BRANCH  29  31
HETATM   31  C   UNL     1      42.995 -11.435   5.889  1.00  0.00     0.035 C 
HETATM   32  C   UNL     1      43.310 -11.510   4.587  1.00  0.00     0.039 C 
BRANCH  31  33
HETATM   33  C   UNL     1      43.955 -10.788   6.806  1.00  0.00    -0.014 A 
HETATM   34  C   UNL     1      45.306 -11.158   6.776  1.00  0.00     0.013 A 
HETATM   35  C   UNL     1      46.224 -10.558   7.640  1.00  0.00     0.001 A 
HETATM   36  C   UNL     1      45.799  -9.577   8.536  1.00  0.00     0.000 A 
HETATM   37  C   UNL     1      44.459  -9.195   8.568  1.00  0.00     0.001 A 
HETATM   38  C   UNL     1      43.539  -9.797   7.707  1.00  0.00     0.013 A 
ENDBRANCH  31  33
ENDBRANCH  29  31
ENDBRANCH  28  29
ENDBRANCH  27  28
ENDBRANCH   7  27
TORSDOF 8
ENDMDL
MODEL 3
REMARK VINA RESULT:      -9.7      2.058      7.390
REMARK  8 active torsions:
REMARK  status: ('A' for Active; 'I' for Inactive)
REMARK    1  A    between atoms: C_5  and  C_6 
REMARK    2  A    between atoms: C_11  and  C_12 
REMARK    3  A    between atoms: N_13  and  N_14 
REMARK    4  A    between atoms: C_20  and  C_21 
REMARK    5  A    between atoms: C_21  and  O_22 
REMARK    6  A    between atoms: O_22  and  N_23 
REMARK    7  A    between atoms: N_23  and  C_24 
REMARK    8  A    between atoms: C_24  and  C_25 
ROOT
HETATM    1  N   UNL     1      41.092 -12.564   2.481  1.00  0.00    -0.180 N 
HETATM    2  C   UNL     1      41.399 -11.831   1.324  1.00  0.00     0.282 C 
HETATM    3  O   UNL     1      42.034 -10.778   1.287  1.00  0.00    -0.265 OA
HETATM    4  C   UNL     1      40.949 -12.426   0.053  1.00  0.00     0.063 A 
HETATM    5  C   UNL     1      40.369 -13.693   0.092  1.00  0.00     0.074 A 
HETATM    6  N   UNL     1      40.196 -14.405   1.282  1.00  0.00    -0.230 NA
HETATM    7  C   UNL     1      40.549 -13.839   2.399  1.00  0.00     0.157 C 
HETATM    8  C   UNL     1      41.124 -11.749  -1.161  1.00  0.00     0.019 A 
HETATM    9  C   UNL     1      40.713 -12.348  -2.351  1.00  0.00     0.001 A 
HETATM   10  C   UNL     1      40.134 -13.615  -2.325  1.00  0.00     0.002 A 
HETATM   11  C   UNL     1      39.963 -14.282  -1.108  1.00  0.00     0.032 A 
ENDROOT
BRANCH   1  12
HETATM   12  N   UNL     1      41.518 -12.137   3.732  1.00  0.00    -0.174 NA
HETATM   13  C   UNL     1      42.729 -12.425   4.084  1.00  0.00     0.154 C 
BRANCH  13  14
HETATM   14  C   UNL     1      43.180 -12.048   5.403  1.00  0.00     0.031 A 
HETATM   15  C   UNL     1      43.540 -12.884   6.506  1.00  0.00     0.100 A 
HETATM   16  N   UNL     1      43.981 -12.141   7.537  1.00  0.00    -0.174 NA
HETATM   17  N   UNL     1      43.850 -10.874   7.125  1.00  0.00    -0.288 N 
HETATM   18  H   UNL     1      44.113 -10.132   7.765  1.00  0.00     0.188 HD
HETATM   19  C   UNL     1      43.375 -10.759   5.859  1.00  0.00     0.124 A 
BRANCH  15  20
HETATM   20  C   UNL     1      43.470 -14.344   6.619  1.00  0.00    -0.005 A 
HETATM   21  C   UNL     1      44.554 -15.156   6.262  1.00  0.00     0.014 A 
HETATM   22  C   UNL     1      44.470 -16.549   6.369  1.00  0.00     0.007 A 
HETATM   23  C   UNL     1      43.293 -17.157   6.816  1.00  0.00    -0.062 A 
HETATM   24  C   UNL     1      43.193 -18.648   6.934  1.00  0.00     0.048 C 
HETATM   25  C   UNL     1      42.204 -16.350   7.166  1.00  0.00     0.007 A 
HETATM   26  C   UNL     1      42.292 -14.959   7.064  1.00  0.00     0.014 A 
ENDBRANCH  15  20
ENDBRANCH  13  14
ENDBRANCH   1  12
BRANCH   7  27
HETATM   27  C   UNL     1      40.370 -14.633   3.701  1.00  0.00     0.274 C 
BRANCH  27  28
HETATM   28  O   UNL     1      41.292 -15.675   3.983  1.00  0.00    -0.293 OA
BRANCH  28  29
HETATM   29  N   UNL     1      41.391 -16.499   2.856  1.00  0.00    -0.171 NA
HETATM   30  H   UNL     1      40.734 -16.260   2.111  1.00  0.00     0.160 HD
BRANCH  29  31
HETATM   31  C   UNL     1      42.652 -16.783   2.363  1.00  0.00     0.035 C 
HETATM   32  C   UNL     1      43.450 -15.919   1.719  1.00  0.00     0.039 C 
BRANCH  31  33
HETATM   33  C   UNL     1      43.152 -18.150   2.610  1.00  0.00    -0.014 A 
HETATM   34  C   UNL     1      42.650 -19.222   1.860  1.00  0.00     0.013 A 
HETATM   35  C   UNL     1      43.111 -20.521   2.085  1.00  0.00     0.001 A 
HETATM   36  C   UNL     1      44.082 -20.757   3.058  1.00  0.00     0.000 A 
HETATM   37  C   UNL     1      44.595 -19.696   3.803  1.00  0.00     0.001 A 
HETATM   38  C   UNL     1      44.132 -18.397   3.581  1.00  0.00     0.013 A 
ENDBRANCH  31  33
ENDBRANCH  29  31
ENDBRANCH  28  29
ENDBRANCH  27  28
ENDBRANCH   7  27
TORSDOF 8
ENDMDL
MODEL 4
REMARK VINA RESULT:      -9.5      2.615      6.029
REMARK  8 active torsions:
REMARK  status: ('A' for Active; 'I' for Inactive)
REMARK    1  A    between atoms: C_5  and  C_6 
REMARK    2  A    between atoms: C_11  and  C_12 
REMARK    3  A    between atoms: N_13  and  N_14 
REMARK    4  A    between atoms: C_20  and  C_21 
REMARK    5  A    between atoms: C_21  and  O_22 
REMARK    6  A    between atoms: O_22  and  N_23 
REMARK    7  A    between atoms: N_23  and  C_24 
REMARK    8  A    between atoms: C_24  and  C_25 
ROOT
HETATM    1  N   UNL     1      42.581 -11.852   5.009  1.00  0.00    -0.180 N 
HETATM    2  C   UNL     1      43.951 -11.558   5.075  1.00  0.00     0.282 C 
HETATM    3  O   UNL     1      44.751 -11.642   4.143  1.00  0.00    -0.265 OA
HETATM    4  C   UNL     1      44.436 -11.061   6.374  1.00  0.00     0.063 A 
HETATM    5  C   UNL     1      43.497 -10.821   7.376  1.00  0.00     0.074 A 
HETATM    6  N   UNL     1      42.128 -11.040   7.192  1.00  0.00    -0.230 NA
HETATM    7  C   UNL     1      41.728 -11.531   6.055  1.00  0.00     0.157 C 
HETATM    8  C   UNL     1      45.799 -10.812   6.588  1.00  0.00     0.019 A 
HETATM    9  C   UNL     1      46.225 -10.317   7.819  1.00  0.00     0.001 A 
HETATM   10  C   UNL     1      45.294 -10.071   8.828  1.00  0.00     0.002 A 
HETATM   11  C   UNL     1      43.938 -10.323   8.604  1.00  0.00     0.032 A 
ENDROOT
BRANCH   1  12
HETATM   12  N   UNL     1      41.995 -12.267   3.820  1.00  0.00    -0.174 NA
HETATM   13  C   UNL     1      42.135 -11.507   2.783  1.00  0.00     0.154 C 
BRANCH  13  14
HETATM   14  C   UNL     1      41.486 -11.883   1.549  1.00  0.00     0.031 A 
HETATM   15  C   UNL     1      41.287 -13.187   0.996  1.00  0.00     0.100 A 
HETATM   16  N   UNL     1      40.569 -13.113  -0.139  1.00  0.00    -0.174 NA
HETATM   17  N   UNL     1      40.370 -11.803  -0.333  1.00  0.00    -0.288 N 
HETATM   18  H   UNL     1      39.854 -11.514  -1.157  1.00  0.00     0.188 HD
HETATM   19  C   UNL     1      40.896 -11.022   0.645  1.00  0.00     0.124 A 
BRANCH  15  20
HETATM   20  C   UNL     1      41.759 -14.482   1.494  1.00  0.00    -0.005 A 
HETATM   21  C   UNL     1      40.877 -15.410   2.064  1.00  0.00     0.014 A 
HETATM   22  C   UNL     1      41.343 -16.640   2.541  1.00  0.00     0.007 A 
HETATM   23  C   UNL     1      42.703 -16.957   2.476  1.00  0.00    -0.062 A 
HETATM   24  C   UNL     1      43.213 -18.273   2.985  1.00  0.00     0.048 C 
HETATM   25  C   UNL     1      43.590 -16.030   1.917  1.00  0.00     0.007 A 
HETATM   26  C   UNL     1      43.122 -14.804   1.435  1.00  0.00     0.014 A 
ENDBRANCH  15  20
ENDBRANCH  13  14
ENDBRANCH   1  12
BRANCH   7  27
HETATM   27  C   UNL     1      40.222 -11.755   5.855  1.00  0.00     0.274 C 
BRANCH  27  28
HETATM   28  O   UNL     1      39.715 -13.074   5.995  1.00  0.00    -0.293 OA
BRANCH  28  29
HETATM   29  N   UNL     1      40.665 -13.846   6.673  1.00  0.00    -0.171 NA
HETATM   30  H   UNL     1      40.669 -13.702   7.685  1.00  0.00     0.160 HD
BRANCH  29  31
HETATM   31  C   UNL     1      40.778 -15.184   6.340  1.00  0.00     0.035 C 
HETATM   32  C   UNL     1      39.759 -15.999   6.030  1.00  0.00     0.039 C 
BRANCH  31  33
HETATM   33  C   UNL     1      42.151 -15.728   6.297  1.00  0.00    -0.014 A 
HETATM   34  C   UNL     1      42.358 -17.107   6.430  1.00  0.00     0.013 A 
HETATM   35  C   UNL     1      43.650 -17.636   6.394  1.00  0.00     0.001 A 
HETATM   36  C   UNL     1      44.744 -16.789   6.219  1.00  0.00     0.000 A 
HETATM   37  C   UNL     1      44.548 -15.416   6.076  1.00  0.00     0.001 A 
HETATM   38  C   UNL     1      43.257 -14.886   6.115  1.00  0.00     0.013 A 
ENDBRANCH  31  33
ENDBRANCH  29  31
ENDBRANCH  28  29
ENDBRANCH  27  28
ENDBRANCH   7  27
TORSDOF 8
ENDMDL
MODEL 5
REMARK VINA RESULT:      -9.4      2.447      3.095
REMARK  8 active torsions:
REMARK  status: ('A' for Active; 'I' for Inactive)
REMARK    1  A    between atoms: C_5  and  C_6 
REMARK    2  A    between atoms: C_11  and  C_12 
REMARK    3  A    between atoms: N_13  and  N_14 
REMARK    4  A    between atoms: C_20  and  C_21 
REMARK    5  A    between atoms: C_21  and  O_22 
REMARK    6  A    between atoms: O_22  and  N_23 
REMARK    7  A    between atoms: N_23  and  C_24 
REMARK    8  A    between atoms: C_24  and  C_25 
ROOT
HETATM    1  N   UNL     1      42.483 -15.668   4.043  1.00  0.00    -0.180 N 
HETATM    2  C   UNL     1      42.709 -16.624   3.042  1.00  0.00     0.282 C 
HETATM    3  O   UNL     1      42.561 -16.450   1.832  1.00  0.00    -0.265 OA
HETATM    4  C   UNL     1      43.213 -17.929   3.507  1.00  0.00     0.063 A 
HETATM    5  C   UNL     1      43.525 -18.066   4.858  1.00  0.00     0.074 A 
HETATM    6  N   UNL     1      43.370 -17.023   5.776  1.00  0.00    -0.230 NA
HETATM    7  C   UNL     1      42.871 -15.898   5.355  1.00  0.00     0.157 C 
HETATM    8  C   UNL     1      43.399 -18.991   2.611  1.00  0.00     0.019 A 
HETATM    9  C   UNL     1      43.903 -20.205   3.075  1.00  0.00     0.001 A 
HETATM   10  C   UNL     1      44.220 -20.354   4.424  1.00  0.00     0.002 A 
HETATM   11  C   UNL     1      44.030 -19.288   5.309  1.00  0.00     0.032 A 
ENDROOT
BRANCH   1  12
HETATM   12  N   UNL     1      42.067 -14.382   3.722  1.00  0.00    -0.174 NA
HETATM   13  C   UNL     1      42.865 -13.653   3.010  1.00  0.00     0.154 C 
BRANCH  13  14
HETATM   14  C   UNL     1      42.487 -12.292   2.712  1.00  0.00     0.031 A 
HETATM   15  C   UNL     1      41.645 -11.798   1.666  1.00  0.00     0.100 A 
HETATM   16  N   UNL     1      41.483 -10.468   1.779  1.00  0.00    -0.174 NA
HETATM   17  N   UNL     1      42.243 -10.119   2.825  1.00  0.00    -0.288 N 
HETATM   18  H   UNL     1      42.283  -9.139   3.082  1.00  0.00     0.188 HD
HETATM   19  C   UNL     1      42.866 -11.169   3.420  1.00  0.00     0.124 A 
BRANCH  15  20
HETATM   20  C   UNL     1      41.008 -12.534   0.569  1.00  0.00    -0.005 A 
HETATM   21  C   UNL     1      40.445 -13.801   0.771  1.00  0.00     0.014 A 
HETATM   22  C   UNL     1      39.846 -14.494  -0.287  1.00  0.00     0.007 A 
HETATM   23  C   UNL     1      39.817 -13.942  -1.571  1.00  0.00    -0.062 A 
HETATM   24  C   UNL     1      39.177 -14.677  -2.711  1.00  0.00     0.048 C 
HETATM   25  C   UNL     1      40.386 -12.680  -1.780  1.00  0.00     0.007 A 
HETATM   26  C   UNL     1      40.978 -11.987  -0.721  1.00  0.00     0.014 A 
ENDBRANCH  15  20
ENDBRANCH  13  14
ENDBRANCH   1  12
BRANCH   7  27
HETATM   27  C   UNL     1      42.719 -14.752   6.365  1.00  0.00     0.274 C 
BRANCH  27  28
HETATM   28  O   UNL     1      43.869 -13.985   6.690  1.00  0.00    -0.293 OA
BRANCH  28  29
HETATM   29  N   UNL     1      43.460 -12.690   7.028  1.00  0.00    -0.171 NA
HETATM   30  H   UNL     1      42.828 -12.652   7.830  1.00  0.00     0.160 HD
BRANCH  29  31
HETATM   31  C   UNL     1      44.419 -11.694   7.076  1.00  0.00     0.035 C 
HETATM   32  C   UNL     1      45.388 -11.500   6.169  1.00  0.00     0.039 C 
BRANCH  31  33
HETATM   33  C   UNL     1      44.324 -10.757   8.213  1.00  0.00    -0.014 A 
HETATM   34  C   UNL     1      43.120 -10.084   8.464  1.00  0.00     0.013 A 
HETATM   35  C   UNL     1      43.017  -9.192   9.533  1.00  0.00     0.001 A 
HETATM   36  C   UNL     1      44.115  -8.971  10.364  1.00  0.00     0.000 A 
HETATM   37  C   UNL     1      45.314  -9.642  10.129  1.00  0.00     0.001 A 
HETATM   38  C   UNL     1      45.420 -10.532   9.058  1.00  0.00     0.013 A 
ENDBRANCH  31  33
ENDBRANCH  29  31
ENDBRANCH  28  29
ENDBRANCH  27  28
ENDBRANCH   7  27
TORSDOF 8
ENDMDL
MODEL 6
REMARK VINA RESULT:      -9.3      4.181      7.416
REMARK  8 active torsions:
REMARK  status: ('A' for Active; 'I' for Inactive)
REMARK    1  A    between atoms: C_5  and  C_6 
REMARK    2  A    between atoms: C_11  and  C_12 
REMARK    3  A    between atoms: N_13  and  N_14 
REMARK    4  A    between atoms: C_20  and  C_21 
REMARK    5  A    between atoms: C_21  and  O_22 
REMARK    6  A    between atoms: O_22  and  N_23 
REMARK    7  A    between atoms: N_23  and  C_24 
REMARK    8  A    between atoms: C_24  and  C_25 
ROOT
HETATM    1  N   UNL     1      41.998 -11.381   6.386  1.00  0.00    -0.180 N 
HETATM    2  C   UNL     1      43.357 -11.725   6.448  1.00  0.00     0.282 C 
HETATM    3  O   UNL     1      43.880 -12.693   5.896  1.00  0.00    -0.265 OA
HETATM    4  C   UNL     1      44.217 -10.800   7.207  1.00  0.00     0.063 A 
HETATM    5  C   UNL     1      43.645  -9.627   7.695  1.00  0.00     0.074 A 
HETATM    6  N   UNL     1      42.299  -9.306   7.497  1.00  0.00    -0.230 NA
HETATM    7  C   UNL     1      41.545 -10.163   6.872  1.00  0.00     0.157 C 
HETATM    8  C   UNL     1      45.575 -11.080   7.408  1.00  0.00     0.019 A 
HETATM    9  C   UNL     1      46.370 -10.173   8.108  1.00  0.00     0.001 A 
HETATM   10  C   UNL     1      45.810  -8.995   8.599  1.00  0.00     0.002 A 
HETATM   11  C   UNL     1      44.454  -8.726   8.393  1.00  0.00     0.032 A 
ENDROOT
BRANCH   1  12
HETATM   12  N   UNL     1      41.101 -12.141   5.648  1.00  0.00    -0.174 NA
HETATM   13  C   UNL     1      41.461 -12.512   4.462  1.00  0.00     0.154 C 
BRANCH  13  14
HETATM   14  C   UNL     1      40.525 -13.251   3.647  1.00  0.00     0.031 A 
HETATM   15  C   UNL     1      40.555 -14.630   3.268  1.00  0.00     0.100 A 
HETATM   16  N   UNL     1      39.454 -14.948   2.562  1.00  0.00    -0.174 NA
HETATM   17  N   UNL     1      38.778 -13.798   2.447  1.00  0.00    -0.288 N 
HETATM   18  H   UNL     1      37.907 -13.805   1.927  1.00  0.00     0.188 HD
HETATM   19  C   UNL     1      39.372 -12.752   3.075  1.00  0.00     0.124 A 
BRANCH  15  20
HETATM   20  C   UNL     1      41.583 -15.640   3.536  1.00  0.00    -0.005 A 
HETATM   21  C   UNL     1      42.215 -16.331   2.494  1.00  0.00     0.014 A 
HETATM   22  C   UNL     1      43.190 -17.297   2.766  1.00  0.00     0.007 A 
HETATM   23  C   UNL     1      43.536 -17.606   4.085  1.00  0.00    -0.062 A 
HETATM   24  C   UNL     1      44.580 -18.639   4.386  1.00  0.00     0.048 C 
HETATM   25  C   UNL     1      42.901 -16.925   5.129  1.00  0.00     0.007 A 
HETATM   26  C   UNL     1      41.931 -15.955   4.856  1.00  0.00     0.014 A 
ENDBRANCH  15  20
ENDBRANCH  13  14
ENDBRANCH   1  12
BRANCH   7  27
HETATM   27  C   UNL     1      40.071  -9.798   6.645  1.00  0.00     0.274 C 
BRANCH  27  28
HETATM   28  O   UNL     1      39.161  -9.979   7.720  1.00  0.00    -0.293 OA
BRANCH  28  29
HETATM   29  N   UNL     1      39.893 -10.104   8.906  1.00  0.00    -0.171 NA
HETATM   30  H   UNL     1      40.851 -10.433   8.767  1.00  0.00     0.160 HD
BRANCH  29  31
HETATM   31  C   UNL     1      39.827  -9.073   9.825  1.00  0.00     0.035 C 
HETATM   32  C   UNL     1      38.742  -8.329  10.087  1.00  0.00     0.039 C 
BRANCH  31  33
HETATM   33  C   UNL     1      41.060  -8.812  10.596  1.00  0.00    -0.014 A 
HETATM   34  C   UNL     1      41.567  -7.508  10.677  1.00  0.00     0.013 A 
HETATM   35  C   UNL     1      42.733  -7.246  11.399  1.00  0.00     0.001 A 
HETATM   36  C   UNL     1      43.398  -8.286  12.051  1.00  0.00     0.000 A 
HETATM   37  C   UNL     1      42.896  -9.585  11.984  1.00  0.00     0.001 A 
HETATM   38  C   UNL     1      41.731  -9.848  11.259  1.00  0.00     0.013 A 
ENDBRANCH  31  33
ENDBRANCH  29  31
ENDBRANCH  28  29
ENDBRANCH  27  28
ENDBRANCH   7  27
TORSDOF 8
ENDMDL
MODEL 7
REMARK VINA RESULT:      -9.1      3.409      7.370
REMARK  8 active torsions:
REMARK  status: ('A' for Active; 'I' for Inactive)
REMARK    1  A    between atoms: C_5  and  C_6 
REMARK    2  A    between atoms: C_11  and  C_12 
REMARK    3  A    between atoms: N_13  and  N_14 
REMARK    4  A    between atoms: C_20  and  C_21 
REMARK    5  A    between atoms: C_21  and  O_22 
REMARK    6  A    between atoms: O_22  and  N_23 
REMARK    7  A    between atoms: N_23  and  C_24 
REMARK    8  A    between atoms: C_24  and  C_25 
ROOT
HETATM    1  N   UNL     1      41.931 -12.621   5.095  1.00  0.00    -0.180 N 
HETATM    2  C   UNL     1      43.117 -13.199   5.569  1.00  0.00     0.282 C 
HETATM    3  O   UNL     1      44.153 -12.594   5.846  1.00  0.00    -0.265 OA
HETATM    4  C   UNL     1      43.074 -14.655   5.792  1.00  0.00     0.063 A 
HETATM    5  C   UNL     1      41.854 -15.307   5.626  1.00  0.00     0.074 A 
HETATM    6  N   UNL     1      40.686 -14.634   5.252  1.00  0.00    -0.230 NA
HETATM    7  C   UNL     1      40.759 -13.359   5.007  1.00  0.00     0.157 C 
HETATM    8  C   UNL     1      44.221 -15.359   6.185  1.00  0.00     0.019 A 
HETATM    9  C   UNL     1      44.143 -16.732   6.414  1.00  0.00     0.001 A 
HETATM   10  C   UNL     1      42.928 -17.394   6.253  1.00  0.00     0.002 A 
HETATM   11  C   UNL     1      41.790 -16.683   5.860  1.00  0.00     0.032 A 
ENDROOT
BRANCH   1  12
HETATM   12  N   UNL     1      41.829 -11.249   4.907  1.00  0.00    -0.174 NA
HETATM   13  C   UNL     1      41.804 -10.498   5.961  1.00  0.00     0.154 C 
BRANCH  13  14
HETATM   14  C   UNL     1      41.639  -9.073   5.799  1.00  0.00     0.031 A 
HETATM   15  C   UNL     1      41.856  -8.026   6.750  1.00  0.00     0.100 A 
HETATM   16  N   UNL     1      41.659  -6.823   6.180  1.00  0.00    -0.174 NA
HETATM   17  N   UNL     1      41.273  -7.098   4.928  1.00  0.00    -0.288 N 
HETATM   18  H   UNL     1      41.051  -6.322   4.314  1.00  0.00     0.188 HD
HETATM   19  C   UNL     1      41.242  -8.425   4.646  1.00  0.00     0.124 A 
BRANCH  15  20
HETATM   20  C   UNL     1      42.227  -8.127   8.164  1.00  0.00    -0.005 A 
HETATM   21  C   UNL     1      41.287  -8.478   9.142  1.00  0.00     0.014 A 
HETATM   22  C   UNL     1      41.654  -8.563  10.489  1.00  0.00     0.007 A 
HETATM   23  C   UNL     1      42.963  -8.279  10.888  1.00  0.00    -0.062 A 
HETATM   24  C   UNL     1      43.367  -8.367  12.329  1.00  0.00     0.048 C 
HETATM   25  C   UNL     1      43.905  -7.918   9.917  1.00  0.00     0.007 A 
HETATM   26  C   UNL     1      43.538  -7.840   8.570  1.00  0.00     0.014 A 
ENDBRANCH  15  20
ENDBRANCH  13  14
ENDBRANCH   1  12
BRANCH   7  27
HETATM   27  C   UNL     1      39.469 -12.624   4.613  1.00  0.00     0.274 C 
BRANCH  27  28
HETATM   28  O   UNL     1      39.135 -12.547   3.235  1.00  0.00    -0.293 OA
BRANCH  28  29
HETATM   29  N   UNL     1      39.157 -13.840   2.700  1.00  0.00    -0.171 NA
HETATM   30  H   UNL     1      38.230 -14.260   2.596  1.00  0.00     0.160 HD
BRANCH  29  31
HETATM   31  C   UNL     1      39.959 -14.079   1.599  1.00  0.00     0.035 C 
HETATM   32  C   UNL     1      39.785 -13.550   0.378  1.00  0.00     0.039 C 
BRANCH  31  33
HETATM   33  C   UNL     1      41.118 -14.967   1.820  1.00  0.00    -0.014 A 
HETATM   34  C   UNL     1      42.417 -14.447   1.751  1.00  0.00     0.013 A 
HETATM   35  C   UNL     1      43.523 -15.275   1.954  1.00  0.00     0.001 A 
HETATM   36  C   UNL     1      43.337 -16.629   2.235  1.00  0.00     0.000 A 
HETATM   37  C   UNL     1      42.049 -17.154   2.316  1.00  0.00     0.001 A 
HETATM   38  C   UNL     1      40.942 -16.327   2.109  1.00  0.00     0.013 A 
ENDBRANCH  31  33
ENDBRANCH  29  31
ENDBRANCH  28  29
ENDBRANCH  27  28
ENDBRANCH   7  27
TORSDOF 8
ENDMDL
MODEL 8
REMARK VINA RESULT:      -9.0      2.602      3.553
REMARK  8 active torsions:
REMARK  status: ('A' for Active; 'I' for Inactive)
REMARK    1  A    between atoms: C_5  and  C_6 
REMARK    2  A    between atoms: C_11  and  C_12 
REMARK    3  A    between atoms: N_13  and  N_14 
REMARK    4  A    between atoms: C_20  and  C_21 
REMARK    5  A    between atoms: C_21  and  O_22 
REMARK    6  A    between atoms: O_22  and  N_23 
REMARK    7  A    between atoms: N_23  and  C_24 
REMARK    8  A    between atoms: C_24  and  C_25 
ROOT
HETATM    1  N   UNL     1      40.976 -15.021   3.729  1.00  0.00    -0.180 N 
HETATM    2  C   UNL     1      41.514 -15.851   2.735  1.00  0.00     0.282 C 
HETATM    3  O   UNL     1      41.315 -15.746   1.524  1.00  0.00    -0.265 OA
HETATM    4  C   UNL     1      42.431 -16.902   3.207  1.00  0.00     0.063 A 
HETATM    5  C   UNL     1      42.772 -16.916   4.558  1.00  0.00     0.074 A 
HETATM    6  N   UNL     1      42.271 -15.981   5.470  1.00  0.00    -0.230 NA
HETATM    7  C   UNL     1      41.420 -15.095   5.042  1.00  0.00     0.157 C 
HETATM    8  C   UNL     1      42.967 -17.845   2.318  1.00  0.00     0.019 A 
HETATM    9  C   UNL     1      43.854 -18.812   2.789  1.00  0.00     0.001 A 
HETATM   10  C   UNL     1      44.203 -18.833   4.139  1.00  0.00     0.002 A 
HETATM   11  C   UNL     1      43.662 -17.889   5.017  1.00  0.00     0.032 A 
ENDROOT
BRANCH   1  12
HETATM   12  N   UNL     1      40.148 -13.955   3.401  1.00  0.00    -0.174 NA
HETATM   13  C   UNL     1      40.666 -12.975   2.734  1.00  0.00     0.154 C 
BRANCH  13  14
HETATM   14  C   UNL     1      39.846 -11.826   2.431  1.00  0.00     0.031 A 
HETATM   15  C   UNL     1      39.032 -11.578   1.281  1.00  0.00     0.100 A 
HETATM   16  N   UNL     1      38.365 -10.418   1.417  1.00  0.00    -0.174 NA
HETATM   17  N   UNL     1      38.785  -9.917   2.585  1.00  0.00    -0.288 N 
HETATM   18  H   UNL     1      38.416  -9.021   2.883  1.00  0.00     0.188 HD
HETATM   19  C   UNL     1      39.671 -10.716   3.233  1.00  0.00     0.124 A 
BRANCH  15  20
HETATM   20  C   UNL     1      38.877 -12.387   0.068  1.00  0.00    -0.005 A 
HETATM   21  C   UNL     1      37.862 -12.121  -0.861  1.00  0.00     0.014 A 
HETATM   22  C   UNL     1      37.722 -12.905  -2.011  1.00  0.00     0.007 A 
HETATM   23  C   UNL     1      38.581 -13.983  -2.244  1.00  0.00    -0.062 A 
HETATM   24  C   UNL     1      38.440 -14.830  -3.474  1.00  0.00     0.048 C 
HETATM   25  C   UNL     1      39.591 -14.259  -1.315  1.00  0.00     0.007 A 
HETATM   26  C   UNL     1      39.733 -13.470  -0.169  1.00  0.00     0.014 A 
ENDBRANCH  15  20
ENDBRANCH  13  14
ENDBRANCH   1  12
BRANCH   7  27
HETATM   27  C   UNL     1      40.886 -14.062   6.045  1.00  0.00     0.274 C 
BRANCH  27  28
HETATM   28  O   UNL     1      41.531 -12.798   6.113  1.00  0.00    -0.293 OA
BRANCH  28  29
HETATM   29  N   UNL     1      42.910 -12.995   5.987  1.00  0.00    -0.171 NA
HETATM   30  H   UNL     1      43.163 -13.891   5.565  1.00  0.00     0.160 HD
BRANCH  29  31
HETATM   31  C   UNL     1      43.676 -11.955   5.492  1.00  0.00     0.035 C 
HETATM   32  C   UNL     1      43.806 -11.630   4.197  1.00  0.00     0.039 C 
BRANCH  31  33
HETATM   33  C   UNL     1      44.374 -11.127   6.496  1.00  0.00    -0.014 A 
HETATM   34  C   UNL     1      45.760 -11.252   6.661  1.00  0.00     0.013 A 
HETATM   35  C   UNL     1      46.432 -10.478   7.609  1.00  0.00     0.001 A 
HETATM   36  C   UNL     1      45.724  -9.570   8.396  1.00  0.00     0.000 A 
HETATM   37  C   UNL     1      44.347  -9.431   8.234  1.00  0.00     0.001 A 
HETATM   38  C   UNL     1      43.673 -10.207   7.288  1.00  0.00     0.013 A 
ENDBRANCH  31  33
ENDBRANCH  29  31
ENDBRANCH  28  29
ENDBRANCH  27  28
ENDBRANCH   7  27
TORSDOF 8
ENDMDL
MODEL 9
REMARK VINA RESULT:      -9.0      1.927      5.334
REMARK  8 active torsions:
REMARK  status: ('A' for Active; 'I' for Inactive)
REMARK    1  A    between atoms: C_5  and  C_6 
REMARK    2  A    between atoms: C_11  and  C_12 
REMARK    3  A    between atoms: N_13  and  N_14 
REMARK    4  A    between atoms: C_20  and  C_21 
REMARK    5  A    between atoms: C_21  and  O_22 
REMARK    6  A    between atoms: O_22  and  N_23 
REMARK    7  A    between atoms: N_23  and  C_24 
REMARK    8  A    between atoms: C_24  and  C_25 
ROOT
HETATM    1  N   UNL     1      42.784 -14.917   4.645  1.00  0.00    -0.180 N 
HETATM    2  C   UNL     1      43.346 -16.061   5.231  1.00  0.00     0.282 C 
HETATM    3  O   UNL     1      43.694 -16.170   6.407  1.00  0.00    -0.265 OA
HETATM    4  C   UNL     1      43.472 -17.235   4.350  1.00  0.00     0.063 A 
HETATM    5  C   UNL     1      42.933 -17.152   3.068  1.00  0.00     0.074 A 
HETATM    6  N   UNL     1      42.291 -16.004   2.594  1.00  0.00    -0.230 NA
HETATM    7  C   UNL     1      42.239 -14.960   3.369  1.00  0.00     0.157 C 
HETATM    8  C   UNL     1      44.093 -18.409   4.797  1.00  0.00     0.019 A 
HETATM    9  C   UNL     1      44.175 -19.513   3.950  1.00  0.00     0.001 A 
HETATM   10  C   UNL     1      43.637 -19.442   2.666  1.00  0.00     0.002 A 
HETATM   11  C   UNL     1      43.021 -18.266   2.229  1.00  0.00     0.032 A 
ENDROOT
BRANCH   1  12
HETATM   12  N   UNL     1      42.556 -13.769   5.391  1.00  0.00    -0.174 NA
HETATM   13  C   UNL     1      43.561 -12.984   5.609  1.00  0.00     0.154 C 
BRANCH  13  14
HETATM   14  C   UNL     1      43.368 -11.814   6.433  1.00  0.00     0.031 A 
HETATM   15  C   UNL     1      42.389 -10.778   6.311  1.00  0.00     0.100 A 
HETATM   16  N   UNL     1      42.500  -9.902   7.326  1.00  0.00    -0.174 NA
HETATM   17  N   UNL     1      43.551 -10.334   8.036  1.00  0.00    -0.288 N 
HETATM   18  H   UNL     1      43.828  -9.801   8.852  1.00  0.00     0.188 HD
HETATM   19  C   UNL     1      44.108 -11.471   7.547  1.00  0.00     0.124 A 
BRANCH  15  20
HETATM   20  C   UNL     1      41.373 -10.585   5.271  1.00  0.00    -0.005 A 
HETATM   21  C   UNL     1      40.064 -11.056   5.435  1.00  0.00     0.014 A 
HETATM   22  C   UNL     1      39.107 -10.871   4.431  1.00  0.00     0.007 A 
HETATM   23  C   UNL     1      39.446 -10.229   3.236  1.00  0.00    -0.062 A 
HETATM   24  C   UNL     1      38.428 -10.025   2.155  1.00  0.00     0.048 C 
HETATM   25  C   UNL     1      40.755  -9.765   3.064  1.00  0.00     0.007 A 
HETATM   26  C   UNL     1      41.709  -9.945   4.070  1.00  0.00     0.014 A 
ENDBRANCH  15  20
ENDBRANCH  13  14
ENDBRANCH   1  12
BRANCH   7  27
HETATM   27  C   UNL     1      41.519 -13.708   2.849  1.00  0.00     0.274 C 
BRANCH  27  28
HETATM   28  O   UNL     1      42.075 -13.029   1.733  1.00  0.00    -0.293 OA
BRANCH  28  29
HETATM   29  N   UNL     1      41.424 -13.468   0.575  1.00  0.00    -0.171 NA
HETATM   30  H   UNL     1      40.842 -14.296   0.717  1.00  0.00     0.160 HD
BRANCH  29  31
HETATM   31  C   UNL     1      40.798 -12.525  -0.221  1.00  0.00     0.035 C 
HETATM   32  C   UNL     1      41.064 -11.210  -0.227  1.00  0.00     0.039 C 
BRANCH  31  33
HETATM   33  C   UNL     1      39.779 -13.040  -1.157  1.00  0.00    -0.014 A 
HETATM   34  C   UNL     1      38.523 -12.423  -1.227  1.00  0.00     0.013 A 
HETATM   35  C   UNL     1      37.547 -12.901  -2.105  1.00  0.00     0.001 A 
HETATM   36  C   UNL     1      37.823 -13.995  -2.924  1.00  0.00     0.000 A 
HETATM   37  C   UNL     1      39.073 -14.610  -2.869  1.00  0.00     0.001 A 
HETATM   38  C   UNL     1      40.048 -14.135  -1.989  1.00  0.00     0.013 A 
ENDBRANCH  31  33
ENDBRANCH  29  31
ENDBRANCH  28  29
ENDBRANCH  27  28
ENDBRANCH   7  27
TORSDOF 8
ENDMDL
MODEL 10
REMARK VINA RESULT:      -9.0      3.118      5.604
REMARK  8 active torsions:
REMARK  status: ('A' for Active; 'I' for Inactive)
REMARK    1  A    between atoms: C_5  and  C_6 
REMARK    2  A    between atoms: C_11  and  C_12 
REMARK    3  A    between atoms: N_13  and  N_14 
REMARK    4  A    between atoms: C_20  and  C_21 
REMARK    5  A    between atoms: C_21  and  O_22 
REMARK    6  A    between atoms: O_22  and  N_23 
REMARK    7  A    between atoms: N_23  and  C_24 
REMARK    8  A    between atoms: C_24  and  C_25 
ROOT
HETATM    1  N   UNL     1      41.926 -14.382   3.763  1.00  0.00    -0.180 N 
HETATM    2  C   UNL     1      42.171 -15.394   2.823  1.00  0.00     0.282 C 
HETATM    3  O   UNL     1      41.825 -15.379   1.642  1.00  0.00    -0.265 OA
HETATM    4  C   UNL     1      42.958 -16.541   3.310  1.00  0.00     0.063 A 
HETATM    5  C   UNL     1      43.478 -16.477   4.601  1.00  0.00     0.074 A 
HETATM    6  N   UNL     1      43.275 -15.378   5.441  1.00  0.00    -0.230 NA
HETATM    7  C   UNL     1      42.532 -14.400   5.011  1.00  0.00     0.157 C 
HETATM    8  C   UNL     1      43.198 -17.651   2.489  1.00  0.00     0.019 A 
HETATM    9  C   UNL     1      43.968 -18.710   2.968  1.00  0.00     0.001 A 
HETATM   10  C   UNL     1      44.495 -18.657   4.257  1.00  0.00     0.002 A 
HETATM   11  C   UNL     1      44.249 -17.544   5.068  1.00  0.00     0.032 A 
ENDROOT
BRANCH   1  12
HETATM   12  N   UNL     1      41.250 -13.222   3.405  1.00  0.00    -0.174 NA
HETATM   13  C   UNL     1      39.958 -13.240   3.457  1.00  0.00     0.154 C 
BRANCH  13  14
HETATM   14  C   UNL     1      39.226 -12.069   3.034  1.00  0.00     0.031 A 
HETATM   15  C   UNL     1      38.993 -10.848   3.741  1.00  0.00     0.100 A 
HETATM   16  N   UNL     1      38.325  -9.974   2.966  1.00  0.00    -0.174 NA
HETATM   17  N   UNL     1      38.090 -10.638   1.827  1.00  0.00    -0.288 N 
HETATM   18  H   UNL     1      37.574 -10.165   1.094  1.00  0.00     0.188 HD
HETATM   19  C   UNL     1      38.605 -11.895   1.813  1.00  0.00     0.124 A 
BRANCH  15  20
HETATM   20  C   UNL     1      39.366 -10.489   5.113  1.00  0.00    -0.005 A 
HETATM   21  C   UNL     1      38.612 -10.925   6.211  1.00  0.00     0.014 A 
HETATM   22  C   UNL     1      38.976 -10.569   7.514  1.00  0.00     0.007 A 
HETATM   23  C   UNL     1      40.088  -9.754   7.743  1.00  0.00    -0.062 A 
HETATM   24  C   UNL     1      40.487  -9.368   9.136  1.00  0.00     0.048 C 
HETATM   25  C   UNL     1      40.840  -9.309   6.649  1.00  0.00     0.007 A 
HETATM   26  C   UNL     1      40.478  -9.670   5.348  1.00  0.00     0.014 A 
ENDBRANCH  15  20
ENDBRANCH  13  14
ENDBRANCH   1  12
BRANCH   7  27
HETATM   27  C   UNL     1      42.325 -13.189   5.932  1.00  0.00     0.274 C 
BRANCH  27  28
HETATM   28  O   UNL     1      43.400 -12.274   6.089  1.00  0.00    -0.293 OA
BRANCH  28  29
HETATM   29  N   UNL     1      43.416 -11.830   7.416  1.00  0.00    -0.171 NA
HETATM   30  H   UNL     1      43.215 -12.563   8.100  1.00  0.00     0.160 HD
BRANCH  29  31
HETATM   31  C   UNL     1      44.458 -11.016   7.820  1.00  0.00     0.035 C 
HETATM   32  C   UNL     1      45.703 -11.036   7.319  1.00  0.00     0.039 C 
BRANCH  31  33
HETATM   33  C   UNL     1      44.140 -10.027   8.870  1.00  0.00    -0.014 A 
HETATM   34  C   UNL     1      43.918 -10.455  10.186  1.00  0.00     0.013 A 
HETATM   35  C   UNL     1      43.612  -9.532  11.188  1.00  0.00     0.001 A 
HETATM   36  C   UNL     1      43.533  -8.173  10.883  1.00  0.00     0.000 A 
HETATM   37  C   UNL     1      43.762  -7.736   9.579  1.00  0.00     0.001 A 
HETATM   38  C   UNL     1      44.064  -8.659   8.575  1.00  0.00     0.013 A 
ENDBRANCH  31  33
ENDBRANCH  29  31
ENDBRANCH  28  29
ENDBRANCH  27  28
ENDBRANCH   7  27
TORSDOF 8
ENDMDL
