MODEL 1
REMARK VINA RESULT:      -8.9      0.000      0.000
REMARK  5 active torsions:
REMARK  status: ('A' for Active; 'I' for Inactive)
REMARK    1  A    between atoms: C_9  and  N_10 
REMARK       I    between atoms: N_10  and  C_11 
REMARK    2  A    between atoms: C_11  and  C_12 
REMARK    3  A    between atoms: C_14  and  C_15 
REMARK    4  A    between atoms: C_15  and  O_16 
REMARK    5  A    between atoms: O_16  and  C_17 
ROOT
HETATM    1  N   UNL     1      43.501 -12.767   7.308  1.00  0.00    -0.321 N 
HETATM    2  C   UNL     1      44.441 -11.758   7.130  1.00  0.00     0.279 C 
HETATM    3  O   UNL     1      44.990 -11.518   6.057  1.00  0.00    -0.265 OA
HETATM    4  H   UNL     1      42.997 -12.750   8.185  1.00  0.00     0.169 HD
ENDROOT
BRANCH   2   5
HETATM    5  C   UNL     1      44.670 -10.962   8.323  1.00  0.00     0.143 A 
HETATM    6  O   UNL     1      43.930 -11.254   9.435  1.00  0.00    -0.307 OA
HETATM    7  C   UNL     1      44.328 -10.418  10.434  1.00  0.00     0.078 A 
HETATM    8  C   UNL     1      45.307  -9.566   9.969  1.00  0.00     0.038 A 
HETATM    9  C   UNL     1      45.534  -9.919   8.614  1.00  0.00     0.045 A 
BRANCH   7  10
HETATM   10  C   UNL     1      43.677 -10.608  11.756  1.00  0.00     0.240 C 
BRANCH  10  11
HETATM   11  O   UNL     1      42.571  -9.710  11.808  1.00  0.00    -0.345 OA
BRANCH  11  12
HETATM   12  C   UNL     1      42.451  -8.956  12.944  1.00  0.00     0.069 A 
HETATM   13  C   UNL     1      41.562  -9.195  13.997  1.00  0.00     0.040 A 
HETATM   14  C   UNL     1      41.540  -8.337  15.101  1.00  0.00     0.045 A 
HETATM   15  C   UNL     1      42.405  -7.252  15.149  1.00  0.00     0.116 A 
HETATM   16  F   UNL     1      42.377  -6.432  16.209  1.00  0.00    -0.206 F 
HETATM   17  C   UNL     1      43.299  -7.006  14.115  1.00  0.00     0.045 A 
HETATM   18  C   UNL     1      43.321  -7.862  13.013  1.00  0.00     0.040 A 
ENDBRANCH  11  12
ENDBRANCH  10  11
ENDBRANCH   7  10
ENDBRANCH   2   5
BRANCH   1  19
HETATM   19  C   UNL     1      43.049 -13.684   6.337  1.00  0.00     0.035 A 
HETATM   20  C   UNL     1      41.975 -13.430   5.479  1.00  0.00     0.039 A 
HETATM   21  C   UNL     1      41.593 -14.409   4.572  1.00  0.00    -0.022 A 
HETATM   22  C   UNL     1      40.507 -14.337   3.556  1.00  0.00     0.274 C 
HETATM   23  C   UNL     1      42.263 -15.630   4.498  1.00  0.00    -0.025 A 
HETATM   24  N   UNL     1      40.399 -15.755   3.007  1.00  0.00    -0.067 N 
HETATM   25  C   UNL     1      40.107 -15.829   1.552  1.00  0.00     0.270 C 
HETATM   26  H   UNL     1      39.627 -16.194   3.522  1.00  0.00     0.280 HD
HETATM   27  C   UNL     1      41.666 -16.488   3.436  1.00  0.00     0.273 C 
HETATM   28  C   UNL     1      43.342 -15.894   5.322  1.00  0.00     0.012 A 
HETATM   29  C   UNL     1      43.736 -14.911   6.239  1.00  0.00     0.030 A 
ENDBRANCH   1  19
TORSDOF 5
ENDMDL
MODEL 2
REMARK VINA RESULT:      -8.7      4.698     10.449
REMARK  5 active torsions:
REMARK  status: ('A' for Active; 'I' for Inactive)
REMARK    1  A    between atoms: C_9  and  N_10 
REMARK       I    between atoms: N_10  and  C_11 
REMARK    2  A    between atoms: C_11  and  C_12 
REMARK    3  A    between atoms: C_14  and  C_15 
REMARK    4  A    between atoms: C_15  and  O_16 
REMARK    5  A    between atoms: O_16  and  C_17 
ROOT
HETATM    1  N   UNL     1      43.466 -12.201   5.136  1.00  0.00    -0.321 N 
HETATM    2  C   UNL     1      42.948 -11.613   3.986  1.00  0.00     0.279 C 
HETATM    3  O   UNL     1      42.855 -10.398   3.823  1.00  0.00    -0.265 OA
HETATM    4  H   UNL     1      43.651 -13.194   5.078  1.00  0.00     0.169 HD
ENDROOT
BRANCH   2   5
HETATM    5  C   UNL     1      42.584 -12.572   2.959  1.00  0.00     0.143 A 
HETATM    6  O   UNL     1      43.371 -13.680   2.814  1.00  0.00    -0.307 OA
HETATM    7  C   UNL     1      42.831 -14.451   1.828  1.00  0.00     0.078 A 
HETATM    8  C   UNL     1      41.710 -13.836   1.315  1.00  0.00     0.038 A 
HETATM    9  C   UNL     1      41.544 -12.632   2.045  1.00  0.00     0.045 A 
BRANCH   7  10
HETATM   10  C   UNL     1      43.514 -15.740   1.548  1.00  0.00     0.240 C 
BRANCH  10  11
HETATM   11  O   UNL     1      42.639 -16.778   1.981  1.00  0.00    -0.345 OA
BRANCH  11  12
HETATM   12  C   UNL     1      43.164 -17.695   2.852  1.00  0.00     0.069 A 
HETATM   13  C   UNL     1      43.580 -17.435   4.162  1.00  0.00     0.040 A 
HETATM   14  C   UNL     1      44.105 -18.468   4.946  1.00  0.00     0.045 A 
HETATM   15  C   UNL     1      44.208 -19.749   4.420  1.00  0.00     0.116 A 
HETATM   16  F   UNL     1      44.715 -20.732   5.175  1.00  0.00    -0.206 F 
HETATM   17  C   UNL     1      43.793 -20.023   3.124  1.00  0.00     0.045 A 
HETATM   18  C   UNL     1      43.268 -18.993   2.342  1.00  0.00     0.040 A 
ENDBRANCH  11  12
ENDBRANCH  10  11
ENDBRANCH   7  10
ENDBRANCH   2   5
BRANCH   1  19
HETATM   19  C   UNL     1      43.930 -11.537   6.290  1.00  0.00     0.035 A 
HETATM   20  C   UNL     1      43.087 -10.896   7.202  1.00  0.00     0.039 A 
HETATM   21  C   UNL     1      43.645 -10.251   8.295  1.00  0.00    -0.022 A 
HETATM   22  C   UNL     1      42.937  -9.539   9.395  1.00  0.00     0.274 C 
HETATM   23  C   UNL     1      45.025 -10.237   8.503  1.00  0.00    -0.025 A 
HETATM   24  N   UNL     1      44.045  -8.848  10.183  1.00  0.00    -0.067 N 
HETATM   25  C   UNL     1      43.826  -8.819  11.652  1.00  0.00     0.270 C 
HETATM   26  H   UNL     1      44.073  -7.883   9.834  1.00  0.00     0.280 HD
HETATM   27  C   UNL     1      45.357  -9.494   9.751  1.00  0.00     0.273 C 
HETATM   28  C   UNL     1      45.877 -10.883   7.625  1.00  0.00     0.012 A 
HETATM   29  C   UNL     1      45.321 -11.539   6.520  1.00  0.00     0.030 A 
ENDBRANCH   1  19
TORSDOF 5
ENDMDL
MODEL 3
REMARK VINA RESULT:      -8.7      1.251      1.984
REMARK  5 active torsions:
REMARK  status: ('A' for Active; 'I' for Inactive)
REMARK    1  A    between atoms: C_9  and  N_10 
REMARK       I    between atoms: N_10  and  C_11 
REMARK    2  A    between atoms: C_11  and  C_12 
REMARK    3  A    between atoms: C_14  and  C_15 
REMARK    4  A    between atoms: C_15  and  O_16 
REMARK    5  A    between atoms: O_16  and  C_17 
ROOT
HETATM    1  N   UNL     1      43.733 -12.815   7.217  1.00  0.00    -0.321 N 
HETATM    2  C   UNL     1      44.620 -11.750   7.098  1.00  0.00     0.279 C 
HETATM    3  O   UNL     1      45.341 -11.567   6.119  1.00  0.00    -0.265 OA
HETATM    4  H   UNL     1      43.076 -12.757   7.984  1.00  0.00     0.169 HD
ENDROOT
BRANCH   2   5
HETATM    5  C   UNL     1      44.571 -10.828   8.219  1.00  0.00     0.143 A 
HETATM    6  O   UNL     1      43.983 -11.260   9.375  1.00  0.00    -0.307 OA
HETATM    7  C   UNL     1      44.078 -10.258  10.293  1.00  0.00     0.078 A 
HETATM    8  C   UNL     1      44.704  -9.166   9.731  1.00  0.00     0.038 A 
HETATM    9  C   UNL     1      45.029  -9.532   8.400  1.00  0.00     0.045 A 
BRANCH   7  10
HETATM   10  C   UNL     1      43.539 -10.548  11.647  1.00  0.00     0.240 C 
BRANCH  10  11
HETATM   11  O   UNL     1      42.338  -9.794  11.788  1.00  0.00    -0.345 OA
BRANCH  11  12
HETATM   12  C   UNL     1      42.238  -9.010  12.905  1.00  0.00     0.069 A 
HETATM   13  C   UNL     1      41.293  -9.155  13.926  1.00  0.00     0.040 A 
HETATM   14  C   UNL     1      41.299  -8.277  15.015  1.00  0.00     0.045 A 
HETATM   15  C   UNL     1      42.248  -7.265  15.079  1.00  0.00     0.116 A 
HETATM   16  F   UNL     1      42.247  -6.425  16.123  1.00  0.00    -0.206 F 
HETATM   17  C   UNL     1      43.197  -7.113  14.077  1.00  0.00     0.045 A 
HETATM   18  C   UNL     1      43.191  -7.990  12.991  1.00  0.00     0.040 A 
ENDBRANCH  11  12
ENDBRANCH  10  11
ENDBRANCH   7  10
ENDBRANCH   2   5
BRANCH   1  19
HETATM   19  C   UNL     1      43.531 -13.855   6.287  1.00  0.00     0.035 A 
HETATM   20  C   UNL     1      44.128 -15.114   6.396  1.00  0.00     0.039 A 
HETATM   21  C   UNL     1      43.882 -16.062   5.414  1.00  0.00    -0.022 A 
HETATM   22  C   UNL     1      44.387 -17.462   5.350  1.00  0.00     0.274 C 
HETATM   23  C   UNL     1      43.049 -15.784   4.329  1.00  0.00    -0.025 A 
HETATM   24  N   UNL     1      43.985 -17.953   3.964  1.00  0.00    -0.067 N 
HETATM   25  C   UNL     1      43.572 -19.379   3.914  1.00  0.00     0.270 C 
HETATM   26  H   UNL     1      44.817 -17.829   3.374  1.00  0.00     0.280 HD
HETATM   27  C   UNL     1      42.943 -16.973   3.437  1.00  0.00     0.273 C 
HETATM   28  C   UNL     1      42.430 -14.553   4.212  1.00  0.00     0.012 A 
HETATM   29  C   UNL     1      42.671 -13.591   5.201  1.00  0.00     0.030 A 
ENDBRANCH   1  19
TORSDOF 5
ENDMDL
MODEL 4
REMARK VINA RESULT:      -8.7      4.515     10.719
REMARK  5 active torsions:
REMARK  status: ('A' for Active; 'I' for Inactive)
REMARK    1  A    between atoms: C_9  and  N_10 
REMARK       I    between atoms: N_10  and  C_11 
REMARK    2  A    between atoms: C_11  and  C_12 
REMARK    3  A    between atoms: C_14  and  C_15 
REMARK    4  A    between atoms: C_15  and  O_16 
REMARK    5  A    between atoms: O_16  and  C_17 
ROOT
HETATM    1  N   UNL     1      43.045 -10.203   9.483  1.00  0.00    -0.321 N 
HETATM    2  C   UNL     1      44.238 -10.709   8.980  1.00  0.00     0.279 C 
HETATM    3  O   UNL     1      45.320 -10.610   9.556  1.00  0.00    -0.265 OA
HETATM    4  H   UNL     1      42.204 -10.500   9.006  1.00  0.00     0.169 HD
ENDROOT
BRANCH   2   5
HETATM    5  C   UNL     1      44.080 -11.430   7.729  1.00  0.00     0.143 A 
HETATM    6  O   UNL     1      43.962 -12.791   7.789  1.00  0.00    -0.307 OA
HETATM    7  C   UNL     1      43.790 -13.252   6.518  1.00  0.00     0.078 A 
HETATM    8  C   UNL     1      43.821 -12.199   5.630  1.00  0.00     0.038 A 
HETATM    9  C   UNL     1      44.000 -11.026   6.406  1.00  0.00     0.045 A 
BRANCH   7  10
HETATM   10  C   UNL     1      43.588 -14.716   6.367  1.00  0.00     0.240 C 
BRANCH  10  11
HETATM   11  O   UNL     1      43.056 -14.931   5.063  1.00  0.00    -0.345 OA
BRANCH  11  12
HETATM   12  C   UNL     1      43.360 -16.127   4.470  1.00  0.00     0.069 A 
HETATM   13  C   UNL     1      43.979 -17.217   5.091  1.00  0.00     0.040 A 
HETATM   14  C   UNL     1      44.237 -18.383   4.363  1.00  0.00     0.045 A 
HETATM   15  C   UNL     1      43.873 -18.455   3.025  1.00  0.00     0.116 A 
HETATM   16  F   UNL     1      44.126 -19.574   2.333  1.00  0.00    -0.206 F 
HETATM   17  C   UNL     1      43.250 -17.385   2.397  1.00  0.00     0.045 A 
HETATM   18  C   UNL     1      42.992 -16.221   3.123  1.00  0.00     0.040 A 
ENDBRANCH  11  12
ENDBRANCH  10  11
ENDBRANCH   7  10
ENDBRANCH   2   5
BRANCH   1  19
HETATM   19  C   UNL     1      42.871  -9.484  10.684  1.00  0.00     0.035 A 
HETATM   20  C   UNL     1      42.684  -8.100  10.733  1.00  0.00     0.039 A 
HETATM   21  C   UNL     1      42.545  -7.484  11.968  1.00  0.00    -0.022 A 
HETATM   22  C   UNL     1      42.309  -6.040  12.246  1.00  0.00     0.274 C 
HETATM   23  C   UNL     1      42.582  -8.219  13.154  1.00  0.00    -0.025 A 
HETATM   24  N   UNL     1      42.462  -5.909  13.758  1.00  0.00    -0.067 N 
HETATM   25  C   UNL     1      41.524  -4.943  14.388  1.00  0.00     0.270 C 
HETATM   26  H   UNL     1      43.423  -5.585  13.913  1.00  0.00     0.280 HD
HETATM   27  C   UNL     1      42.393  -7.321  14.328  1.00  0.00     0.273 C 
HETATM   28  C   UNL     1      42.744  -9.592  13.128  1.00  0.00     0.012 A 
HETATM   29  C   UNL     1      42.882 -10.222  11.885  1.00  0.00     0.030 A 
ENDBRANCH   1  19
TORSDOF 5
ENDMDL
MODEL 5
REMARK VINA RESULT:      -8.6      7.146     10.121
REMARK  5 active torsions:
REMARK  status: ('A' for Active; 'I' for Inactive)
REMARK    1  A    between atoms: C_9  and  N_10 
REMARK       I    between atoms: N_10  and  C_11 
REMARK    2  A    between atoms: C_11  and  C_12 
REMARK    3  A    between atoms: C_14  and  C_15 
REMARK    4  A    between atoms: C_15  and  O_16 
REMARK    5  A    between atoms: O_16  and  C_17 
ROOT
HETATM    1  N   UNL     1      41.620 -14.383   2.964  1.00  0.00    -0.321 N 
HETATM    2  C   UNL     1      41.060 -14.052   4.193  1.00  0.00     0.279 C 
HETATM    3  O   UNL     1      40.039 -13.379   4.320  1.00  0.00    -0.265 OA
HETATM    4  H   UNL     1      42.351 -15.082   2.986  1.00  0.00     0.169 HD
ENDROOT
BRANCH   2   5
HETATM    5  C   UNL     1      41.760 -14.634   5.324  1.00  0.00     0.143 A 
HETATM    6  O   UNL     1      41.984 -15.983   5.309  1.00  0.00    -0.307 OA
HETATM    7  C   UNL     1      42.678 -16.305   6.437  1.00  0.00     0.078 A 
HETATM    8  C   UNL     1      42.884 -15.174   7.198  1.00  0.00     0.038 A 
HETATM    9  C   UNL     1      42.301 -14.098   6.482  1.00  0.00     0.045 A 
BRANCH   7  10
HETATM   10  C   UNL     1      43.071 -17.730   6.588  1.00  0.00     0.240 C 
BRANCH  10  11
HETATM   11  O   UNL     1      44.194 -17.945   5.738  1.00  0.00    -0.345 OA
BRANCH  11  12
HETATM   12  C   UNL     1      43.950 -18.593   4.557  1.00  0.00     0.069 A 
HETATM   13  C   UNL     1      43.578 -17.988   3.352  1.00  0.00     0.040 A 
HETATM   14  C   UNL     1      43.353 -18.773   2.216  1.00  0.00     0.045 A 
HETATM   15  C   UNL     1      43.505 -20.151   2.289  1.00  0.00     0.116 A 
HETATM   16  F   UNL     1      43.286 -20.898   1.198  1.00  0.00    -0.206 F 
HETATM   17  C   UNL     1      43.883 -20.765   3.476  1.00  0.00     0.045 A 
HETATM   18  C   UNL     1      44.107 -19.982   4.610  1.00  0.00     0.040 A 
ENDBRANCH  11  12
ENDBRANCH  10  11
ENDBRANCH   7  10
ENDBRANCH   2   5
BRANCH   1  19
HETATM   19  C   UNL     1      41.156 -13.994   1.691  1.00  0.00     0.035 A 
HETATM   20  C   UNL     1      41.370 -12.725   1.146  1.00  0.00     0.039 A 
HETATM   21  C   UNL     1      40.851 -12.434  -0.107  1.00  0.00    -0.022 A 
HETATM   22  C   UNL     1      40.986 -11.168  -0.880  1.00  0.00     0.274 C 
HETATM   23  C   UNL     1      40.129 -13.384  -0.831  1.00  0.00    -0.025 A 
HETATM   24  N   UNL     1      40.042 -11.338  -2.065  1.00  0.00    -0.067 N 
HETATM   25  C   UNL     1      40.542 -10.752  -3.336  1.00  0.00     0.270 C 
HETATM   26  H   UNL     1      39.174 -10.859  -1.800  1.00  0.00     0.280 HD
HETATM   27  C   UNL     1      39.702 -12.822  -2.144  1.00  0.00     0.273 C 
HETATM   28  C   UNL     1      39.923 -14.653  -0.321  1.00  0.00     0.012 A 
HETATM   29  C   UNL     1      40.446 -14.955   0.942  1.00  0.00     0.030 A 
ENDBRANCH   1  19
TORSDOF 5
ENDMDL
MODEL 6
REMARK VINA RESULT:      -8.5      4.550     10.744
REMARK  5 active torsions:
REMARK  status: ('A' for Active; 'I' for Inactive)
REMARK    1  A    between atoms: C_9  and  N_10 
REMARK       I    between atoms: N_10  and  C_11 
REMARK    2  A    between atoms: C_11  and  C_12 
REMARK    3  A    between atoms: C_14  and  C_15 
REMARK    4  A    between atoms: C_15  and  O_16 
REMARK    5  A    between atoms: O_16  and  C_17 
ROOT
HETATM    1  N   UNL     1      42.982 -10.013   8.882  1.00  0.00    -0.321 N 
HETATM    2  C   UNL     1      44.110 -10.767   8.575  1.00  0.00     0.279 C 
HETATM    3  O   UNL     1      45.138 -10.762   9.248  1.00  0.00    -0.265 OA
HETATM    4  H   UNL     1      42.147 -10.236   8.356  1.00  0.00     0.169 HD
ENDROOT
BRANCH   2   5
HETATM    5  C   UNL     1      43.938 -11.620   7.412  1.00  0.00     0.143 A 
HETATM    6  O   UNL     1      43.915 -12.972   7.612  1.00  0.00    -0.307 OA
HETATM    7  C   UNL     1      43.711 -13.570   6.404  1.00  0.00     0.078 A 
HETATM    8  C   UNL     1      43.627 -12.612   5.416  1.00  0.00     0.038 A 
HETATM    9  C   UNL     1      43.765 -11.358   6.062  1.00  0.00     0.045 A 
BRANCH   7  10
HETATM   10  C   UNL     1      43.600 -15.052   6.409  1.00  0.00     0.240 C 
BRANCH  10  11
HETATM   11  O   UNL     1      42.847 -15.417   5.256  1.00  0.00    -0.345 OA
BRANCH  11  12
HETATM   12  C   UNL     1      43.255 -16.542   4.591  1.00  0.00     0.069 A 
HETATM   13  C   UNL     1      44.114 -17.525   5.094  1.00  0.00     0.040 A 
HETATM   14  C   UNL     1      44.455 -18.626   4.303  1.00  0.00     0.045 A 
HETATM   15  C   UNL     1      43.937 -18.741   3.020  1.00  0.00     0.116 A 
HETATM   16  F   UNL     1      44.271 -19.796   2.265  1.00  0.00    -0.206 F 
HETATM   17  C   UNL     1      43.077 -17.777   2.509  1.00  0.00     0.045 A 
HETATM   18  C   UNL     1      42.736 -16.678   3.300  1.00  0.00     0.040 A 
ENDBRANCH  11  12
ENDBRANCH  10  11
ENDBRANCH   7  10
ENDBRANCH   2   5
BRANCH   1  19
HETATM   19  C   UNL     1      42.831  -9.117   9.959  1.00  0.00     0.035 A 
HETATM   20  C   UNL     1      42.625  -9.527  11.280  1.00  0.00     0.039 A 
HETATM   21  C   UNL     1      42.465  -8.564  12.266  1.00  0.00    -0.022 A 
HETATM   22  C   UNL     1      42.267  -8.778  13.726  1.00  0.00     0.274 C 
HETATM   23  C   UNL     1      42.513  -7.202  11.964  1.00  0.00    -0.025 A 
HETATM   24  N   UNL     1      41.933  -7.395  14.275  1.00  0.00    -0.067 N 
HETATM   25  C   UNL     1      42.501  -7.116  15.620  1.00  0.00     0.270 C 
HETATM   26  H   UNL     1      40.909  -7.359  14.336  1.00  0.00     0.280 HD
HETATM   27  C   UNL     1      42.330  -6.389  13.200  1.00  0.00     0.273 C 
HETATM   28  C   UNL     1      42.738  -6.774  10.669  1.00  0.00     0.012 A 
HETATM   29  C   UNL     1      42.903  -7.740   9.668  1.00  0.00     0.030 A 
ENDBRANCH   1  19
TORSDOF 5
ENDMDL
MODEL 7
REMARK VINA RESULT:      -8.4      2.410      3.794
REMARK  5 active torsions:
REMARK  status: ('A' for Active; 'I' for Inactive)
REMARK    1  A    between atoms: C_9  and  N_10 
REMARK       I    between atoms: N_10  and  C_11 
REMARK    2  A    between atoms: C_11  and  C_12 
REMARK    3  A    between atoms: C_14  and  C_15 
REMARK    4  A    between atoms: C_15  and  O_16 
REMARK    5  A    between atoms: O_16  and  C_17 
ROOT
HETATM    1  N   UNL     1      42.906 -13.842   4.740  1.00  0.00    -0.321 N 
HETATM    2  C   UNL     1      42.081 -13.438   5.784  1.00  0.00     0.279 C 
HETATM    3  O   UNL     1      41.270 -14.177   6.339  1.00  0.00    -0.265 OA
HETATM    4  H   UNL     1      43.646 -13.198   4.489  1.00  0.00     0.169 HD
ENDROOT
BRANCH   2   5
HETATM    5  C   UNL     1      42.309 -12.068   6.207  1.00  0.00     0.143 A 
HETATM    6  O   UNL     1      43.375 -11.825   7.029  1.00  0.00    -0.307 OA
HETATM    7  C   UNL     1      43.421 -10.484   7.269  1.00  0.00     0.078 A 
HETATM    8  C   UNL     1      42.374  -9.858   6.627  1.00  0.00     0.038 A 
HETATM    9  C   UNL     1      41.663 -10.873   5.938  1.00  0.00     0.045 A 
BRANCH   7  10
HETATM   10  C   UNL     1      44.548 -10.000   8.108  1.00  0.00     0.240 C 
BRANCH  10  11
HETATM   11  O   UNL     1      44.582 -10.820   9.273  1.00  0.00    -0.345 OA
BRANCH  11  12
HETATM   12  C   UNL     1      44.025 -10.292  10.407  1.00  0.00     0.069 A 
HETATM   13  C   UNL     1      43.530 -11.021  11.493  1.00  0.00     0.040 A 
HETATM   14  C   UNL     1      42.980 -10.353  12.591  1.00  0.00     0.045 A 
HETATM   15  C   UNL     1      42.930  -8.965  12.600  1.00  0.00     0.116 A 
HETATM   16  F   UNL     1      42.399  -8.331  13.653  1.00  0.00    -0.206 F 
HETATM   17  C   UNL     1      43.425  -8.227  11.532  1.00  0.00     0.045 A 
HETATM   18  C   UNL     1      43.975  -8.894  10.436  1.00  0.00     0.040 A 
ENDBRANCH  11  12
ENDBRANCH  10  11
ENDBRANCH   7  10
ENDBRANCH   2   5
BRANCH   1  19
HETATM   19  C   UNL     1      42.940 -15.113   4.132  1.00  0.00     0.035 A 
HETATM   20  C   UNL     1      43.616 -16.210   4.675  1.00  0.00     0.039 A 
HETATM   21  C   UNL     1      43.608 -17.413   3.985  1.00  0.00    -0.022 A 
HETATM   22  C   UNL     1      44.230 -18.704   4.393  1.00  0.00     0.274 C 
HETATM   23  C   UNL     1      42.936 -17.548   2.769  1.00  0.00    -0.025 A 
HETATM   24  N   UNL     1      44.096 -19.600   3.167  1.00  0.00    -0.067 N 
HETATM   25  C   UNL     1      43.815 -21.026   3.478  1.00  0.00     0.270 C 
HETATM   26  H   UNL     1      44.997 -19.540   2.679  1.00  0.00     0.280 HD
HETATM   27  C   UNL     1      43.072 -18.939   2.251  1.00  0.00     0.273 C 
HETATM   28  C   UNL     1      42.243 -16.482   2.224  1.00  0.00     0.012 A 
HETATM   29  C   UNL     1      42.245 -15.264   2.915  1.00  0.00     0.030 A 
ENDBRANCH   1  19
TORSDOF 5
ENDMDL
MODEL 8
REMARK VINA RESULT:      -7.9      1.773      2.569
REMARK  5 active torsions:
REMARK  status: ('A' for Active; 'I' for Inactive)
REMARK    1  A    between atoms: C_9  and  N_10 
REMARK       I    between atoms: N_10  and  C_11 
REMARK    2  A    between atoms: C_11  and  C_12 
REMARK    3  A    between atoms: C_14  and  C_15 
REMARK    4  A    between atoms: C_15  and  O_16 
REMARK    5  A    between atoms: O_16  and  C_17 
ROOT
HETATM    1  N   UNL     1      43.370 -12.756   4.836  1.00  0.00    -0.321 N 
HETATM    2  C   UNL     1      42.934 -12.030   5.940  1.00  0.00     0.279 C 
HETATM    3  O   UNL     1      41.752 -11.913   6.257  1.00  0.00    -0.265 OA
HETATM    4  H   UNL     1      44.366 -12.922   4.784  1.00  0.00     0.169 HD
ENDROOT
BRANCH   2   5
HETATM    5  C   UNL     1      44.017 -11.470   6.729  1.00  0.00     0.143 A 
HETATM    6  O   UNL     1      43.704 -10.932   7.947  1.00  0.00    -0.307 OA
HETATM    7  C   UNL     1      44.862 -10.503   8.524  1.00  0.00     0.078 A 
HETATM    8  C   UNL     1      45.923 -10.736   7.674  1.00  0.00     0.038 A 
HETATM    9  C   UNL     1      45.383 -11.365   6.524  1.00  0.00     0.045 A 
BRANCH   7  10
HETATM   10  C   UNL     1      44.748  -9.927   9.888  1.00  0.00     0.240 C 
BRANCH  10  11
HETATM   11  O   UNL     1      43.363  -9.681  10.122  1.00  0.00    -0.345 OA
BRANCH  11  12
HETATM   12  C   UNL     1      43.018  -9.290  11.387  1.00  0.00     0.069 A 
HETATM   13  C   UNL     1      43.609  -8.251  12.114  1.00  0.00     0.040 A 
HETATM   14  C   UNL     1      43.160  -7.959  13.406  1.00  0.00     0.045 A 
HETATM   15  C   UNL     1      42.126  -8.701  13.962  1.00  0.00     0.116 A 
HETATM   16  F   UNL     1      41.704  -8.418  15.201  1.00  0.00    -0.206 F 
HETATM   17  C   UNL     1      41.525  -9.730  13.250  1.00  0.00     0.045 A 
HETATM   18  C   UNL     1      41.972 -10.021  11.960  1.00  0.00     0.040 A 
ENDBRANCH  11  12
ENDBRANCH  10  11
ENDBRANCH   7  10
ENDBRANCH   2   5
BRANCH   1  19
HETATM   19  C   UNL     1      42.565 -13.436   3.900  1.00  0.00     0.035 A 
HETATM   20  C   UNL     1      41.966 -12.812   2.801  1.00  0.00     0.039 A 
HETATM   21  C   UNL     1      41.172 -13.567   1.950  1.00  0.00    -0.022 A 
HETATM   22  C   UNL     1      40.471 -13.115   0.716  1.00  0.00     0.274 C 
HETATM   23  C   UNL     1      40.967 -14.930   2.167  1.00  0.00    -0.025 A 
HETATM   24  N   UNL     1      39.587 -14.293   0.322  1.00  0.00    -0.067 N 
HETATM   25  C   UNL     1      39.471 -14.511  -1.143  1.00  0.00     0.270 C 
HETATM   26  H   UNL     1      38.656 -14.080   0.699  1.00  0.00     0.280 HD
HETATM   27  C   UNL     1      40.094 -15.501   1.103  1.00  0.00     0.273 C 
HETATM   28  C   UNL     1      41.567 -15.573   3.235  1.00  0.00     0.012 A 
HETATM   29  C   UNL     1      42.373 -14.818   4.098  1.00  0.00     0.030 A 
ENDBRANCH   1  19
TORSDOF 5
ENDMDL
MODEL 9
REMARK VINA RESULT:      -7.7      3.317      4.883
REMARK  5 active torsions:
REMARK  status: ('A' for Active; 'I' for Inactive)
REMARK    1  A    between atoms: C_9  and  N_10 
REMARK       I    between atoms: N_10  and  C_11 
REMARK    2  A    between atoms: C_11  and  C_12 
REMARK    3  A    between atoms: C_14  and  C_15 
REMARK    4  A    between atoms: C_15  and  O_16 
REMARK    5  A    between atoms: O_16  and  C_17 
ROOT
HETATM    1  N   UNL     1      41.732 -13.461   5.295  1.00  0.00    -0.321 N 
HETATM    2  C   UNL     1      40.526 -13.258   5.957  1.00  0.00     0.279 C 
HETATM    3  O   UNL     1      39.775 -14.168   6.302  1.00  0.00    -0.265 OA
HETATM    4  H   UNL     1      42.337 -12.653   5.224  1.00  0.00     0.169 HD
ENDROOT
BRANCH   2   5
HETATM    5  C   UNL     1      40.262 -11.864   6.267  1.00  0.00     0.143 A 
HETATM    6  O   UNL     1      41.323 -11.001   6.271  1.00  0.00    -0.307 OA
HETATM    7  C   UNL     1      40.847  -9.754   6.548  1.00  0.00     0.078 A 
HETATM    8  C   UNL     1      39.484  -9.808   6.749  1.00  0.00     0.038 A 
HETATM    9  C   UNL     1      39.105 -11.161   6.561  1.00  0.00     0.045 A 
BRANCH   7  10
HETATM   10  C   UNL     1      41.842  -8.651   6.549  1.00  0.00     0.240 C 
BRANCH  10  11
HETATM   11  O   UNL     1      41.926  -8.166   7.886  1.00  0.00    -0.345 OA
BRANCH  11  12
HETATM   12  C   UNL     1      42.814  -8.802   8.711  1.00  0.00     0.069 A 
HETATM   13  C   UNL     1      42.492  -9.501   9.880  1.00  0.00     0.040 A 
HETATM   14  C   UNL     1      43.504 -10.102  10.635  1.00  0.00     0.045 A 
HETATM   15  C   UNL     1      44.825 -10.005  10.220  1.00  0.00     0.116 A 
HETATM   16  F   UNL     1      45.790 -10.580  10.951  1.00  0.00    -0.206 F 
HETATM   17  C   UNL     1      45.160  -9.321   9.059  1.00  0.00     0.045 A 
HETATM   18  C   UNL     1      44.150  -8.721   8.304  1.00  0.00     0.040 A 
ENDBRANCH  11  12
ENDBRANCH  10  11
ENDBRANCH   7  10
ENDBRANCH   2   5
BRANCH   1  19
HETATM   19  C   UNL     1      42.275 -14.696   4.885  1.00  0.00     0.035 A 
HETATM   20  C   UNL     1      42.617 -15.720   5.773  1.00  0.00     0.039 A 
HETATM   21  C   UNL     1      43.167 -16.890   5.270  1.00  0.00    -0.022 A 
HETATM   22  C   UNL     1      43.571 -18.107   6.028  1.00  0.00     0.274 C 
HETATM   23  C   UNL     1      43.378 -17.063   3.902  1.00  0.00    -0.025 A 
HETATM   24  N   UNL     1      44.305 -18.969   5.006  1.00  0.00    -0.067 N 
HETATM   25  C   UNL     1      44.067 -20.429   5.152  1.00  0.00     0.270 C 
HETATM   26  H   UNL     1      45.304 -18.782   5.150  1.00  0.00     0.280 HD
HETATM   27  C   UNL     1      43.962 -18.407   3.631  1.00  0.00     0.273 C 
HETATM   28  C   UNL     1      43.028 -16.072   3.003  1.00  0.00     0.012 A 
HETATM   29  C   UNL     1      42.469 -14.888   3.503  1.00  0.00     0.030 A 
ENDBRANCH   1  19
TORSDOF 5
ENDMDL
MODEL 10
REMARK VINA RESULT:      -7.6      3.546      4.425
REMARK  5 active torsions:
REMARK  status: ('A' for Active; 'I' for Inactive)
REMARK    1  A    between atoms: C_9  and  N_10 
REMARK       I    between atoms: N_10  and  C_11 
REMARK    2  A    between atoms: C_11  and  C_12 
REMARK    3  A    between atoms: C_14  and  C_15 
REMARK    4  A    between atoms: C_15  and  O_16 
REMARK    5  A    between atoms: O_16  and  C_17 
ROOT
HETATM    1  N   UNL     1      42.651 -13.713   5.015  1.00  0.00    -0.321 N 
HETATM    2  C   UNL     1      41.431 -13.248   5.496  1.00  0.00     0.279 C 
HETATM    3  O   UNL     1      40.401 -13.917   5.505  1.00  0.00    -0.265 OA
HETATM    4  H   UNL     1      43.456 -13.136   5.223  1.00  0.00     0.169 HD
ENDROOT
BRANCH   2   5
HETATM    5  C   UNL     1      41.501 -11.908   6.053  1.00  0.00     0.143 A 
HETATM    6  O   UNL     1      40.326 -11.298   6.392  1.00  0.00    -0.307 OA
HETATM    7  C   UNL     1      40.625 -10.078   6.920  1.00  0.00     0.078 A 
HETATM    8  C   UNL     1      41.990  -9.883   6.902  1.00  0.00     0.038 A 
HETATM    9  C   UNL     1      42.555 -11.061   6.352  1.00  0.00     0.045 A 
BRANCH   7  10
HETATM   10  C   UNL     1      39.479  -9.267   7.405  1.00  0.00     0.240 C 
BRANCH  10  11
HETATM   11  O   UNL     1      38.926  -9.955   8.524  1.00  0.00    -0.345 OA
BRANCH  11  12
HETATM   12  C   UNL     1      39.097  -9.366   9.748  1.00  0.00     0.069 A 
HETATM   13  C   UNL     1      39.610  -9.986  10.892  1.00  0.00     0.040 A 
HETATM   14  C   UNL     1      39.727  -9.266  12.084  1.00  0.00     0.045 A 
HETATM   15  C   UNL     1      39.336  -7.934  12.127  1.00  0.00     0.116 A 
HETATM   16  F   UNL     1      39.447  -7.251  13.274  1.00  0.00    -0.206 F 
HETATM   17  C   UNL     1      38.832  -7.302  10.998  1.00  0.00     0.045 A 
HETATM   18  C   UNL     1      38.716  -8.021   9.807  1.00  0.00     0.040 A 
ENDBRANCH  11  12
ENDBRANCH  10  11
ENDBRANCH   7  10
ENDBRANCH   2   5
BRANCH   1  19
HETATM   19  C   UNL     1      42.908 -14.975   4.443  1.00  0.00     0.035 A 
HETATM   20  C   UNL     1      43.286 -16.097   5.188  1.00  0.00     0.039 A 
HETATM   21  C   UNL     1      43.540 -17.289   4.526  1.00  0.00    -0.022 A 
HETATM   22  C   UNL     1      43.921 -18.600   5.121  1.00  0.00     0.274 C 
HETATM   23  C   UNL     1      43.418 -17.390   3.139  1.00  0.00    -0.025 A 
HETATM   24  N   UNL     1      44.282 -19.475   3.925  1.00  0.00    -0.067 N 
HETATM   25  C   UNL     1      43.876 -20.898   4.062  1.00  0.00     0.270 C 
HETATM   26  H   UNL     1      45.304 -19.430   3.846  1.00  0.00     0.280 HD
HETATM   27  C   UNL     1      43.729 -18.775   2.688  1.00  0.00     0.273 C 
HETATM   28  C   UNL     1      43.024 -16.299   2.384  1.00  0.00     0.012 A 
HETATM   29  C   UNL     1      42.764 -15.092   3.046  1.00  0.00     0.030 A 
ENDBRANCH   1  19
TORSDOF 5
ENDMDL
