MODEL 1
REMARK VINA RESULT:      -9.4      0.000      0.000
REMARK  4 active torsions:
REMARK  status: ('A' for Active; 'I' for Inactive)
REMARK       I    between atoms: C_2  and  N_3 
REMARK    1  A    between atoms: N_7  and  N_8 
REMARK       I    between atoms: N_8  and  C_9 
REMARK    2  A    between atoms: C_9  and  C_10 
REMARK    3  A    between atoms: C_18  and  C_19 
REMARK    4  A    between atoms: C_20  and  O_21 
ROOT
HETATM    1  C   UNL     1      42.646 -14.776   5.157  1.00  0.00     0.048 A 
HETATM    2  C   UNL     1      41.567 -14.283   4.390  1.00  0.00     0.009 A 
HETATM    3  C   UNL     1      41.150 -15.102   3.322  1.00  0.00     0.068 A 
HETATM    4  C   UNL     1      40.123 -14.663   2.499  1.00  0.00     0.032 A 
HETATM    5  C   UNL     1      39.469 -13.448   2.712  1.00  0.00     0.002 A 
HETATM    6  C   UNL     1      39.833 -12.654   3.788  1.00  0.00     0.001 A 
HETATM    7  C   UNL     1      40.865 -13.070   4.627  1.00  0.00     0.015 A 
HETATM    8  N   UNL     1      41.686 -16.306   3.066  1.00  0.00    -0.247 NA
HETATM    9  C   UNL     1      42.687 -16.780   3.845  1.00  0.00     0.071 A 
HETATM   10  C   UNL     1      43.198 -16.032   4.892  1.00  0.00     0.050 A 
ENDROOT
BRANCH   1  11
HETATM   11  C   UNL     1      43.248 -14.045   6.299  1.00  0.00     0.272 C 
HETATM   12  N   UNL     1      43.938 -12.886   5.971  1.00  0.00    -0.243 N 
HETATM   13  H   UNL     1      44.078 -12.637   5.000  1.00  0.00     0.192 HD
HETATM   14  O   UNL     1      43.131 -14.518   7.425  1.00  0.00    -0.266 OA
BRANCH  12  15
HETATM   15  N   UNL     1      44.575 -12.196   6.952  1.00  0.00    -0.181 NA
HETATM   16  C   UNL     1      44.012 -11.166   7.504  1.00  0.00     0.035 C 
HETATM   17  C   UNL     1      44.789 -10.452   8.590  1.00  0.00     0.076 C 
HETATM   18  C   UNL     1      42.605 -10.666   7.267  1.00  0.00     0.076 C 
HETATM   19  C   UNL     1      44.752  -8.955   8.331  1.00  0.00     0.131 C 
HETATM   20  N   UNL     1      43.380  -8.478   8.137  1.00  0.00    -0.352 N 
HETATM   21  C   UNL     1      43.031  -7.249   8.685  1.00  0.00     0.215 C 
HETATM   22  C   UNL     1      42.623  -9.154   7.081  1.00  0.00     0.131 C 
HETATM   23  C   UNL     1      41.643  -6.733   8.399  1.00  0.00     0.117 C 
HETATM   24  O   UNL     1      43.793  -6.596   9.398  1.00  0.00    -0.274 OA
ENDBRANCH  12  15
ENDBRANCH   1  11
BRANCH   9  25
HETATM   25  C   UNL     1      43.155 -18.151   3.563  1.00  0.00     0.026 A 
HETATM   26  C   UNL     1      43.801 -18.956   4.521  1.00  0.00     0.080 A 
HETATM   27  C   UNL     1      44.211 -20.262   4.220  1.00  0.00     0.037 A 
HETATM   28  C   UNL     1      44.018 -20.780   2.943  1.00  0.00     0.003 A 
HETATM   29  C   UNL     1      43.404 -19.999   1.969  1.00  0.00     0.001 A 
HETATM   30  C   UNL     1      42.978 -18.704   2.277  1.00  0.00     0.016 A 
BRANCH  26  31
HETATM   31  O   UNL     1      43.960 -18.505   5.810  1.00  0.00    -0.355 OA
HETATM   32  C   UNL     1      43.308 -19.384   6.728  1.00  0.00     0.210 C 
ENDBRANCH  26  31
ENDBRANCH   9  25
TORSDOF 4
ENDMDL
MODEL 2
REMARK VINA RESULT:      -9.3      4.407      8.827
REMARK  4 active torsions:
REMARK  status: ('A' for Active; 'I' for Inactive)
REMARK       I    between atoms: C_2  and  N_3 
REMARK    1  A    between atoms: N_7  and  N_8 
REMARK       I    between atoms: N_8  and  C_9 
REMARK    2  A    between atoms: C_9  and  C_10 
REMARK    3  A    between atoms: C_18  and  C_19 
REMARK    4  A    between atoms: C_20  and  O_21 
ROOT
HETATM    1  C   UNL     1      41.228 -15.077   2.424  1.00  0.00     0.048 A 
HETATM    2  C   UNL     1      42.128 -16.024   2.962  1.00  0.00     0.009 A 
HETATM    3  C   UNL     1      42.727 -15.673   4.187  1.00  0.00     0.068 A 
HETATM    4  C   UNL     1      43.654 -16.536   4.755  1.00  0.00     0.032 A 
HETATM    5  C   UNL     1      43.991 -17.756   4.164  1.00  0.00     0.002 A 
HETATM    6  C   UNL     1      43.372 -18.139   2.984  1.00  0.00     0.001 A 
HETATM    7  C   UNL     1      42.441 -17.288   2.392  1.00  0.00     0.015 A 
HETATM    8  N   UNL     1      42.434 -14.545   4.852  1.00  0.00    -0.247 NA
HETATM    9  C   UNL     1      41.531 -13.674   4.342  1.00  0.00     0.071 A 
HETATM   10  C   UNL     1      40.920 -13.906   3.122  1.00  0.00     0.050 A 
ENDROOT
BRANCH   1  11
HETATM   11  C   UNL     1      40.524 -15.249   1.129  1.00  0.00     0.272 C 
HETATM   12  N   UNL     1      40.915 -14.385   0.115  1.00  0.00    -0.243 N 
HETATM   13  H   UNL     1      41.572 -13.641   0.309  1.00  0.00     0.192 HD
HETATM   14  O   UNL     1      39.641 -16.097   1.051  1.00  0.00    -0.266 OA
BRANCH  12  15
HETATM   15  N   UNL     1      40.271 -14.434  -1.079  1.00  0.00    -0.181 NA
HETATM   16  C   UNL     1      39.554 -13.431  -1.482  1.00  0.00     0.035 C 
HETATM   17  C   UNL     1      38.868 -13.566  -2.825  1.00  0.00     0.076 C 
HETATM   18  C   UNL     1      39.422 -12.083  -0.810  1.00  0.00     0.076 C 
HETATM   19  C   UNL     1      37.418 -13.134  -2.693  1.00  0.00     0.131 C 
HETATM   20  N   UNL     1      37.305 -11.812  -2.071  1.00  0.00    -0.352 N 
HETATM   21  C   UNL     1      36.341 -10.938  -2.562  1.00  0.00     0.215 C 
HETATM   22  C   UNL     1      37.955 -11.674  -0.766  1.00  0.00     0.131 C 
HETATM   23  C   UNL     1      36.179  -9.618  -1.852  1.00  0.00     0.117 C 
HETATM   24  O   UNL     1      35.648 -11.194  -3.546  1.00  0.00    -0.274 OA
ENDBRANCH  12  15
ENDBRANCH   1  11
BRANCH   9  25
HETATM   25  C   UNL     1      41.188 -12.507   5.178  1.00  0.00     0.026 A 
HETATM   26  C   UNL     1      42.069 -11.430   5.395  1.00  0.00     0.080 A 
HETATM   27  C   UNL     1      41.697 -10.330   6.179  1.00  0.00     0.037 A 
HETATM   28  C   UNL     1      40.448 -10.297   6.794  1.00  0.00     0.003 A 
HETATM   29  C   UNL     1      39.566 -11.358   6.617  1.00  0.00     0.001 A 
HETATM   30  C   UNL     1      39.931 -12.446   5.818  1.00  0.00     0.016 A 
BRANCH  26  31
HETATM   31  O   UNL     1      43.288 -11.395   4.762  1.00  0.00    -0.355 OA
HETATM   32  C   UNL     1      44.347 -11.431   5.720  1.00  0.00     0.210 C 
ENDBRANCH  26  31
ENDBRANCH   9  25
TORSDOF 4
ENDMDL
MODEL 3
REMARK VINA RESULT:      -9.3      4.523      7.476
REMARK  4 active torsions:
REMARK  status: ('A' for Active; 'I' for Inactive)
REMARK       I    between atoms: C_2  and  N_3 
REMARK    1  A    between atoms: N_7  and  N_8 
REMARK       I    between atoms: N_8  and  C_9 
REMARK    2  A    between atoms: C_9  and  C_10 
REMARK    3  A    between atoms: C_18  and  C_19 
REMARK    4  A    between atoms: C_20  and  O_21 
ROOT
HETATM    1  C   UNL     1      41.489 -14.876   1.945  1.00  0.00     0.048 A 
HETATM    2  C   UNL     1      41.990 -13.651   2.442  1.00  0.00     0.009 A 
HETATM    3  C   UNL     1      42.778 -13.740   3.606  1.00  0.00     0.068 A 
HETATM    4  C   UNL     1      43.269 -12.574   4.176  1.00  0.00     0.032 A 
HETATM    5  C   UNL     1      43.031 -11.316   3.616  1.00  0.00     0.002 A 
HETATM    6  C   UNL     1      42.300 -11.217   2.443  1.00  0.00     0.001 A 
HETATM    7  C   UNL     1      41.791 -12.372   1.853  1.00  0.00     0.015 A 
HETATM    8  N   UNL     1      43.098 -14.904   4.190  1.00  0.00    -0.247 NA
HETATM    9  C   UNL     1      42.647 -16.070   3.668  1.00  0.00     0.071 A 
HETATM   10  C   UNL     1      41.830 -16.087   2.551  1.00  0.00     0.050 A 
ENDROOT
BRANCH   1  11
HETATM   11  C   UNL     1      40.614 -14.985   0.751  1.00  0.00     0.272 C 
HETATM   12  N   UNL     1      40.994 -14.219  -0.342  1.00  0.00    -0.243 N 
HETATM   13  H   UNL     1      41.767 -13.572  -0.263  1.00  0.00     0.192 HD
HETATM   14  O   UNL     1      39.619 -15.700   0.818  1.00  0.00    -0.266 OA
BRANCH  12  15
HETATM   15  N   UNL     1      40.208 -14.212  -1.449  1.00  0.00    -0.181 NA
HETATM   16  C   UNL     1      39.474 -13.179  -1.729  1.00  0.00     0.035 C 
HETATM   17  C   UNL     1      38.625 -13.252  -2.981  1.00  0.00     0.076 C 
HETATM   18  C   UNL     1      39.462 -11.852  -1.004  1.00  0.00     0.076 C 
HETATM   19  C   UNL     1      37.215 -12.791  -2.657  1.00  0.00     0.131 C 
HETATM   20  N   UNL     1      37.216 -11.489  -1.986  1.00  0.00    -0.352 N 
HETATM   21  C   UNL     1      36.223 -10.576  -2.327  1.00  0.00     0.215 C 
HETATM   22  C   UNL     1      38.024 -11.411  -0.767  1.00  0.00     0.131 C 
HETATM   23  C   UNL     1      36.186  -9.277  -1.562  1.00  0.00     0.117 C 
HETATM   24  O   UNL     1      35.407 -10.782  -3.225  1.00  0.00    -0.274 OA
ENDBRANCH  12  15
ENDBRANCH   1  11
BRANCH   9  25
HETATM   25  C   UNL     1      43.124 -17.313   4.306  1.00  0.00     0.026 A 
HETATM   26  C   UNL     1      42.975 -17.577   5.682  1.00  0.00     0.080 A 
HETATM   27  C   UNL     1      43.422 -18.779   6.246  1.00  0.00     0.037 A 
HETATM   28  C   UNL     1      44.062 -19.730   5.455  1.00  0.00     0.003 A 
HETATM   29  C   UNL     1      44.244 -19.486   4.098  1.00  0.00     0.001 A 
HETATM   30  C   UNL     1      43.779 -18.295   3.532  1.00  0.00     0.016 A 
BRANCH  26  31
HETATM   31  O   UNL     1      42.300 -16.691   6.487  1.00  0.00    -0.355 OA
HETATM   32  C   UNL     1      43.139 -16.254   7.557  1.00  0.00     0.210 C 
ENDBRANCH  26  31
ENDBRANCH   9  25
TORSDOF 4
ENDMDL
MODEL 4
REMARK VINA RESULT:      -9.1      4.841      7.319
REMARK  4 active torsions:
REMARK  status: ('A' for Active; 'I' for Inactive)
REMARK       I    between atoms: C_2  and  N_3 
REMARK    1  A    between atoms: N_7  and  N_8 
REMARK       I    between atoms: N_8  and  C_9 
REMARK    2  A    between atoms: C_9  and  C_10 
REMARK    3  A    between atoms: C_18  and  C_19 
REMARK    4  A    between atoms: C_20  and  O_21 
ROOT
HETATM    1  C   UNL     1      41.388 -14.104   2.124  1.00  0.00     0.048 A 
HETATM    2  C   UNL     1      42.024 -13.128   2.925  1.00  0.00     0.009 A 
HETATM    3  C   UNL     1      42.933 -13.619   3.882  1.00  0.00     0.068 A 
HETATM    4  C   UNL     1      43.563 -12.722   4.733  1.00  0.00     0.032 A 
HETATM    5  C   UNL     1      43.347 -11.345   4.652  1.00  0.00     0.002 A 
HETATM    6  C   UNL     1      42.494 -10.842   3.682  1.00  0.00     0.001 A 
HETATM    7  C   UNL     1      41.845 -11.722   2.818  1.00  0.00     0.015 A 
HETATM    8  N   UNL     1      43.239 -14.920   4.006  1.00  0.00    -0.247 NA
HETATM    9  C   UNL     1      42.654 -15.833   3.194  1.00  0.00     0.071 A 
HETATM   10  C   UNL     1      41.714 -15.456   2.250  1.00  0.00     0.050 A 
ENDROOT
BRANCH   1  11
HETATM   11  C   UNL     1      40.376 -13.788   1.085  1.00  0.00     0.272 C 
HETATM   12  N   UNL     1      40.729 -14.121  -0.216  1.00  0.00    -0.243 N 
HETATM   13  H   UNL     1      41.658 -14.470  -0.415  1.00  0.00     0.192 HD
HETATM   14  O   UNL     1      39.337 -13.235   1.429  1.00  0.00    -0.266 OA
BRANCH  12  15
HETATM   15  N   UNL     1      39.886 -13.802  -1.231  1.00  0.00    -0.181 NA
HETATM   16  C   UNL     1      40.146 -12.799  -2.012  1.00  0.00     0.035 C 
HETATM   17  C   UNL     1      39.154 -12.509  -3.119  1.00  0.00     0.076 C 
HETATM   18  C   UNL     1      41.399 -11.953  -2.015  1.00  0.00     0.076 C 
HETATM   19  C   UNL     1      38.840 -11.023  -3.134  1.00  0.00     0.131 C 
HETATM   20  N   UNL     1      40.062 -10.216  -3.171  1.00  0.00    -0.352 N 
HETATM   21  C   UNL     1      40.067  -9.072  -3.961  1.00  0.00     0.215 C 
HETATM   22  C   UNL     1      41.023 -10.480  -2.097  1.00  0.00     0.131 C 
HETATM   23  C   UNL     1      41.300  -8.205  -3.918  1.00  0.00     0.117 C 
HETATM   24  O   UNL     1      39.127  -8.763  -4.694  1.00  0.00    -0.274 OA
ENDBRANCH  12  15
ENDBRANCH   1  11
BRANCH   9  25
HETATM   25  C   UNL     1      43.117 -17.229   3.322  1.00  0.00     0.026 A 
HETATM   26  C   UNL     1      43.751 -17.726   4.478  1.00  0.00     0.080 A 
HETATM   27  C   UNL     1      44.156 -19.064   4.569  1.00  0.00     0.037 A 
HETATM   28  C   UNL     1      43.970 -19.928   3.493  1.00  0.00     0.003 A 
HETATM   29  C   UNL     1      43.367 -19.458   2.330  1.00  0.00     0.001 A 
HETATM   30  C   UNL     1      42.946 -18.128   2.248  1.00  0.00     0.016 A 
BRANCH  26  31
HETATM   31  O   UNL     1      43.903 -16.923   5.583  1.00  0.00    -0.355 OA
HETATM   32  C   UNL     1      43.271 -17.516   6.718  1.00  0.00     0.210 C 
ENDBRANCH  26  31
ENDBRANCH   9  25
TORSDOF 4
ENDMDL
MODEL 5
REMARK VINA RESULT:      -9.1      3.661      7.116
REMARK  4 active torsions:
REMARK  status: ('A' for Active; 'I' for Inactive)
REMARK       I    between atoms: C_2  and  N_3 
REMARK    1  A    between atoms: N_7  and  N_8 
REMARK       I    between atoms: N_8  and  C_9 
REMARK    2  A    between atoms: C_9  and  C_10 
REMARK    3  A    between atoms: C_18  and  C_19 
REMARK    4  A    between atoms: C_20  and  O_21 
ROOT
HETATM    1  C   UNL     1      41.412 -13.075   5.355  1.00  0.00     0.048 A 
HETATM    2  C   UNL     1      42.334 -12.255   6.046  1.00  0.00     0.009 A 
HETATM    3  C   UNL     1      43.456 -12.915   6.584  1.00  0.00     0.068 A 
HETATM    4  C   UNL     1      44.382 -12.181   7.312  1.00  0.00     0.032 A 
HETATM    5  C   UNL     1      44.252 -10.804   7.505  1.00  0.00     0.002 A 
HETATM    6  C   UNL     1      43.179 -10.132   6.939  1.00  0.00     0.001 A 
HETATM    7  C   UNL     1      42.233 -10.846   6.207  1.00  0.00     0.015 A 
HETATM    8  N   UNL     1      43.691 -14.225   6.414  1.00  0.00    -0.247 NA
HETATM    9  C   UNL     1      42.819 -14.982   5.706  1.00  0.00     0.071 A 
HETATM   10  C   UNL     1      41.663 -14.437   5.173  1.00  0.00     0.050 A 
ENDROOT
BRANCH   1  11
HETATM   11  C   UNL     1      40.155 -12.572   4.748  1.00  0.00     0.272 C 
HETATM   12  N   UNL     1      40.277 -12.043   3.470  1.00  0.00    -0.243 N 
HETATM   13  H   UNL     1      41.191 -11.939   3.050  1.00  0.00     0.192 HD
HETATM   14  O   UNL     1      39.124 -12.624   5.410  1.00  0.00    -0.266 OA
BRANCH  12  15
HETATM   15  N   UNL     1      39.184 -11.501   2.874  1.00  0.00    -0.181 NA
HETATM   16  C   UNL     1      38.726 -11.997   1.766  1.00  0.00     0.035 C 
HETATM   17  C   UNL     1      37.505 -11.334   1.164  1.00  0.00     0.076 C 
HETATM   18  C   UNL     1      39.207 -13.247   1.064  1.00  0.00     0.076 C 
HETATM   19  C   UNL     1      37.739 -11.102  -0.319  1.00  0.00     0.131 C 
HETATM   20  N   UNL     1      38.172 -12.330  -0.992  1.00  0.00    -0.352 N 
HETATM   21  C   UNL     1      37.675 -12.587  -2.265  1.00  0.00     0.215 C 
HETATM   22  C   UNL     1      39.360 -12.972  -0.426  1.00  0.00     0.131 C 
HETATM   23  C   UNL     1      38.199 -13.807  -2.979  1.00  0.00     0.117 C 
HETATM   24  O   UNL     1      36.824 -11.880  -2.805  1.00  0.00    -0.274 OA
ENDBRANCH  12  15
ENDBRANCH   1  11
BRANCH   9  25
HETATM   25  C   UNL     1      43.196 -16.391   5.477  1.00  0.00     0.026 A 
HETATM   26  C   UNL     1      43.525 -16.902   4.207  1.00  0.00     0.080 A 
HETATM   27  C   UNL     1      43.900 -18.241   4.035  1.00  0.00     0.037 A 
HETATM   28  C   UNL     1      43.918 -19.110   5.123  1.00  0.00     0.003 A 
HETATM   29  C   UNL     1      43.575 -18.638   6.386  1.00  0.00     0.001 A 
HETATM   30  C   UNL     1      43.221 -17.296   6.559  1.00  0.00     0.016 A 
BRANCH  26  31
HETATM   31  O   UNL     1      43.575 -16.068   3.116  1.00  0.00    -0.355 OA
HETATM   32  C   UNL     1      43.185 -16.770   1.936  1.00  0.00     0.210 C 
ENDBRANCH  26  31
ENDBRANCH   9  25
TORSDOF 4
ENDMDL
MODEL 6
REMARK VINA RESULT:      -8.9      2.471      9.747
REMARK  4 active torsions:
REMARK  status: ('A' for Active; 'I' for Inactive)
REMARK       I    between atoms: C_2  and  N_3 
REMARK    1  A    between atoms: N_7  and  N_8 
REMARK       I    between atoms: N_8  and  C_9 
REMARK    2  A    between atoms: C_9  and  C_10 
REMARK    3  A    between atoms: C_18  and  C_19 
REMARK    4  A    between atoms: C_20  and  O_21 
ROOT
HETATM    1  C   UNL     1      42.056 -10.743   6.685  1.00  0.00     0.048 A 
HETATM    2  C   UNL     1      43.433 -10.669   6.993  1.00  0.00     0.009 A 
HETATM    3  C   UNL     1      43.787  -9.751   8.001  1.00  0.00     0.068 A 
HETATM    4  C   UNL     1      45.126  -9.593   8.328  1.00  0.00     0.032 A 
HETATM    5  C   UNL     1      46.133 -10.338   7.709  1.00  0.00     0.002 A 
HETATM    6  C   UNL     1      45.797 -11.282   6.751  1.00  0.00     0.001 A 
HETATM    7  C   UNL     1      44.459 -11.455   6.402  1.00  0.00     0.015 A 
HETATM    8  N   UNL     1      42.887  -9.025   8.683  1.00  0.00    -0.247 NA
HETATM    9  C   UNL     1      41.567  -9.148   8.404  1.00  0.00     0.071 A 
HETATM   10  C   UNL     1      41.121  -9.991   7.401  1.00  0.00     0.050 A 
ENDROOT
BRANCH   1  11
HETATM   11  C   UNL     1      41.492 -11.624   5.632  1.00  0.00     0.272 C 
HETATM   12  N   UNL     1      41.052 -12.867   6.065  1.00  0.00    -0.243 N 
HETATM   13  H   UNL     1      41.205 -13.154   7.023  1.00  0.00     0.192 HD
HETATM   14  O   UNL     1      41.484 -11.220   4.474  1.00  0.00    -0.266 OA
BRANCH  12  15
HETATM   15  N   UNL     1      40.585 -13.757   5.151  1.00  0.00    -0.181 NA
HETATM   16  C   UNL     1      41.179 -14.897   4.980  1.00  0.00     0.035 C 
HETATM   17  C   UNL     1      40.597 -15.832   3.941  1.00  0.00     0.076 C 
HETATM   18  C   UNL     1      42.327 -15.453   5.792  1.00  0.00     0.076 C 
HETATM   19  C   UNL     1      41.715 -16.362   3.060  1.00  0.00     0.131 C 
HETATM   20  N   UNL     1      42.805 -16.928   3.859  1.00  0.00    -0.352 N 
HETATM   21  C   UNL     1      43.422 -18.085   3.396  1.00  0.00     0.215 C 
HETATM   22  C   UNL     1      43.384 -16.028   4.858  1.00  0.00     0.131 C 
HETATM   23  C   UNL     1      44.600 -18.602   4.183  1.00  0.00     0.117 C 
HETATM   24  O   UNL     1      43.033 -18.697   2.402  1.00  0.00    -0.274 OA
ENDBRANCH  12  15
ENDBRANCH   1  11
BRANCH   9  25
HETATM   25  C   UNL     1      40.634  -8.392   9.263  1.00  0.00     0.026 A 
HETATM   26  C   UNL     1      40.352  -8.753  10.595  1.00  0.00     0.080 A 
HETATM   27  C   UNL     1      39.476  -7.996  11.385  1.00  0.00     0.037 A 
HETATM   28  C   UNL     1      38.833  -6.883  10.850  1.00  0.00     0.003 A 
HETATM   29  C   UNL     1      39.076  -6.517   9.530  1.00  0.00     0.001 A 
HETATM   30  C   UNL     1      39.965  -7.261   8.749  1.00  0.00     0.016 A 
BRANCH  26  31
HETATM   31  O   UNL     1      41.006  -9.810  11.179  1.00  0.00    -0.355 OA
HETATM   32  C   UNL     1      40.612  -9.945  12.545  1.00  0.00     0.210 C 
ENDBRANCH  26  31
ENDBRANCH   9  25
TORSDOF 4
ENDMDL
MODEL 7
REMARK VINA RESULT:      -8.9      1.958      2.829
REMARK  4 active torsions:
REMARK  status: ('A' for Active; 'I' for Inactive)
REMARK       I    between atoms: C_2  and  N_3 
REMARK    1  A    between atoms: N_7  and  N_8 
REMARK       I    between atoms: N_8  and  C_9 
REMARK    2  A    between atoms: C_9  and  C_10 
REMARK    3  A    between atoms: C_18  and  C_19 
REMARK    4  A    between atoms: C_20  and  O_21 
ROOT
HETATM    1  C   UNL     1      40.658 -13.470   3.903  1.00  0.00     0.048 A 
HETATM    2  C   UNL     1      40.223 -13.303   2.568  1.00  0.00     0.009 A 
HETATM    3  C   UNL     1      40.768 -14.200   1.629  1.00  0.00     0.068 A 
HETATM    4  C   UNL     1      40.420 -14.068   0.293  1.00  0.00     0.032 A 
HETATM    5  C   UNL     1      39.523 -13.092  -0.148  1.00  0.00     0.002 A 
HETATM    6  C   UNL     1      38.940 -12.234   0.770  1.00  0.00     0.001 A 
HETATM    7  C   UNL     1      39.276 -12.342   2.118  1.00  0.00     0.015 A 
HETATM    8  N   UNL     1      41.601 -15.198   1.963  1.00  0.00    -0.247 NA
HETATM    9  C   UNL     1      41.966 -15.370   3.257  1.00  0.00     0.071 A 
HETATM   10  C   UNL     1      41.519 -14.514   4.249  1.00  0.00     0.050 A 
ENDROOT
BRANCH   1  11
HETATM   11  C   UNL     1      40.224 -12.604   5.027  1.00  0.00     0.272 C 
HETATM   12  N   UNL     1      40.830 -11.357   5.090  1.00  0.00    -0.243 N 
HETATM   13  H   UNL     1      41.577 -11.124   4.450  1.00  0.00     0.192 HD
HETATM   14  O   UNL     1      39.407 -13.049   5.827  1.00  0.00    -0.266 OA
BRANCH  12  15
HETATM   15  N   UNL     1      40.536 -10.532   6.127  1.00  0.00    -0.181 NA
HETATM   16  C   UNL     1      41.482 -10.059   6.880  1.00  0.00     0.035 C 
HETATM   17  C   UNL     1      41.071  -9.147   8.017  1.00  0.00     0.076 C 
HETATM   18  C   UNL     1      42.971 -10.221   6.674  1.00  0.00     0.076 C 
HETATM   19  C   UNL     1      41.779  -9.582   9.288  1.00  0.00     0.131 C 
HETATM   20  N   UNL     1      43.225  -9.702   9.084  1.00  0.00    -0.352 N 
HETATM   21  C   UNL     1      44.067  -9.277  10.105  1.00  0.00     0.215 C 
HETATM   22  C   UNL     1      43.633 -10.591   7.994  1.00  0.00     0.131 C 
HETATM   23  C   UNL     1      45.548  -9.491   9.915  1.00  0.00     0.117 C 
HETATM   24  O   UNL     1      43.654  -8.725  11.125  1.00  0.00    -0.274 OA
ENDBRANCH  12  15
ENDBRANCH   1  11
BRANCH   9  25
HETATM   25  C   UNL     1      42.803 -16.548   3.559  1.00  0.00     0.026 A 
HETATM   26  C   UNL     1      43.591 -16.654   4.721  1.00  0.00     0.080 A 
HETATM   27  C   UNL     1      44.355 -17.799   4.982  1.00  0.00     0.037 A 
HETATM   28  C   UNL     1      44.378 -18.850   4.070  1.00  0.00     0.003 A 
HETATM   29  C   UNL     1      43.627 -18.763   2.902  1.00  0.00     0.001 A 
HETATM   30  C   UNL     1      42.850 -17.629   2.652  1.00  0.00     0.016 A 
BRANCH  26  31
HETATM   31  O   UNL     1      43.553 -15.665   5.675  1.00  0.00    -0.355 OA
HETATM   32  C   UNL     1      43.781 -16.217   6.972  1.00  0.00     0.210 C 
ENDBRANCH  26  31
ENDBRANCH   9  25
TORSDOF 4
ENDMDL
MODEL 8
REMARK VINA RESULT:      -8.9      5.100      9.782
REMARK  4 active torsions:
REMARK  status: ('A' for Active; 'I' for Inactive)
REMARK       I    between atoms: C_2  and  N_3 
REMARK    1  A    between atoms: N_7  and  N_8 
REMARK       I    between atoms: N_8  and  C_9 
REMARK    2  A    between atoms: C_9  and  C_10 
REMARK    3  A    between atoms: C_18  and  C_19 
REMARK    4  A    between atoms: C_20  and  O_21 
ROOT
HETATM    1  C   UNL     1      40.689 -12.537   0.380  1.00  0.00     0.048 A 
HETATM    2  C   UNL     1      40.084 -13.182  -0.722  1.00  0.00     0.009 A 
HETATM    3  C   UNL     1      39.844 -12.373  -1.850  1.00  0.00     0.068 A 
HETATM    4  C   UNL     1      39.215 -12.928  -2.955  1.00  0.00     0.032 A 
HETATM    5  C   UNL     1      38.837 -14.272  -2.997  1.00  0.00     0.002 A 
HETATM    6  C   UNL     1      39.113 -15.094  -1.915  1.00  0.00     0.001 A 
HETATM    7  C   UNL     1      39.739 -14.560  -0.791  1.00  0.00     0.015 A 
HETATM    8  N   UNL     1      40.211 -11.084  -1.921  1.00  0.00    -0.247 NA
HETATM    9  C   UNL     1      40.834 -10.498  -0.870  1.00  0.00     0.071 A 
HETATM   10  C   UNL     1      41.076 -11.197   0.301  1.00  0.00     0.050 A 
ENDROOT
BRANCH   1  11
HETATM   11  C   UNL     1      40.990 -13.211   1.667  1.00  0.00     0.272 C 
HETATM   12  N   UNL     1      42.338 -13.392   1.947  1.00  0.00    -0.243 N 
HETATM   13  H   UNL     1      43.036 -13.151   1.255  1.00  0.00     0.192 HD
HETATM   14  O   UNL     1      40.054 -13.586   2.365  1.00  0.00    -0.266 OA
BRANCH  12  15
HETATM   15  N   UNL     1      42.695 -14.061   3.073  1.00  0.00    -0.181 NA
HETATM   16  C   UNL     1      43.166 -15.268   3.000  1.00  0.00     0.035 C 
HETATM   17  C   UNL     1      43.539 -15.945   4.302  1.00  0.00     0.076 C 
HETATM   18  C   UNL     1      43.500 -16.037   1.742  1.00  0.00     0.076 C 
HETATM   19  C   UNL     1      42.960 -17.349   4.321  1.00  0.00     0.131 C 
HETATM   20  N   UNL     1      43.320 -18.094   3.111  1.00  0.00    -0.352 N 
HETATM   21  C   UNL     1      43.637 -19.442   3.243  1.00  0.00     0.215 C 
HETATM   22  C   UNL     1      42.952 -17.454   1.846  1.00  0.00     0.131 C 
HETATM   23  C   UNL     1      43.917 -20.214   1.978  1.00  0.00     0.117 C 
HETATM   24  O   UNL     1      43.716 -20.005   4.335  1.00  0.00    -0.274 OA
ENDBRANCH  12  15
ENDBRANCH   1  11
BRANCH   9  25
HETATM   25  C   UNL     1      41.296  -9.109  -1.061  1.00  0.00     0.026 A 
HETATM   26  C   UNL     1      40.445  -7.993  -0.945  1.00  0.00     0.080 A 
HETATM   27  C   UNL     1      40.927  -6.688  -1.113  1.00  0.00     0.037 A 
HETATM   28  C   UNL     1      42.264  -6.471  -1.436  1.00  0.00     0.003 A 
HETATM   29  C   UNL     1      43.122  -7.556  -1.580  1.00  0.00     0.001 A 
HETATM   30  C   UNL     1      42.644  -8.856  -1.393  1.00  0.00     0.016 A 
BRANCH  26  31
HETATM   31  O   UNL     1      39.133  -8.159  -0.573  1.00  0.00    -0.355 OA
HETATM   32  C   UNL     1      38.571  -6.911  -0.164  1.00  0.00     0.210 C 
ENDBRANCH  26  31
ENDBRANCH   9  25
TORSDOF 4
ENDMDL
MODEL 9
REMARK VINA RESULT:      -8.7     16.923     18.379
REMARK  4 active torsions:
REMARK  status: ('A' for Active; 'I' for Inactive)
REMARK       I    between atoms: C_2  and  N_3 
REMARK    1  A    between atoms: N_7  and  N_8 
REMARK       I    between atoms: N_8  and  C_9 
REMARK    2  A    between atoms: C_9  and  C_10 
REMARK    3  A    between atoms: C_18  and  C_19 
REMARK    4  A    between atoms: C_20  and  O_21 
ROOT
HETATM    1  C   UNL     1      44.627 -30.349  -0.028  1.00  0.00     0.048 A 
HETATM    2  C   UNL     1      44.788 -29.648  -1.244  1.00  0.00     0.009 A 
HETATM    3  C   UNL     1      45.963 -28.880  -1.358  1.00  0.00     0.068 A 
HETATM    4  C   UNL     1      46.168 -28.131  -2.508  1.00  0.00     0.032 A 
HETATM    5  C   UNL     1      45.260 -28.136  -3.569  1.00  0.00     0.002 A 
HETATM    6  C   UNL     1      44.123 -28.926  -3.494  1.00  0.00     0.001 A 
HETATM    7  C   UNL     1      43.892 -29.684  -2.348  1.00  0.00     0.015 A 
HETATM    8  N   UNL     1      46.914 -28.847  -0.412  1.00  0.00    -0.247 NA
HETATM    9  C   UNL     1      46.762 -29.567   0.726  1.00  0.00     0.071 A 
HETATM   10  C   UNL     1      45.622 -30.319   0.952  1.00  0.00     0.050 A 
ENDROOT
BRANCH   1  11
HETATM   11  C   UNL     1      43.443 -31.184   0.294  1.00  0.00     0.272 C 
HETATM   12  N   UNL     1      42.509 -30.597   1.137  1.00  0.00    -0.243 N 
HETATM   13  H   UNL     1      42.700 -29.697   1.558  1.00  0.00     0.192 HD
HETATM   14  O   UNL     1      43.385 -32.320  -0.165  1.00  0.00    -0.266 OA
BRANCH  12  15
HETATM   15  N   UNL     1      41.431 -31.321   1.533  1.00  0.00    -0.181 NA
HETATM   16  C   UNL     1      41.129 -31.418   2.791  1.00  0.00     0.035 C 
HETATM   17  C   UNL     1      39.912 -32.245   3.149  1.00  0.00     0.076 C 
HETATM   18  C   UNL     1      41.792 -30.694   3.941  1.00  0.00     0.076 C 
HETATM   19  C   UNL     1      40.262 -33.185   4.289  1.00  0.00     0.131 C 
HETATM   20  N   UNL     1      40.873 -32.466   5.411  1.00  0.00    -0.352 N 
HETATM   21  C   UNL     1      40.525 -32.850   6.701  1.00  0.00     0.215 C 
HETATM   22  C   UNL     1      42.058 -31.673   5.078  1.00  0.00     0.131 C 
HETATM   23  C   UNL     1      41.230 -32.159   7.842  1.00  0.00     0.117 C 
HETATM   24  O   UNL     1      39.665 -33.699   6.936  1.00  0.00    -0.274 OA
ENDBRANCH  12  15
ENDBRANCH   1  11
BRANCH   9  25
HETATM   25  C   UNL     1      47.895 -29.559   1.673  1.00  0.00     0.026 A 
HETATM   26  C   UNL     1      49.066 -30.316   1.477  1.00  0.00     0.080 A 
HETATM   27  C   UNL     1      50.128 -30.264   2.389  1.00  0.00     0.037 A 
HETATM   28  C   UNL     1      50.029 -29.482   3.537  1.00  0.00     0.003 A 
HETATM   29  C   UNL     1      48.875 -28.742   3.768  1.00  0.00     0.001 A 
HETATM   30  C   UNL     1      47.824 -28.779   2.847  1.00  0.00     0.016 A 
BRANCH  26  31
HETATM   31  O   UNL     1      49.228 -31.056   0.331  1.00  0.00    -0.355 OA
HETATM   32  C   UNL     1      50.218 -30.460  -0.509  1.00  0.00     0.210 C 
ENDBRANCH  26  31
ENDBRANCH   9  25
TORSDOF 4
ENDMDL
MODEL 10
REMARK VINA RESULT:      -8.6      3.466      6.547
REMARK  4 active torsions:
REMARK  status: ('A' for Active; 'I' for Inactive)
REMARK       I    between atoms: C_2  and  N_3 
REMARK    1  A    between atoms: N_7  and  N_8 
REMARK       I    between atoms: N_8  and  C_9 
REMARK    2  A    between atoms: C_9  and  C_10 
REMARK    3  A    between atoms: C_18  and  C_19 
REMARK    4  A    between atoms: C_20  and  O_21 
ROOT
HETATM    1  C   UNL     1      42.580 -10.280   7.151  1.00  0.00     0.048 A 
HETATM    2  C   UNL     1      43.916  -9.991   7.511  1.00  0.00     0.009 A 
HETATM    3  C   UNL     1      44.897 -10.840   6.963  1.00  0.00     0.068 A 
HETATM    4  C   UNL     1      46.226 -10.642   7.306  1.00  0.00     0.032 A 
HETATM    5  C   UNL     1      46.627  -9.609   8.157  1.00  0.00     0.002 A 
HETATM    6  C   UNL     1      45.680  -8.734   8.665  1.00  0.00     0.001 A 
HETATM    7  C   UNL     1      44.337  -8.914   8.339  1.00  0.00     0.015 A 
HETATM    8  N   UNL     1      44.613 -11.830   6.102  1.00  0.00    -0.247 NA
HETATM    9  C   UNL     1      43.330 -12.058   5.732  1.00  0.00     0.071 A 
HETATM   10  C   UNL     1      42.289 -11.307   6.249  1.00  0.00     0.050 A 
ENDROOT
BRANCH   1  11
HETATM   11  C   UNL     1      41.407  -9.522   7.652  1.00  0.00     0.272 C 
HETATM   12  N   UNL     1      41.080  -9.738   8.984  1.00  0.00    -0.243 N 
HETATM   13  H   UNL     1      41.573 -10.439   9.520  1.00  0.00     0.192 HD
HETATM   14  O   UNL     1      40.797  -8.802   6.869  1.00  0.00    -0.266 OA
BRANCH  12  15
HETATM   15  N   UNL     1      39.979  -9.133   9.499  1.00  0.00    -0.181 NA
HETATM   16  C   UNL     1      40.087  -8.305  10.493  1.00  0.00     0.035 C 
HETATM   17  C   UNL     1      38.811  -7.674  11.010  1.00  0.00     0.076 C 
HETATM   18  C   UNL     1      41.368  -7.804  11.120  1.00  0.00     0.076 C 
HETATM   19  C   UNL     1      38.781  -7.773  12.525  1.00  0.00     0.131 C 
HETATM   20  N   UNL     1      40.014  -7.253  13.122  1.00  0.00    -0.352 N 
HETATM   21  C   UNL     1      39.912  -6.516  14.296  1.00  0.00     0.215 C 
HETATM   22  C   UNL     1      41.253  -7.865  12.638  1.00  0.00     0.131 C 
HETATM   23  C   UNL     1      41.197  -6.065  14.944  1.00  0.00     0.117 C 
HETATM   24  O   UNL     1      38.832  -6.209  14.800  1.00  0.00    -0.274 OA
ENDBRANCH  12  15
ENDBRANCH   1  11
BRANCH   9  25
HETATM   25  C   UNL     1      43.110 -13.097   4.706  1.00  0.00     0.026 A 
HETATM   26  C   UNL     1      43.100 -12.825   3.325  1.00  0.00     0.080 A 
HETATM   27  C   UNL     1      42.909 -13.843   2.382  1.00  0.00     0.037 A 
HETATM   28  C   UNL     1      42.688 -15.153   2.800  1.00  0.00     0.003 A 
HETATM   29  C   UNL     1      42.670 -15.448   4.159  1.00  0.00     0.001 A 
HETATM   30  C   UNL     1      42.880 -14.434   5.098  1.00  0.00     0.016 A 
BRANCH  26  31
HETATM   31  O   UNL     1      43.370 -11.557   2.868  1.00  0.00    -0.355 OA
HETATM   32  C   UNL     1      42.185 -10.954   2.347  1.00  0.00     0.210 C 
ENDBRANCH  26  31
ENDBRANCH   9  25
TORSDOF 4
ENDMDL
