MODEL 1
REMARK VINA RESULT:      -8.0      0.000      0.000
REMARK  8 active torsions:
REMARK  status: ('A' for Active; 'I' for Inactive)
REMARK    1  A    between atoms: C_2  and  C_3 
REMARK    2  A    between atoms: C_3  and  O_4 
REMARK    3  A    between atoms: O_4  and  C_5 
REMARK    4  A    between atoms: C_6  and  C_7 
REMARK    5  A    between atoms: C_11  and  C_12 
REMARK       I    between atoms: C_12  and  N_13 
REMARK    6  A    between atoms: N_13  and  N_14 
REMARK    7  A    between atoms: C_15  and  C_16 
REMARK    8  A    between atoms: C_19  and  N_20 
ROOT
HETATM    1  C   UNL     1      42.781 -16.989   2.298  1.00  0.00     0.092 A 
HETATM    2  N   UNL     1      43.640 -16.188   1.643  1.00  0.00    -0.174 NA
HETATM    3  N   UNL     1      42.879 -15.199   1.156  1.00  0.00    -0.272 N 
HETATM    4  H   UNL     1      43.315 -14.463   0.608  1.00  0.00     0.189 HD
HETATM    5  C   UNL     1      41.555 -15.294   1.480  1.00  0.00     0.121 A 
HETATM    6  C   UNL     1      41.464 -16.450   2.229  1.00  0.00     0.071 A 
ENDROOT
BRANCH   5   7
HETATM    7  C   UNL     1      40.612 -14.296   1.043  1.00  0.00     0.289 C 
HETATM    8  N   UNL     1      40.680 -13.981  -0.307  1.00  0.00    -0.242 N 
HETATM    9  H   UNL     1      41.355 -14.436  -0.906  1.00  0.00     0.192 HD
HETATM   10  O   UNL     1      39.820 -13.787   1.833  1.00  0.00    -0.264 OA
BRANCH   8  11
HETATM   11  N   UNL     1      39.806 -13.079  -0.840  1.00  0.00    -0.184 NA
HETATM   12  C   UNL     1      38.820 -13.578  -1.515  1.00  0.00     0.150 C 
BRANCH  12  13
HETATM   13  C   UNL     1      37.790 -12.714  -2.125  1.00  0.00    -0.017 A 
HETATM   14  C   UNL     1      37.759 -11.344  -1.869  1.00  0.00     0.015 A 
HETATM   15  C   UNL     1      36.756 -10.548  -2.437  1.00  0.00     0.030 A 
HETATM   16  C   UNL     1      35.771 -11.087  -3.281  1.00  0.00     0.029 A 
HETATM   17  C   UNL     1      35.829 -12.474  -3.514  1.00  0.00     0.030 A 
HETATM   18  C   UNL     1      36.823 -13.284  -2.950  1.00  0.00     0.015 A 
BRANCH  16  19
HETATM   19  N   UNL     1      34.738 -10.321  -3.843  1.00  0.00    -0.390 N 
HETATM   20  C   UNL     1      33.410 -10.939  -3.784  1.00  0.00     0.149 C 
HETATM   21  C   UNL     1      35.010  -9.594  -5.084  1.00  0.00     0.149 C 
ENDBRANCH  16  19
ENDBRANCH  12  13
ENDBRANCH   8  11
ENDBRANCH   5   7
BRANCH   1  22
HETATM   22  C   UNL     1      43.251 -18.203   2.987  1.00  0.00     0.028 A 
HETATM   23  C   UNL     1      43.646 -18.219   4.342  1.00  0.00     0.081 A 
HETATM   24  C   UNL     1      44.089 -19.424   4.914  1.00  0.00     0.038 A 
HETATM   25  C   UNL     1      44.131 -20.602   4.165  1.00  0.00     0.003 A 
HETATM   26  C   UNL     1      43.734 -20.594   2.835  1.00  0.00     0.001 A 
HETATM   27  C   UNL     1      43.297 -19.406   2.253  1.00  0.00     0.017 A 
BRANCH  23  28
HETATM   28  O   UNL     1      43.571 -17.038   5.039  1.00  0.00    -0.350 OA
BRANCH  28  29
HETATM   29  C   UNL     1      43.684 -17.091   6.461  1.00  0.00     0.175 C 
BRANCH  29  30
HETATM   30  C   UNL     1      42.536 -16.275   7.048  1.00  0.00     0.022 C 
HETATM   31  C   UNL     1      41.376 -16.151   6.076  1.00  0.00     0.007 C 
ENDBRANCH  29  30
ENDBRANCH  28  29
ENDBRANCH  23  28
ENDBRANCH   1  22
TORSDOF 8
ENDMDL
MODEL 2
REMARK VINA RESULT:      -7.9      7.393     12.047
REMARK  8 active torsions:
REMARK  status: ('A' for Active; 'I' for Inactive)
REMARK    1  A    between atoms: C_2  and  C_3 
REMARK    2  A    between atoms: C_3  and  O_4 
REMARK    3  A    between atoms: O_4  and  C_5 
REMARK    4  A    between atoms: C_6  and  C_7 
REMARK    5  A    between atoms: C_11  and  C_12 
REMARK       I    between atoms: C_12  and  N_13 
REMARK    6  A    between atoms: N_13  and  N_14 
REMARK    7  A    between atoms: C_15  and  C_16 
REMARK    8  A    between atoms: C_19  and  N_20 
ROOT
HETATM    1  C   UNL     1      43.219  -8.728  10.731  1.00  0.00     0.092 A 
HETATM    2  N   UNL     1      43.503  -7.955   9.667  1.00  0.00    -0.174 NA
HETATM    3  N   UNL     1      43.983  -8.804   8.748  1.00  0.00    -0.272 N 
HETATM    4  H   UNL     1      44.277  -8.441   7.846  1.00  0.00     0.189 HD
HETATM    5  C   UNL     1      44.006 -10.110   9.145  1.00  0.00     0.121 A 
HETATM    6  C   UNL     1      43.508 -10.091  10.432  1.00  0.00     0.071 A 
ENDROOT
BRANCH   5   7
HETATM    7  C   UNL     1      44.480 -11.145   8.260  1.00  0.00     0.289 C 
HETATM    8  N   UNL     1      43.490 -11.974   7.751  1.00  0.00    -0.242 N 
HETATM    9  H   UNL     1      42.522 -11.835   8.008  1.00  0.00     0.192 HD
HETATM   10  O   UNL     1      45.675 -11.251   7.994  1.00  0.00    -0.264 OA
BRANCH   8  11
HETATM   11  N   UNL     1      43.818 -12.962   6.869  1.00  0.00    -0.184 NA
HETATM   12  C   UNL     1      43.116 -14.048   6.949  1.00  0.00     0.150 C 
BRANCH  12  13
HETATM   13  C   UNL     1      43.352 -15.185   6.038  1.00  0.00    -0.017 A 
HETATM   14  C   UNL     1      42.892 -15.159   4.723  1.00  0.00     0.015 A 
HETATM   15  C   UNL     1      43.103 -16.260   3.884  1.00  0.00     0.030 A 
HETATM   16  C   UNL     1      43.785 -17.406   4.325  1.00  0.00     0.029 A 
HETATM   17  C   UNL     1      44.231 -17.402   5.660  1.00  0.00     0.030 A 
HETATM   18  C   UNL     1      44.024 -16.309   6.512  1.00  0.00     0.015 A 
BRANCH  16  19
HETATM   19  N   UNL     1      43.988 -18.537   3.518  1.00  0.00    -0.390 N 
HETATM   20  C   UNL     1      43.158 -18.592   2.311  1.00  0.00     0.149 C 
HETATM   21  C   UNL     1      44.184 -19.830   4.174  1.00  0.00     0.149 C 
ENDBRANCH  16  19
ENDBRANCH  12  13
ENDBRANCH   8  11
ENDBRANCH   5   7
BRANCH   1  22
HETATM   22  C   UNL     1      42.655  -8.148  11.961  1.00  0.00     0.028 A 
HETATM   23  C   UNL     1      41.274  -7.922  12.147  1.00  0.00     0.081 A 
HETATM   24  C   UNL     1      40.826  -7.357  13.353  1.00  0.00     0.038 A 
HETATM   25  C   UNL     1      41.726  -7.027  14.369  1.00  0.00     0.003 A 
HETATM   26  C   UNL     1      43.084  -7.256  14.196  1.00  0.00     0.001 A 
HETATM   27  C   UNL     1      43.543  -7.813  13.003  1.00  0.00     0.017 A 
BRANCH  23  28
HETATM   28  O   UNL     1      40.429  -8.278  11.124  1.00  0.00    -0.350 OA
BRANCH  28  29
HETATM   29  C   UNL     1      39.761  -9.536  11.214  1.00  0.00     0.175 C 
BRANCH  29  30
HETATM   30  C   UNL     1      39.166  -9.844   9.843  1.00  0.00     0.022 C 
HETATM   31  C   UNL     1      39.953  -9.185   8.725  1.00  0.00     0.007 C 
ENDBRANCH  29  30
ENDBRANCH  28  29
ENDBRANCH  23  28
ENDBRANCH   1  22
TORSDOF 8
ENDMDL
MODEL 3
REMARK VINA RESULT:      -7.8      0.926      1.131
REMARK  8 active torsions:
REMARK  status: ('A' for Active; 'I' for Inactive)
REMARK    1  A    between atoms: C_2  and  C_3 
REMARK    2  A    between atoms: C_3  and  O_4 
REMARK    3  A    between atoms: O_4  and  C_5 
REMARK    4  A    between atoms: C_6  and  C_7 
REMARK    5  A    between atoms: C_11  and  C_12 
REMARK       I    between atoms: C_12  and  N_13 
REMARK    6  A    between atoms: N_13  and  N_14 
REMARK    7  A    between atoms: C_15  and  C_16 
REMARK    8  A    between atoms: C_19  and  N_20 
ROOT
HETATM    1  C   UNL     1      42.817 -16.947   2.266  1.00  0.00     0.092 A 
HETATM    2  N   UNL     1      43.679 -16.180   1.576  1.00  0.00    -0.174 NA
HETATM    3  N   UNL     1      42.938 -15.163   1.117  1.00  0.00    -0.272 N 
HETATM    4  H   UNL     1      43.380 -14.445   0.550  1.00  0.00     0.189 HD
HETATM    5  C   UNL     1      41.625 -15.208   1.493  1.00  0.00     0.121 A 
HETATM    6  C   UNL     1      41.520 -16.358   2.247  1.00  0.00     0.071 A 
ENDROOT
BRANCH   5   7
HETATM    7  C   UNL     1      40.704 -14.174   1.091  1.00  0.00     0.289 C 
HETATM    8  N   UNL     1      41.040 -13.520  -0.086  1.00  0.00    -0.242 N 
HETATM    9  H   UNL     1      41.877 -13.774  -0.593  1.00  0.00     0.192 HD
HETATM   10  O   UNL     1      39.705 -13.923   1.761  1.00  0.00    -0.264 OA
BRANCH   8  11
HETATM   11  N   UNL     1      40.218 -12.552  -0.585  1.00  0.00    -0.184 NA
HETATM   12  C   UNL     1      39.684 -12.801  -1.737  1.00  0.00     0.150 C 
BRANCH  12  13
HETATM   13  C   UNL     1      38.757 -11.848  -2.379  1.00  0.00    -0.017 A 
HETATM   14  C   UNL     1      39.232 -10.703  -3.016  1.00  0.00     0.015 A 
HETATM   15  C   UNL     1      38.333  -9.798  -3.594  1.00  0.00     0.030 A 
HETATM   16  C   UNL     1      36.945 -10.014  -3.566  1.00  0.00     0.029 A 
HETATM   17  C   UNL     1      36.499 -11.177  -2.910  1.00  0.00     0.030 A 
HETATM   18  C   UNL     1      37.386 -12.089  -2.324  1.00  0.00     0.015 A 
BRANCH  16  19
HETATM   19  N   UNL     1      36.017  -9.113  -4.112  1.00  0.00    -0.390 N 
HETATM   20  C   UNL     1      35.650  -7.998  -3.234  1.00  0.00     0.149 C 
HETATM   21  C   UNL     1      34.906  -9.654  -4.896  1.00  0.00     0.149 C 
ENDBRANCH  16  19
ENDBRANCH  12  13
ENDBRANCH   8  11
ENDBRANCH   5   7
BRANCH   1  22
HETATM   22  C   UNL     1      43.267 -18.178   2.939  1.00  0.00     0.028 A 
HETATM   23  C   UNL     1      43.700 -18.211   4.282  1.00  0.00     0.081 A 
HETATM   24  C   UNL     1      44.120 -19.431   4.838  1.00  0.00     0.038 A 
HETATM   25  C   UNL     1      44.102 -20.608   4.086  1.00  0.00     0.003 A 
HETATM   26  C   UNL     1      43.668 -20.583   2.767  1.00  0.00     0.001 A 
HETATM   27  C   UNL     1      43.253 -19.379   2.201  1.00  0.00     0.017 A 
BRANCH  23  28
HETATM   28  O   UNL     1      43.683 -17.030   4.983  1.00  0.00    -0.350 OA
BRANCH  28  29
HETATM   29  C   UNL     1      43.870 -17.088   6.397  1.00  0.00     0.175 C 
BRANCH  29  30
HETATM   30  C   UNL     1      42.625 -16.497   7.054  1.00  0.00     0.022 C 
HETATM   31  C   UNL     1      41.612 -16.029   6.025  1.00  0.00     0.007 C 
ENDBRANCH  29  30
ENDBRANCH  28  29
ENDBRANCH  23  28
ENDBRANCH   1  22
TORSDOF 8
ENDMDL
MODEL 4
REMARK VINA RESULT:      -7.5      3.415      4.011
REMARK  8 active torsions:
REMARK  status: ('A' for Active; 'I' for Inactive)
REMARK    1  A    between atoms: C_2  and  C_3 
REMARK    2  A    between atoms: C_3  and  O_4 
REMARK    3  A    between atoms: O_4  and  C_5 
REMARK    4  A    between atoms: C_6  and  C_7 
REMARK    5  A    between atoms: C_11  and  C_12 
REMARK       I    between atoms: C_12  and  N_13 
REMARK    6  A    between atoms: N_13  and  N_14 
REMARK    7  A    between atoms: C_15  and  C_16 
REMARK    8  A    between atoms: C_19  and  N_20 
ROOT
HETATM    1  C   UNL     1      41.665 -16.145   2.245  1.00  0.00     0.092 A 
HETATM    2  N   UNL     1      40.366 -16.092   2.590  1.00  0.00    -0.174 NA
HETATM    3  N   UNL     1      39.817 -15.235   1.720  1.00  0.00    -0.272 N 
HETATM    4  H   UNL     1      38.825 -15.027   1.790  1.00  0.00     0.189 HD
HETATM    5  C   UNL     1      40.689 -14.735   0.794  1.00  0.00     0.121 A 
HETATM    6  C   UNL     1      41.900 -15.316   1.110  1.00  0.00     0.071 A 
ENDROOT
BRANCH   5   7
HETATM    7  C   UNL     1      40.243 -13.813  -0.221  1.00  0.00     0.289 C 
HETATM    8  N   UNL     1      41.114 -12.763  -0.476  1.00  0.00    -0.242 N 
HETATM    9  H   UNL     1      41.983 -12.681   0.033  1.00  0.00     0.192 HD
HETATM   10  O   UNL     1      39.171 -13.980  -0.798  1.00  0.00    -0.264 OA
BRANCH   8  11
HETATM   11  N   UNL     1      40.814 -11.853  -1.448  1.00  0.00    -0.184 NA
HETATM   12  C   UNL     1      41.483 -10.745  -1.410  1.00  0.00     0.150 C 
BRANCH  12  13
HETATM   13  C   UNL     1      41.273  -9.685  -2.416  1.00  0.00    -0.017 A 
HETATM   14  C   UNL     1      40.524  -9.926  -3.567  1.00  0.00     0.015 A 
HETATM   15  C   UNL     1      40.361  -8.914  -4.521  1.00  0.00     0.030 A 
HETATM   16  C   UNL     1      40.924  -7.638  -4.352  1.00  0.00     0.029 A 
HETATM   17  C   UNL     1      41.680  -7.431  -3.182  1.00  0.00     0.030 A 
HETATM   18  C   UNL     1      41.855  -8.435  -2.220  1.00  0.00     0.015 A 
BRANCH  16  19
HETATM   19  N   UNL     1      40.802  -6.612  -5.302  1.00  0.00    -0.390 N 
HETATM   20  C   UNL     1      39.676  -6.760  -6.229  1.00  0.00     0.149 C 
HETATM   21  C   UNL     1      42.023  -6.088  -5.916  1.00  0.00     0.149 C 
ENDBRANCH  16  19
ENDBRANCH  12  13
ENDBRANCH   8  11
ENDBRANCH   5   7
BRANCH   1  22
HETATM   22  C   UNL     1      42.612 -17.002   2.979  1.00  0.00     0.028 A 
HETATM   23  C   UNL     1      43.240 -16.608   4.180  1.00  0.00     0.081 A 
HETATM   24  C   UNL     1      44.137 -17.490   4.807  1.00  0.00     0.038 A 
HETATM   25  C   UNL     1      44.404 -18.749   4.265  1.00  0.00     0.003 A 
HETATM   26  C   UNL     1      43.781 -19.145   3.089  1.00  0.00     0.001 A 
HETATM   27  C   UNL     1      42.894 -18.279   2.454  1.00  0.00     0.017 A 
BRANCH  23  28
HETATM   28  O   UNL     1      42.931 -15.367   4.680  1.00  0.00    -0.350 OA
BRANCH  28  29
HETATM   29  C   UNL     1      42.630 -15.261   6.071  1.00  0.00     0.175 C 
BRANCH  29  30
HETATM   30  C   UNL     1      41.183 -14.793   6.199  1.00  0.00     0.022 C 
HETATM   31  C   UNL     1      40.228 -15.957   6.388  1.00  0.00     0.007 C 
ENDBRANCH  29  30
ENDBRANCH  28  29
ENDBRANCH  23  28
ENDBRANCH   1  22
TORSDOF 8
ENDMDL
MODEL 5
REMARK VINA RESULT:      -7.4      7.668     12.143
REMARK  8 active torsions:
REMARK  status: ('A' for Active; 'I' for Inactive)
REMARK    1  A    between atoms: C_2  and  C_3 
REMARK    2  A    between atoms: C_3  and  O_4 
REMARK    3  A    between atoms: O_4  and  C_5 
REMARK    4  A    between atoms: C_6  and  C_7 
REMARK    5  A    between atoms: C_11  and  C_12 
REMARK       I    between atoms: C_12  and  N_13 
REMARK    6  A    between atoms: N_13  and  N_14 
REMARK    7  A    between atoms: C_15  and  C_16 
REMARK    8  A    between atoms: C_19  and  N_20 
ROOT
HETATM    1  C   UNL     1      43.516  -7.926   9.319  1.00  0.00     0.092 A 
HETATM    2  N   UNL     1      44.678  -7.484   8.806  1.00  0.00    -0.174 NA
HETATM    3  N   UNL     1      45.230  -8.563   8.235  1.00  0.00    -0.272 N 
HETATM    4  H   UNL     1      46.134  -8.473   7.779  1.00  0.00     0.189 HD
HETATM    5  C   UNL     1      44.474  -9.697   8.324  1.00  0.00     0.121 A 
HETATM    6  C   UNL     1      43.349  -9.310   9.022  1.00  0.00     0.071 A 
ENDROOT
BRANCH   5   7
HETATM    7  C   UNL     1      44.927 -10.936   7.743  1.00  0.00     0.289 C 
HETATM    8  N   UNL     1      43.962 -11.931   7.667  1.00  0.00    -0.242 N 
HETATM    9  H   UNL     1      43.025 -11.763   8.007  1.00  0.00     0.192 HD
HETATM   10  O   UNL     1      46.084 -11.064   7.350  1.00  0.00    -0.264 OA
BRANCH   8  11
HETATM   11  N   UNL     1      44.267 -13.132   7.095  1.00  0.00    -0.184 NA
HETATM   12  C   UNL     1      43.302 -13.718   6.461  1.00  0.00     0.150 C 
BRANCH  12  13
HETATM   13  C   UNL     1      43.503 -15.011   5.778  1.00  0.00    -0.017 A 
HETATM   14  C   UNL     1      42.770 -15.343   4.640  1.00  0.00     0.015 A 
HETATM   15  C   UNL     1      42.958 -16.587   4.024  1.00  0.00     0.030 A 
HETATM   16  C   UNL     1      43.885 -17.522   4.512  1.00  0.00     0.029 A 
HETATM   17  C   UNL     1      44.604 -17.157   5.666  1.00  0.00     0.030 A 
HETATM   18  C   UNL     1      44.424 -15.918   6.296  1.00  0.00     0.015 A 
BRANCH  16  19
HETATM   19  N   UNL     1      44.077 -18.787   3.934  1.00  0.00    -0.390 N 
HETATM   20  C   UNL     1      43.427 -18.976   2.633  1.00  0.00     0.149 C 
HETATM   21  C   UNL     1      44.032 -19.962   4.806  1.00  0.00     0.149 C 
ENDBRANCH  16  19
ENDBRANCH  12  13
ENDBRANCH   8  11
ENDBRANCH   5   7
BRANCH   1  22
HETATM   22  C   UNL     1      42.606  -7.015  10.033  1.00  0.00     0.028 A 
HETATM   23  C   UNL     1      42.481  -6.990  11.438  1.00  0.00     0.081 A 
HETATM   24  C   UNL     1      41.580  -6.090  12.033  1.00  0.00     0.038 A 
HETATM   25  C   UNL     1      40.817  -5.218  11.253  1.00  0.00     0.003 A 
HETATM   26  C   UNL     1      40.942  -5.231   9.870  1.00  0.00     0.001 A 
HETATM   27  C   UNL     1      41.829  -6.121   9.267  1.00  0.00     0.017 A 
BRANCH  23  28
HETATM   28  O   UNL     1      43.265  -7.856  12.160  1.00  0.00    -0.350 OA
BRANCH  28  29
HETATM   29  C   UNL     1      42.640  -8.630  13.184  1.00  0.00     0.175 C 
BRANCH  29  30
HETATM   30  C   UNL     1      41.978  -9.833  12.517  1.00  0.00     0.022 C 
HETATM   31  C   UNL     1      40.575 -10.070  13.047  1.00  0.00     0.007 C 
ENDBRANCH  29  30
ENDBRANCH  28  29
ENDBRANCH  23  28
ENDBRANCH   1  22
TORSDOF 8
ENDMDL
MODEL 6
REMARK VINA RESULT:      -7.3      2.807      3.269
REMARK  8 active torsions:
REMARK  status: ('A' for Active; 'I' for Inactive)
REMARK    1  A    between atoms: C_2  and  C_3 
REMARK    2  A    between atoms: C_3  and  O_4 
REMARK    3  A    between atoms: O_4  and  C_5 
REMARK    4  A    between atoms: C_6  and  C_7 
REMARK    5  A    between atoms: C_11  and  C_12 
REMARK       I    between atoms: C_12  and  N_13 
REMARK    6  A    between atoms: N_13  and  N_14 
REMARK    7  A    between atoms: C_15  and  C_16 
REMARK    8  A    between atoms: C_19  and  N_20 
ROOT
HETATM    1  C   UNL     1      42.641 -16.869   2.205  1.00  0.00     0.092 A 
HETATM    2  N   UNL     1      43.473 -15.957   1.671  1.00  0.00    -0.174 NA
HETATM    3  N   UNL     1      42.667 -15.042   1.118  1.00  0.00    -0.272 N 
HETATM    4  H   UNL     1      43.077 -14.246   0.639  1.00  0.00     0.189 HD
HETATM    5  C   UNL     1      41.334 -15.293   1.282  1.00  0.00     0.121 A 
HETATM    6  C   UNL     1      41.288 -16.475   1.992  1.00  0.00     0.071 A 
ENDROOT
BRANCH   5   7
HETATM    7  C   UNL     1      40.340 -14.389   0.757  1.00  0.00     0.289 C 
HETATM    8  N   UNL     1      39.912 -13.414   1.646  1.00  0.00    -0.242 N 
HETATM    9  H   UNL     1      40.287 -13.375   2.584  1.00  0.00     0.192 HD
HETATM   10  O   UNL     1      39.932 -14.501  -0.397  1.00  0.00    -0.264 OA
BRANCH   8  11
HETATM   11  N   UNL     1      39.004 -12.479   1.244  1.00  0.00    -0.184 NA
HETATM   12  C   UNL     1      38.789 -11.506   2.072  1.00  0.00     0.150 C 
BRANCH  12  13
HETATM   13  C   UNL     1      37.849 -10.415   1.750  1.00  0.00    -0.017 A 
HETATM   14  C   UNL     1      37.962  -9.167   2.359  1.00  0.00     0.015 A 
HETATM   15  C   UNL     1      37.042  -8.154   2.059  1.00  0.00     0.030 A 
HETATM   16  C   UNL     1      35.998  -8.351   1.139  1.00  0.00     0.029 A 
HETATM   17  C   UNL     1      35.910  -9.625   0.546  1.00  0.00     0.030 A 
HETATM   18  C   UNL     1      36.820 -10.648   0.840  1.00  0.00     0.015 A 
BRANCH  16  19
HETATM   19  N   UNL     1      35.044  -7.366   0.838  1.00  0.00    -0.390 N 
HETATM   20  C   UNL     1      35.484  -5.988   1.075  1.00  0.00     0.149 C 
HETATM   21  C   UNL     1      33.648  -7.623   1.192  1.00  0.00     0.149 C 
ENDBRANCH  16  19
ENDBRANCH  12  13
ENDBRANCH   8  11
ENDBRANCH   5   7
BRANCH   1  22
HETATM   22  C   UNL     1      43.162 -18.046   2.920  1.00  0.00     0.028 A 
HETATM   23  C   UNL     1      43.633 -17.997   4.250  1.00  0.00     0.081 A 
HETATM   24  C   UNL     1      44.120 -19.171   4.849  1.00  0.00     0.038 A 
HETATM   25  C   UNL     1      44.133 -20.382   4.153  1.00  0.00     0.003 A 
HETATM   26  C   UNL     1      43.662 -20.438   2.848  1.00  0.00     0.001 A 
HETATM   27  C   UNL     1      43.180 -19.280   2.239  1.00  0.00     0.017 A 
BRANCH  23  28
HETATM   28  O   UNL     1      43.583 -16.787   4.896  1.00  0.00    -0.350 OA
BRANCH  28  29
HETATM   29  C   UNL     1      42.697 -16.657   6.007  1.00  0.00     0.175 C 
BRANCH  29  30
HETATM   30  C   UNL     1      41.561 -15.727   5.588  1.00  0.00     0.022 C 
HETATM   31  C   UNL     1      40.327 -15.920   6.451  1.00  0.00     0.007 C 
ENDBRANCH  29  30
ENDBRANCH  28  29
ENDBRANCH  23  28
ENDBRANCH   1  22
TORSDOF 8
ENDMDL
MODEL 7
REMARK VINA RESULT:      -7.3      7.523     10.813
REMARK  8 active torsions:
REMARK  status: ('A' for Active; 'I' for Inactive)
REMARK    1  A    between atoms: C_2  and  C_3 
REMARK    2  A    between atoms: C_3  and  O_4 
REMARK    3  A    between atoms: O_4  and  C_5 
REMARK    4  A    between atoms: C_6  and  C_7 
REMARK    5  A    between atoms: C_11  and  C_12 
REMARK       I    between atoms: C_12  and  N_13 
REMARK    6  A    between atoms: N_13  and  N_14 
REMARK    7  A    between atoms: C_15  and  C_16 
REMARK    8  A    between atoms: C_19  and  N_20 
ROOT
HETATM    1  C   UNL     1      42.497 -13.926   4.859  1.00  0.00     0.092 A 
HETATM    2  N   UNL     1      41.259 -13.708   5.340  1.00  0.00    -0.174 NA
HETATM    3  N   UNL     1      41.388 -12.643   6.141  1.00  0.00    -0.272 N 
HETATM    4  H   UNL     1      40.571 -12.291   6.631  1.00  0.00     0.189 HD
HETATM    5  C   UNL     1      42.652 -12.128   6.196  1.00  0.00     0.121 A 
HETATM    6  C   UNL     1      43.394 -12.942   5.365  1.00  0.00     0.071 A 
ENDROOT
BRANCH   5   7
HETATM    7  C   UNL     1      42.946 -10.970   7.003  1.00  0.00     0.289 C 
HETATM    8  N   UNL     1      41.833 -10.258   7.427  1.00  0.00    -0.242 N 
HETATM    9  H   UNL     1      40.903 -10.557   7.167  1.00  0.00     0.192 HD
HETATM   10  O   UNL     1      44.105 -10.670   7.279  1.00  0.00    -0.264 OA
BRANCH   8  11
HETATM   11  N   UNL     1      41.989  -9.168   8.232  1.00  0.00    -0.184 NA
HETATM   12  C   UNL     1      41.632  -9.320   9.468  1.00  0.00     0.150 C 
BRANCH  12  13
HETATM   13  C   UNL     1      41.771  -8.227  10.450  1.00  0.00    -0.017 A 
HETATM   14  C   UNL     1      41.079  -7.028  10.291  1.00  0.00     0.015 A 
HETATM   15  C   UNL     1      41.246  -5.993  11.220  1.00  0.00     0.030 A 
HETATM   16  C   UNL     1      42.091  -6.128  12.334  1.00  0.00     0.029 A 
HETATM   17  C   UNL     1      42.780  -7.350  12.461  1.00  0.00     0.030 A 
HETATM   18  C   UNL     1      42.626  -8.392  11.537  1.00  0.00     0.015 A 
BRANCH  16  19
HETATM   19  N   UNL     1      42.302  -5.101  13.267  1.00  0.00    -0.390 N 
HETATM   20  C   UNL     1      41.417  -5.138  14.436  1.00  0.00     0.149 C 
HETATM   21  C   UNL     1      42.581  -3.755  12.765  1.00  0.00     0.149 C 
ENDBRANCH  16  19
ENDBRANCH  12  13
ENDBRANCH   8  11
ENDBRANCH   5   7
BRANCH   1  22
HETATM   22  C   UNL     1      42.763 -15.028   3.920  1.00  0.00     0.028 A 
HETATM   23  C   UNL     1      42.678 -16.390   4.282  1.00  0.00     0.081 A 
HETATM   24  C   UNL     1      42.958 -17.375   3.319  1.00  0.00     0.038 A 
HETATM   25  C   UNL     1      43.307 -17.025   2.013  1.00  0.00     0.003 A 
HETATM   26  C   UNL     1      43.383 -15.687   1.649  1.00  0.00     0.001 A 
HETATM   27  C   UNL     1      43.112 -14.699   2.594  1.00  0.00     0.017 A 
BRANCH  23  28
HETATM   28  O   UNL     1      42.315 -16.682   5.573  1.00  0.00    -0.350 OA
BRANCH  28  29
HETATM   29  C   UNL     1      43.163 -17.547   6.328  1.00  0.00     0.175 C 
BRANCH  29  30
HETATM   30  C   UNL     1      43.959 -16.682   7.302  1.00  0.00     0.022 C 
HETATM   31  C   UNL     1      43.077 -15.666   8.005  1.00  0.00     0.007 C 
ENDBRANCH  29  30
ENDBRANCH  28  29
ENDBRANCH  23  28
ENDBRANCH   1  22
TORSDOF 8
ENDMDL
MODEL 8
REMARK VINA RESULT:      -7.2      2.844      3.461
REMARK  8 active torsions:
REMARK  status: ('A' for Active; 'I' for Inactive)
REMARK    1  A    between atoms: C_2  and  C_3 
REMARK    2  A    between atoms: C_3  and  O_4 
REMARK    3  A    between atoms: O_4  and  C_5 
REMARK    4  A    between atoms: C_6  and  C_7 
REMARK    5  A    between atoms: C_11  and  C_12 
REMARK       I    between atoms: C_12  and  N_13 
REMARK    6  A    between atoms: N_13  and  N_14 
REMARK    7  A    between atoms: C_15  and  C_16 
REMARK    8  A    between atoms: C_19  and  N_20 
ROOT
HETATM    1  C   UNL     1      41.547 -15.997   2.349  1.00  0.00     0.092 A 
HETATM    2  N   UNL     1      40.228 -15.954   2.611  1.00  0.00    -0.174 NA
HETATM    3  N   UNL     1      39.698 -15.282   1.581  1.00  0.00    -0.272 N 
HETATM    4  H   UNL     1      38.696 -15.115   1.563  1.00  0.00     0.189 HD
HETATM    5  C   UNL     1      40.603 -14.896   0.633  1.00  0.00     0.121 A 
HETATM    6  C   UNL     1      41.815 -15.355   1.105  1.00  0.00     0.071 A 
ENDROOT
BRANCH   5   7
HETATM    7  C   UNL     1      40.182 -14.178  -0.544  1.00  0.00     0.289 C 
HETATM    8  N   UNL     1      40.999 -13.116  -0.902  1.00  0.00    -0.242 N 
HETATM    9  H   UNL     1      41.817 -12.890  -0.352  1.00  0.00     0.192 HD
HETATM   10  O   UNL     1      39.174 -14.514  -1.161  1.00  0.00    -0.264 OA
BRANCH   8  11
HETATM   11  N   UNL     1      40.721 -12.391  -2.024  1.00  0.00    -0.184 NA
HETATM   12  C   UNL     1      40.249 -11.202  -1.827  1.00  0.00     0.150 C 
BRANCH  12  13
HETATM   13  C   UNL     1      39.927 -10.305  -2.954  1.00  0.00    -0.017 A 
HETATM   14  C   UNL     1      40.924  -9.567  -3.591  1.00  0.00     0.015 A 
HETATM   15  C   UNL     1      40.592  -8.701  -4.640  1.00  0.00     0.030 A 
HETATM   16  C   UNL     1      39.270  -8.557  -5.092  1.00  0.00     0.029 A 
HETATM   17  C   UNL     1      38.288  -9.312  -4.423  1.00  0.00     0.030 A 
HETATM   18  C   UNL     1      38.604 -10.179  -3.369  1.00  0.00     0.015 A 
BRANCH  16  19
HETATM   19  N   UNL     1      38.901  -7.678  -6.122  1.00  0.00    -0.390 N 
HETATM   20  C   UNL     1      38.650  -6.298  -5.696  1.00  0.00     0.149 C 
HETATM   21  C   UNL     1      37.986  -8.165  -7.155  1.00  0.00     0.149 C 
ENDBRANCH  16  19
ENDBRANCH  12  13
ENDBRANCH   8  11
ENDBRANCH   5   7
BRANCH   1  22
HETATM   22  C   UNL     1      42.482 -16.672   3.265  1.00  0.00     0.028 A 
HETATM   23  C   UNL     1      42.770 -16.198   4.563  1.00  0.00     0.081 A 
HETATM   24  C   UNL     1      43.683 -16.903   5.365  1.00  0.00     0.038 A 
HETATM   25  C   UNL     1      44.297 -18.069   4.899  1.00  0.00     0.003 A 
HETATM   26  C   UNL     1      44.009 -18.545   3.627  1.00  0.00     0.001 A 
HETATM   27  C   UNL     1      43.109 -17.853   2.819  1.00  0.00     0.017 A 
BRANCH  23  28
HETATM   28  O   UNL     1      42.129 -15.057   4.979  1.00  0.00    -0.350 OA
BRANCH  28  29
HETATM   29  C   UNL     1      42.912 -13.879   5.169  1.00  0.00     0.175 C 
BRANCH  29  30
HETATM   30  C   UNL     1      42.389 -12.815   4.208  1.00  0.00     0.022 C 
HETATM   31  C   UNL     1      43.376 -12.529   3.091  1.00  0.00     0.007 C 
ENDBRANCH  29  30
ENDBRANCH  28  29
ENDBRANCH  23  28
ENDBRANCH   1  22
TORSDOF 8
ENDMDL
MODEL 9
REMARK VINA RESULT:      -7.2      1.530      2.122
REMARK  8 active torsions:
REMARK  status: ('A' for Active; 'I' for Inactive)
REMARK    1  A    between atoms: C_2  and  C_3 
REMARK    2  A    between atoms: C_3  and  O_4 
REMARK    3  A    between atoms: O_4  and  C_5 
REMARK    4  A    between atoms: C_6  and  C_7 
REMARK    5  A    between atoms: C_11  and  C_12 
REMARK       I    between atoms: C_12  and  N_13 
REMARK    6  A    between atoms: N_13  and  N_14 
REMARK    7  A    between atoms: C_15  and  C_16 
REMARK    8  A    between atoms: C_19  and  N_20 
ROOT
HETATM    1  C   UNL     1      41.343 -15.867   2.478  1.00  0.00     0.092 A 
HETATM    2  N   UNL     1      40.065 -15.941   2.892  1.00  0.00    -0.174 NA
HETATM    3  N   UNL     1      39.441 -14.947   2.246  1.00  0.00    -0.272 N 
HETATM    4  H   UNL     1      38.449 -14.799   2.407  1.00  0.00     0.189 HD
HETATM    5  C   UNL     1      40.243 -14.231   1.402  1.00  0.00     0.121 A 
HETATM    6  C   UNL     1      41.487 -14.813   1.530  1.00  0.00     0.071 A 
ENDROOT
BRANCH   5   7
HETATM    7  C   UNL     1      39.711 -13.140   0.624  1.00  0.00     0.289 C 
HETATM    8  N   UNL     1      39.166 -13.508  -0.598  1.00  0.00    -0.242 N 
HETATM    9  H   UNL     1      39.164 -14.476  -0.888  1.00  0.00     0.192 HD
HETATM   10  O   UNL     1      39.751 -11.986   1.045  1.00  0.00    -0.264 OA
BRANCH   8  11
HETATM   11  N   UNL     1      38.596 -12.563  -1.400  1.00  0.00    -0.184 NA
HETATM   12  C   UNL     1      37.432 -12.858  -1.883  1.00  0.00     0.150 C 
BRANCH  12  13
HETATM   13  C   UNL     1      36.695 -11.915  -2.747  1.00  0.00    -0.017 A 
HETATM   14  C   UNL     1      35.548 -12.314  -3.431  1.00  0.00     0.015 A 
HETATM   15  C   UNL     1      34.880 -11.410  -4.267  1.00  0.00     0.030 A 
HETATM   16  C   UNL     1      35.325 -10.088  -4.432  1.00  0.00     0.029 A 
HETATM   17  C   UNL     1      36.489  -9.720  -3.732  1.00  0.00     0.030 A 
HETATM   18  C   UNL     1      37.170 -10.614  -2.896  1.00  0.00     0.015 A 
BRANCH  16  19
HETATM   19  N   UNL     1      34.694  -9.166  -5.283  1.00  0.00    -0.390 N 
HETATM   20  C   UNL     1      33.688  -9.743  -6.181  1.00  0.00     0.149 C 
HETATM   21  C   UNL     1      35.508  -8.112  -5.888  1.00  0.00     0.149 C 
ENDBRANCH  16  19
ENDBRANCH  12  13
ENDBRANCH   8  11
ENDBRANCH   5   7
BRANCH   1  22
HETATM   22  C   UNL     1      42.356 -16.816   2.970  1.00  0.00     0.028 A 
HETATM   23  C   UNL     1      43.111 -16.602   4.143  1.00  0.00     0.081 A 
HETATM   24  C   UNL     1      44.063 -17.560   4.533  1.00  0.00     0.038 A 
HETATM   25  C   UNL     1      44.261 -18.721   3.782  1.00  0.00     0.003 A 
HETATM   26  C   UNL     1      43.514 -18.942   2.633  1.00  0.00     0.001 A 
HETATM   27  C   UNL     1      42.570 -17.998   2.233  1.00  0.00     0.017 A 
BRANCH  23  28
HETATM   28  O   UNL     1      42.867 -15.452   4.854  1.00  0.00    -0.350 OA
BRANCH  28  29
HETATM   29  C   UNL     1      42.651 -15.567   6.260  1.00  0.00     0.175 C 
BRANCH  29  30
HETATM   30  C   UNL     1      41.171 -15.870   6.478  1.00  0.00     0.022 C 
HETATM   31  C   UNL     1      40.303 -14.649   6.237  1.00  0.00     0.007 C 
ENDBRANCH  29  30
ENDBRANCH  28  29
ENDBRANCH  23  28
ENDBRANCH   1  22
TORSDOF 8
ENDMDL
MODEL 10
REMARK VINA RESULT:      -7.2      3.211      4.378
REMARK  8 active torsions:
REMARK  status: ('A' for Active; 'I' for Inactive)
REMARK    1  A    between atoms: C_2  and  C_3 
REMARK    2  A    between atoms: C_3  and  O_4 
REMARK    3  A    between atoms: O_4  and  C_5 
REMARK    4  A    between atoms: C_6  and  C_7 
REMARK    5  A    between atoms: C_11  and  C_12 
REMARK       I    between atoms: C_12  and  N_13 
REMARK    6  A    between atoms: N_13  and  N_14 
REMARK    7  A    between atoms: C_15  and  C_16 
REMARK    8  A    between atoms: C_19  and  N_20 
ROOT
HETATM    1  C   UNL     1      41.636 -15.654   2.802  1.00  0.00     0.092 A 
HETATM    2  N   UNL     1      40.353 -16.056   2.738  1.00  0.00    -0.174 NA
HETATM    3  N   UNL     1      39.851 -15.423   1.670  1.00  0.00    -0.272 N 
HETATM    4  H   UNL     1      38.876 -15.568   1.423  1.00  0.00     0.189 HD
HETATM    5  C   UNL     1      40.749 -14.637   1.005  1.00  0.00     0.121 A 
HETATM    6  C   UNL     1      41.922 -14.774   1.718  1.00  0.00     0.071 A 
ENDROOT
BRANCH   5   7
HETATM    7  C   UNL     1      40.362 -13.906  -0.175  1.00  0.00     0.289 C 
HETATM    8  N   UNL     1      41.094 -12.751  -0.410  1.00  0.00    -0.242 N 
HETATM    9  H   UNL     1      41.832 -12.473   0.222  1.00  0.00     0.192 HD
HETATM   10  O   UNL     1      39.452 -14.308  -0.897  1.00  0.00    -0.264 OA
BRANCH   8  11
HETATM   11  N   UNL     1      40.843 -12.001  -1.522  1.00  0.00    -0.184 NA
HETATM   12  C   UNL     1      41.063 -10.730  -1.410  1.00  0.00     0.150 C 
BRANCH  12  13
HETATM   13  C   UNL     1      40.853  -9.809  -2.544  1.00  0.00    -0.017 A 
HETATM   14  C   UNL     1      41.669  -8.694  -2.723  1.00  0.00     0.015 A 
HETATM   15  C   UNL     1      41.435  -7.818  -3.791  1.00  0.00     0.030 A 
HETATM   16  C   UNL     1      40.398  -8.035  -4.713  1.00  0.00     0.029 A 
HETATM   17  C   UNL     1      39.590  -9.168  -4.500  1.00  0.00     0.030 A 
HETATM   18  C   UNL     1      39.809 -10.050  -3.434  1.00  0.00     0.015 A 
BRANCH  16  19
HETATM   19  N   UNL     1      40.121  -7.162  -5.777  1.00  0.00    -0.390 N 
HETATM   20  C   UNL     1      40.322  -7.734  -7.112  1.00  0.00     0.149 C 
HETATM   21  C   UNL     1      40.534  -5.764  -5.652  1.00  0.00     0.149 C 
ENDBRANCH  16  19
ENDBRANCH  12  13
ENDBRANCH   8  11
ENDBRANCH   5   7
BRANCH   1  22
HETATM   22  C   UNL     1      42.535 -16.148   3.858  1.00  0.00     0.028 A 
HETATM   23  C   UNL     1      43.433 -17.220   3.670  1.00  0.00     0.081 A 
HETATM   24  C   UNL     1      44.248 -17.629   4.739  1.00  0.00     0.038 A 
HETATM   25  C   UNL     1      44.189 -16.983   5.975  1.00  0.00     0.003 A 
HETATM   26  C   UNL     1      43.315 -15.921   6.163  1.00  0.00     0.001 A 
HETATM   27  C   UNL     1      42.497 -15.508   5.113  1.00  0.00     0.017 A 
BRANCH  23  28
HETATM   28  O   UNL     1      43.464 -17.812   2.431  1.00  0.00    -0.350 OA
BRANCH  28  29
HETATM   29  C   UNL     1      42.677 -18.985   2.228  1.00  0.00     0.175 C 
BRANCH  29  30
HETATM   30  C   UNL     1      43.635 -20.160   2.048  1.00  0.00     0.022 C 
HETATM   31  C   UNL     1      43.843 -20.923   3.343  1.00  0.00     0.007 C 
ENDBRANCH  29  30
ENDBRANCH  28  29
ENDBRANCH  23  28
ENDBRANCH   1  22
TORSDOF 8
ENDMDL
