MODEL 1
REMARK VINA RESULT:      -8.4      0.000      0.000
REMARK  5 active torsions:
REMARK  status: ('A' for Active; 'I' for Inactive)
REMARK    1  A    between atoms: C_5  and  N_6 
REMARK       I    between atoms: N_6  and  C_7 
REMARK    2  A    between atoms: C_7  and  C_8 
REMARK    3  A    between atoms: C_9  and  C_10 
REMARK    4  A    between atoms: C_13  and  O_14 
REMARK    5  A    between atoms: N_20  and  C_21 
ROOT
HETATM    1  C   UNL     1      40.512 -14.067   2.686  1.00  0.00     0.060 C 
HETATM    2  C   UNL     1      40.496 -13.095   3.823  1.00  0.00     0.158 C 
HETATM    3  N   UNL     1      39.664 -11.964   3.482  1.00  0.00    -0.354 N 
HETATM    4  C   UNL     1      39.426 -11.511   2.214  1.00  0.00     0.179 C 
HETATM    5  S   UNL     1      38.720  -9.988   2.117  1.00  0.00    -0.040 SA
HETATM    6  N   UNL     1      39.740 -12.398   1.158  1.00  0.00    -0.292 N 
HETATM    7  C   UNL     1      40.228 -13.701   1.416  1.00  0.00     0.030 C 
HETATM    8  C   UNL     1      40.524 -14.602   0.234  1.00  0.00     0.070 C 
HETATM    9  H   UNL     1      39.492 -11.285   4.213  1.00  0.00     0.163 HD
ENDROOT
BRANCH   1  10
HETATM   10  C   UNL     1      40.924 -15.452   3.077  1.00  0.00     0.257 C 
HETATM   11  N   UNL     1      42.173 -15.797   2.609  1.00  0.00    -0.306 N 
HETATM   12  H   UNL     1      42.688 -15.145   2.037  1.00  0.00     0.170 HD
HETATM   13  O   UNL     1      40.145 -16.167   3.691  1.00  0.00    -0.267 OA
BRANCH  11  14
HETATM   14  C   UNL     1      42.827 -16.967   2.947  1.00  0.00     0.160 A 
HETATM   15  N   UNL     1      43.667 -17.128   3.973  1.00  0.00    -0.110 NA
HETATM   16  O   UNL     1      44.124 -18.427   3.905  1.00  0.00    -0.216 OA
HETATM   17  C   UNL     1      43.566 -19.046   2.835  1.00  0.00     0.078 A 
HETATM   18  C   UNL     1      43.981 -20.439   2.597  1.00  0.00     0.079 C 
HETATM   19  C   UNL     1      42.718 -18.169   2.204  1.00  0.00     0.087 A 
ENDBRANCH  11  14
ENDBRANCH   1  10
BRANCH   2  20
HETATM   20  C   UNL     1      41.873 -12.612   4.260  1.00  0.00    -0.031 A 
HETATM   21  C   UNL     1      42.266 -12.611   5.611  1.00  0.00     0.012 A 
HETATM   22  C   UNL     1      43.515 -12.116   5.994  1.00  0.00     0.037 A 
HETATM   23  C   UNL     1      44.385 -11.629   5.024  1.00  0.00     0.065 A 
HETATM   24  C   UNL     1      44.031 -11.640   3.682  1.00  0.00     0.037 A 
HETATM   25  C   UNL     1      42.779 -12.129   3.301  1.00  0.00     0.012 A 
BRANCH  23  26
HETATM   26  O   UNL     1      45.604 -11.118   5.356  1.00  0.00    -0.361 OA
HETATM   27  H   UNL     1      45.470 -10.255   5.779  1.00  0.00     0.217 HD
ENDBRANCH  23  26
ENDBRANCH   2  20
BRANCH   6  28
HETATM   28  C   UNL     1      39.446 -11.987  -0.185  1.00  0.00     0.042 A 
HETATM   29  C   UNL     1      40.432 -11.360  -0.958  1.00  0.00     0.030 A 
HETATM   30  C   UNL     1      40.155 -10.991  -2.275  1.00  0.00     0.002 A 
HETATM   31  C   UNL     1      38.897 -11.244  -2.823  1.00  0.00     0.000 A 
HETATM   32  C   UNL     1      37.911 -11.864  -2.055  1.00  0.00     0.002 A 
HETATM   33  C   UNL     1      38.184 -12.236  -0.739  1.00  0.00     0.030 A 
ENDBRANCH   6  28
TORSDOF 5
ENDMDL
MODEL 2
REMARK VINA RESULT:      -8.0      3.466      6.697
REMARK  5 active torsions:
REMARK  status: ('A' for Active; 'I' for Inactive)
REMARK    1  A    between atoms: C_5  and  N_6 
REMARK       I    between atoms: N_6  and  C_7 
REMARK    2  A    between atoms: C_7  and  C_8 
REMARK    3  A    between atoms: C_9  and  C_10 
REMARK    4  A    between atoms: C_13  and  O_14 
REMARK    5  A    between atoms: N_20  and  C_21 
ROOT
HETATM    1  C   UNL     1      41.014 -12.886   2.500  1.00  0.00     0.060 C 
HETATM    2  C   UNL     1      41.400 -11.515   2.960  1.00  0.00     0.158 C 
HETATM    3  N   UNL     1      42.524 -11.607   3.864  1.00  0.00    -0.354 N 
HETATM    4  C   UNL     1      42.816 -12.683   4.656  1.00  0.00     0.179 C 
HETATM    5  S   UNL     1      43.957 -12.400   5.858  1.00  0.00    -0.040 SA
HETATM    6  N   UNL     1      42.178 -13.900   4.325  1.00  0.00    -0.292 N 
HETATM    7  C   UNL     1      41.323 -13.998   3.202  1.00  0.00     0.030 C 
HETATM    8  C   UNL     1      40.689 -15.342   2.899  1.00  0.00     0.070 C 
HETATM    9  H   UNL     1      42.943 -10.735   4.164  1.00  0.00     0.163 HD
ENDROOT
BRANCH   1  10
HETATM   10  C   UNL     1      40.212 -12.898   1.236  1.00  0.00     0.257 C 
HETATM   11  N   UNL     1      40.962 -13.217   0.125  1.00  0.00    -0.306 N 
HETATM   12  H   UNL     1      41.952 -13.380   0.222  1.00  0.00     0.170 HD
HETATM   13  O   UNL     1      39.033 -12.580   1.261  1.00  0.00    -0.267 OA
BRANCH  11  14
HETATM   14  C   UNL     1      40.427 -13.422  -1.134  1.00  0.00     0.160 A 
HETATM   15  N   UNL     1      40.744 -12.746  -2.241  1.00  0.00    -0.110 NA
HETATM   16  O   UNL     1      39.940 -13.241  -3.246  1.00  0.00    -0.216 OA
HETATM   17  C   UNL     1      39.134 -14.210  -2.743  1.00  0.00     0.078 A 
HETATM   18  C   UNL     1      38.181 -14.820  -3.686  1.00  0.00     0.079 C 
HETATM   19  C   UNL     1      39.419 -14.379  -1.411  1.00  0.00     0.087 A 
ENDBRANCH  11  14
ENDBRANCH   1  10
BRANCH   2  20
HETATM   20  C   UNL     1      40.272 -10.726   3.612  1.00  0.00    -0.031 A 
HETATM   21  C   UNL     1      39.683 -11.135   4.823  1.00  0.00     0.012 A 
HETATM   22  C   UNL     1      38.616 -10.424   5.377  1.00  0.00     0.037 A 
HETATM   23  C   UNL     1      38.137  -9.291   4.727  1.00  0.00     0.065 A 
HETATM   24  C   UNL     1      38.715  -8.854   3.543  1.00  0.00     0.037 A 
HETATM   25  C   UNL     1      39.778  -9.569   2.987  1.00  0.00     0.012 A 
BRANCH  23  26
HETATM   26  O   UNL     1      37.085  -8.581   5.222  1.00  0.00    -0.361 OA
HETATM   27  H   UNL     1      36.381  -9.204   5.463  1.00  0.00     0.217 HD
ENDBRANCH  23  26
ENDBRANCH   2  20
BRANCH   6  28
HETATM   28  C   UNL     1      42.506 -15.069   5.090  1.00  0.00     0.042 A 
HETATM   29  C   UNL     1      43.477 -15.964   4.622  1.00  0.00     0.030 A 
HETATM   30  C   UNL     1      43.818 -17.084   5.382  1.00  0.00     0.002 A 
HETATM   31  C   UNL     1      43.192 -17.314   6.608  1.00  0.00     0.000 A 
HETATM   32  C   UNL     1      42.221 -16.429   7.075  1.00  0.00     0.002 A 
HETATM   33  C   UNL     1      41.878 -15.307   6.319  1.00  0.00     0.030 A 
ENDBRANCH   6  28
TORSDOF 5
ENDMDL
MODEL 3
REMARK VINA RESULT:      -7.6     16.112     17.677
REMARK  5 active torsions:
REMARK  status: ('A' for Active; 'I' for Inactive)
REMARK    1  A    between atoms: C_5  and  N_6 
REMARK       I    between atoms: N_6  and  C_7 
REMARK    2  A    between atoms: C_7  and  C_8 
REMARK    3  A    between atoms: C_9  and  C_10 
REMARK    4  A    between atoms: C_13  and  O_14 
REMARK    5  A    between atoms: N_20  and  C_21 
ROOT
HETATM    1  C   UNL     1      44.060 -30.385  -0.496  1.00  0.00     0.060 C 
HETATM    2  C   UNL     1      44.595 -29.033  -0.146  1.00  0.00     0.158 C 
HETATM    3  N   UNL     1      44.723 -28.237  -1.345  1.00  0.00    -0.354 N 
HETATM    4  C   UNL     1      44.929 -28.730  -2.604  1.00  0.00     0.179 C 
HETATM    5  S   UNL     1      45.389 -27.593  -3.753  1.00  0.00    -0.040 SA
HETATM    6  N   UNL     1      44.669 -30.107  -2.791  1.00  0.00    -0.292 N 
HETATM    7  C   UNL     1      44.175 -30.911  -1.736  1.00  0.00     0.030 C 
HETATM    8  C   UNL     1      43.901 -32.375  -2.018  1.00  0.00     0.070 C 
HETATM    9  H   UNL     1      44.979 -27.264  -1.225  1.00  0.00     0.163 HD
ENDROOT
BRANCH   1  10
HETATM   10  C   UNL     1      43.445 -31.113   0.659  1.00  0.00     0.257 C 
HETATM   11  N   UNL     1      42.296 -30.512   1.125  1.00  0.00    -0.306 N 
HETATM   12  H   UNL     1      41.977 -29.652   0.705  1.00  0.00     0.170 HD
HETATM   13  O   UNL     1      44.004 -32.094   1.126  1.00  0.00    -0.267 OA
BRANCH  11  14
HETATM   14  C   UNL     1      41.476 -31.063   2.093  1.00  0.00     0.160 A 
HETATM   15  N   UNL     1      40.405 -31.830   1.871  1.00  0.00    -0.110 NA
HETATM   16  O   UNL     1      39.862 -32.111   3.107  1.00  0.00    -0.216 OA
HETATM   17  C   UNL     1      40.600 -31.508   4.072  1.00  0.00     0.078 A 
HETATM   18  C   UNL     1      40.128 -31.679   5.457  1.00  0.00     0.079 C 
HETATM   19  C   UNL     1      41.649 -30.846   3.483  1.00  0.00     0.087 A 
ENDBRANCH  11  14
ENDBRANCH   1  10
BRANCH   2  20
HETATM   20  C   UNL     1      45.919 -29.053   0.606  1.00  0.00    -0.031 A 
HETATM   21  C   UNL     1      47.126 -29.414  -0.023  1.00  0.00     0.012 A 
HETATM   22  C   UNL     1      48.320 -29.474   0.699  1.00  0.00     0.037 A 
HETATM   23  C   UNL     1      48.317 -29.165   2.054  1.00  0.00     0.065 A 
HETATM   24  C   UNL     1      47.146 -28.785   2.694  1.00  0.00     0.037 A 
HETATM   25  C   UNL     1      45.950 -28.730   1.973  1.00  0.00     0.012 A 
BRANCH  23  26
HETATM   26  O   UNL     1      49.457 -29.232   2.800  1.00  0.00    -0.361 OA
HETATM   27  H   UNL     1      49.635 -30.164   3.003  1.00  0.00     0.217 HD
ENDBRANCH  23  26
ENDBRANCH   2  20
BRANCH   6  28
HETATM   28  C   UNL     1      44.811 -30.653  -4.111  1.00  0.00     0.042 A 
HETATM   29  C   UNL     1      43.766 -30.532  -5.036  1.00  0.00     0.030 A 
HETATM   30  C   UNL     1      43.918 -31.034  -6.329  1.00  0.00     0.002 A 
HETATM   31  C   UNL     1      45.109 -31.658  -6.702  1.00  0.00     0.000 A 
HETATM   32  C   UNL     1      46.151 -31.785  -5.783  1.00  0.00     0.002 A 
HETATM   33  C   UNL     1      46.004 -31.282  -4.490  1.00  0.00     0.030 A 
ENDBRANCH   6  28
TORSDOF 5
ENDMDL
MODEL 4
REMARK VINA RESULT:      -7.6      2.566      5.432
REMARK  5 active torsions:
REMARK  status: ('A' for Active; 'I' for Inactive)
REMARK    1  A    between atoms: C_5  and  N_6 
REMARK       I    between atoms: N_6  and  C_7 
REMARK    2  A    between atoms: C_7  and  C_8 
REMARK    3  A    between atoms: C_9  and  C_10 
REMARK    4  A    between atoms: C_13  and  O_14 
REMARK    5  A    between atoms: N_20  and  C_21 
ROOT
HETATM    1  C   UNL     1      40.717 -13.116   1.755  1.00  0.00     0.060 C 
HETATM    2  C   UNL     1      41.051 -12.693   0.359  1.00  0.00     0.158 C 
HETATM    3  N   UNL     1      41.308 -11.271   0.333  1.00  0.00    -0.354 N 
HETATM    4  C   UNL     1      40.777 -10.355   1.198  1.00  0.00     0.179 C 
HETATM    5  S   UNL     1      40.953  -8.748   0.739  1.00  0.00    -0.040 SA
HETATM    6  N   UNL     1      40.212 -10.867   2.389  1.00  0.00    -0.292 N 
HETATM    7  C   UNL     1      40.245 -12.252   2.680  1.00  0.00     0.030 C 
HETATM    8  C   UNL     1      39.635 -12.724   3.986  1.00  0.00     0.070 C 
HETATM    9  H   UNL     1      41.646 -10.882  -0.539  1.00  0.00     0.163 HD
ENDROOT
BRANCH   1  10
HETATM   10  C   UNL     1      40.898 -14.581   2.005  1.00  0.00     0.257 C 
HETATM   11  N   UNL     1      42.184 -14.910   2.375  1.00  0.00    -0.306 N 
HETATM   12  H   UNL     1      42.889 -14.191   2.420  1.00  0.00     0.170 HD
HETATM   13  O   UNL     1      39.968 -15.350   1.812  1.00  0.00    -0.267 OA
BRANCH  11  14
HETATM   14  C   UNL     1      42.568 -16.173   2.787  1.00  0.00     0.160 A 
HETATM   15  N   UNL     1      42.786 -16.555   4.048  1.00  0.00    -0.110 NA
HETATM   16  O   UNL     1      43.198 -17.870   3.994  1.00  0.00    -0.216 OA
HETATM   17  C   UNL     1      43.236 -18.277   2.701  1.00  0.00     0.078 A 
HETATM   18  C   UNL     1      43.695 -19.657   2.465  1.00  0.00     0.079 C 
HETATM   19  C   UNL     1      42.825 -17.244   1.895  1.00  0.00     0.087 A 
ENDBRANCH  11  14
ENDBRANCH   1  10
BRANCH   2  20
HETATM   20  C   UNL     1      39.995 -13.048  -0.679  1.00  0.00    -0.031 A 
HETATM   21  C   UNL     1      40.199 -14.066  -1.629  1.00  0.00     0.012 A 
HETATM   22  C   UNL     1      39.236 -14.341  -2.603  1.00  0.00     0.037 A 
HETATM   23  C   UNL     1      38.057 -13.603  -2.627  1.00  0.00     0.065 A 
HETATM   24  C   UNL     1      37.821 -12.610  -1.688  1.00  0.00     0.037 A 
HETATM   25  C   UNL     1      38.787 -12.331  -0.717  1.00  0.00     0.012 A 
BRANCH  23  26
HETATM   26  O   UNL     1      37.101 -13.825  -3.573  1.00  0.00    -0.361 OA
HETATM   27  H   UNL     1      37.442 -14.476  -4.206  1.00  0.00     0.217 HD
ENDBRANCH  23  26
ENDBRANCH   2  20
BRANCH   6  28
HETATM   28  C   UNL     1      39.701  -9.936   3.354  1.00  0.00     0.042 A 
HETATM   29  C   UNL     1      40.531  -9.460   4.378  1.00  0.00     0.030 A 
HETATM   30  C   UNL     1      40.043  -8.530   5.297  1.00  0.00     0.002 A 
HETATM   31  C   UNL     1      38.728  -8.075   5.198  1.00  0.00     0.000 A 
HETATM   32  C   UNL     1      37.896  -8.549   4.184  1.00  0.00     0.002 A 
HETATM   33  C   UNL     1      38.381  -9.478   3.263  1.00  0.00     0.030 A 
ENDBRANCH   6  28
TORSDOF 5
ENDMDL
MODEL 5
REMARK VINA RESULT:      -7.3     10.945     14.406
REMARK  5 active torsions:
REMARK  status: ('A' for Active; 'I' for Inactive)
REMARK    1  A    between atoms: C_5  and  N_6 
REMARK       I    between atoms: N_6  and  C_7 
REMARK    2  A    between atoms: C_7  and  C_8 
REMARK    3  A    between atoms: C_9  and  C_10 
REMARK    4  A    between atoms: C_13  and  O_14 
REMARK    5  A    between atoms: N_20  and  C_21 
ROOT
HETATM    1  C   UNL     1      40.682  -7.461  13.942  1.00  0.00     0.060 C 
HETATM    2  C   UNL     1      39.301  -7.464  13.368  1.00  0.00     0.158 C 
HETATM    3  N   UNL     1      39.247  -8.365  12.239  1.00  0.00    -0.354 N 
HETATM    4  C   UNL     1      40.304  -8.688  11.434  1.00  0.00     0.179 C 
HETATM    5  S   UNL     1      39.902  -9.469  10.001  1.00  0.00    -0.040 SA
HETATM    6  N   UNL     1      41.592  -8.388  11.934  1.00  0.00    -0.292 N 
HETATM    7  C   UNL     1      41.766  -7.827  13.222  1.00  0.00     0.030 C 
HETATM    8  C   UNL     1      43.179  -7.550  13.698  1.00  0.00     0.070 C 
HETATM    9  H   UNL     1      38.336  -8.531  11.828  1.00  0.00     0.163 HD
ENDROOT
BRANCH   1  10
HETATM   10  C   UNL     1      40.753  -6.966  15.353  1.00  0.00     0.257 C 
HETATM   11  N   UNL     1      40.689  -7.978  16.285  1.00  0.00    -0.306 N 
HETATM   12  H   UNL     1      40.573  -8.932  15.977  1.00  0.00     0.170 HD
HETATM   13  O   UNL     1      40.792  -5.764  15.573  1.00  0.00    -0.267 OA
BRANCH  11  14
HETATM   14  C   UNL     1      40.867  -7.789  17.643  1.00  0.00     0.160 A 
HETATM   15  N   UNL     1      42.013  -7.466  18.247  1.00  0.00    -0.110 NA
HETATM   16  O   UNL     1      41.748  -7.431  19.599  1.00  0.00    -0.216 OA
HETATM   17  C   UNL     1      40.444  -7.739  19.811  1.00  0.00     0.078 A 
HETATM   18  C   UNL     1      40.003  -7.782  21.215  1.00  0.00     0.079 C 
HETATM   19  C   UNL     1      39.834  -7.955  18.599  1.00  0.00     0.087 A 
ENDBRANCH  11  14
ENDBRANCH   1  10
BRANCH   2  20
HETATM   20  C   UNL     1      38.784  -6.090  12.960  1.00  0.00    -0.031 A 
HETATM   21  C   UNL     1      39.575  -5.187  12.225  1.00  0.00     0.012 A 
HETATM   22  C   UNL     1      39.098  -3.913  11.905  1.00  0.00     0.037 A 
HETATM   23  C   UNL     1      37.821  -3.539  12.311  1.00  0.00     0.065 A 
HETATM   24  C   UNL     1      37.013  -4.419  13.016  1.00  0.00     0.037 A 
HETATM   25  C   UNL     1      37.492  -5.690  13.341  1.00  0.00     0.012 A 
BRANCH  23  26
HETATM   26  O   UNL     1      37.326  -2.298  12.038  1.00  0.00    -0.361 OA
HETATM   27  H   UNL     1      36.472  -2.204  12.488  1.00  0.00     0.217 HD
ENDBRANCH  23  26
ENDBRANCH   2  20
BRANCH   6  28
HETATM   28  C   UNL     1      42.732  -8.769  11.150  1.00  0.00     0.042 A 
HETATM   29  C   UNL     1      43.196  -7.928  10.131  1.00  0.00     0.030 A 
HETATM   30  C   UNL     1      44.324  -8.284   9.391  1.00  0.00     0.002 A 
HETATM   31  C   UNL     1      44.990  -9.479   9.664  1.00  0.00     0.000 A 
HETATM   32  C   UNL     1      44.529 -10.323  10.675  1.00  0.00     0.002 A 
HETATM   33  C   UNL     1      43.403  -9.969  11.418  1.00  0.00     0.030 A 
ENDBRANCH   6  28
TORSDOF 5
ENDMDL
MODEL 6
REMARK VINA RESULT:      -7.2     16.588     17.869
REMARK  5 active torsions:
REMARK  status: ('A' for Active; 'I' for Inactive)
REMARK    1  A    between atoms: C_5  and  N_6 
REMARK       I    between atoms: N_6  and  C_7 
REMARK    2  A    between atoms: C_7  and  C_8 
REMARK    3  A    between atoms: C_9  and  C_10 
REMARK    4  A    between atoms: C_13  and  O_14 
REMARK    5  A    between atoms: N_20  and  C_21 
ROOT
HETATM    1  C   UNL     1      44.562 -30.386   1.222  1.00  0.00     0.060 C 
HETATM    2  C   UNL     1      45.578 -29.457   1.808  1.00  0.00     0.158 C 
HETATM    3  N   UNL     1      46.037 -28.538   0.791  1.00  0.00    -0.354 N 
HETATM    4  C   UNL     1      46.062 -28.792  -0.552  1.00  0.00     0.179 C 
HETATM    5  S   UNL     1      46.959 -27.707  -1.471  1.00  0.00    -0.040 SA
HETATM    6  N   UNL     1      45.285 -29.885  -1.001  1.00  0.00    -0.292 N 
HETATM    7  C   UNL     1      44.490 -30.637  -0.104  1.00  0.00     0.030 C 
HETATM    8  C   UNL     1      43.668 -31.783  -0.662  1.00  0.00     0.070 C 
HETATM    9  H   UNL     1      46.653 -27.792   1.092  1.00  0.00     0.163 HD
ENDROOT
BRANCH   1  10
HETATM   10  C   UNL     1      43.683 -31.044   2.240  1.00  0.00     0.257 C 
HETATM   11  N   UNL     1      42.484 -30.391   2.422  1.00  0.00    -0.306 N 
HETATM   12  H   UNL     1      42.297 -29.541   1.912  1.00  0.00     0.170 HD
HETATM   13  O   UNL     1      44.090 -32.020   2.853  1.00  0.00    -0.267 OA
BRANCH  11  14
HETATM   14  C   UNL     1      41.453 -30.875   3.206  1.00  0.00     0.160 A 
HETATM   15  N   UNL     1      41.124 -30.439   4.425  1.00  0.00    -0.110 NA
HETATM   16  O   UNL     1      40.080 -31.231   4.855  1.00  0.00    -0.216 OA
HETATM   17  C   UNL     1      39.785 -32.146   3.899  1.00  0.00     0.078 A 
HETATM   18  C   UNL     1      38.709 -33.100   4.218  1.00  0.00     0.079 C 
HETATM   19  C   UNL     1      40.614 -31.950   2.822  1.00  0.00     0.087 A 
ENDBRANCH  11  14
ENDBRANCH   1  10
BRANCH   2  20
HETATM   20  C   UNL     1      46.770 -30.151   2.454  1.00  0.00    -0.031 A 
HETATM   21  C   UNL     1      47.682 -30.916   1.703  1.00  0.00     0.012 A 
HETATM   22  C   UNL     1      48.739 -31.585   2.325  1.00  0.00     0.037 A 
HETATM   23  C   UNL     1      48.895 -31.486   3.703  1.00  0.00     0.065 A 
HETATM   24  C   UNL     1      48.023 -30.720   4.464  1.00  0.00     0.037 A 
HETATM   25  C   UNL     1      46.963 -30.056   3.843  1.00  0.00     0.012 A 
BRANCH  23  26
HETATM   26  O   UNL     1      49.900 -32.140   4.352  1.00  0.00    -0.361 OA
HETATM   27  H   UNL     1      49.504 -32.743   5.001  1.00  0.00     0.217 HD
ENDBRANCH  23  26
ENDBRANCH   2  20
BRANCH   6  28
HETATM   28  C   UNL     1      45.232 -30.148  -2.411  1.00  0.00     0.042 A 
HETATM   29  C   UNL     1      46.178 -30.994  -3.003  1.00  0.00     0.030 A 
HETATM   30  C   UNL     1      46.105 -31.275  -4.368  1.00  0.00     0.002 A 
HETATM   31  C   UNL     1      45.091 -30.712  -5.145  1.00  0.00     0.000 A 
HETATM   32  C   UNL     1      44.150 -29.864  -4.561  1.00  0.00     0.002 A 
HETATM   33  C   UNL     1      44.218 -29.583  -3.196  1.00  0.00     0.030 A 
ENDBRANCH   6  28
TORSDOF 5
ENDMDL
MODEL 7
REMARK VINA RESULT:      -7.1      9.428     13.142
REMARK  5 active torsions:
REMARK  status: ('A' for Active; 'I' for Inactive)
REMARK    1  A    between atoms: C_5  and  N_6 
REMARK       I    between atoms: N_6  and  C_7 
REMARK    2  A    between atoms: C_7  and  C_8 
REMARK    3  A    between atoms: C_9  and  C_10 
REMARK    4  A    between atoms: C_13  and  O_14 
REMARK    5  A    between atoms: N_20  and  C_21 
ROOT
HETATM    1  C   UNL     1      41.741  -7.181  11.580  1.00  0.00     0.060 C 
HETATM    2  C   UNL     1      41.037  -6.108  10.811  1.00  0.00     0.158 C 
HETATM    3  N   UNL     1      41.059  -6.428   9.402  1.00  0.00    -0.354 N 
HETATM    4  C   UNL     1      42.016  -7.178   8.776  1.00  0.00     0.179 C 
HETATM    5  S   UNL     1      42.000  -7.105   7.097  1.00  0.00    -0.040 SA
HETATM    6  N   UNL     1      42.846  -7.964   9.609  1.00  0.00    -0.292 N 
HETATM    7  C   UNL     1      42.654  -7.999  11.011  1.00  0.00     0.030 C 
HETATM    8  C   UNL     1      43.571  -8.880  11.837  1.00  0.00     0.070 C 
HETATM    9  H   UNL     1      40.524  -5.826   8.787  1.00  0.00     0.163 HD
ENDROOT
BRANCH   1  10
HETATM   10  C   UNL     1      41.384  -7.221  13.033  1.00  0.00     0.257 C 
HETATM   11  N   UNL     1      42.157  -6.381  13.803  1.00  0.00    -0.306 N 
HETATM   12  H   UNL     1      42.895  -5.847  13.370  1.00  0.00     0.170 HD
HETATM   13  O   UNL     1      40.526  -7.998  13.427  1.00  0.00    -0.267 OA
BRANCH  11  14
HETATM   14  C   UNL     1      41.934  -6.142  15.147  1.00  0.00     0.160 A 
HETATM   15  N   UNL     1      42.434  -6.848  16.164  1.00  0.00    -0.110 NA
HETATM   16  O   UNL     1      41.916  -6.297  17.317  1.00  0.00    -0.216 OA
HETATM   17  C   UNL     1      41.099  -5.264  16.994  1.00  0.00     0.078 A 
HETATM   18  C   UNL     1      40.431  -4.586  18.118  1.00  0.00     0.079 C 
HETATM   19  C   UNL     1      41.091  -5.110  15.630  1.00  0.00     0.087 A 
ENDBRANCH  11  14
ENDBRANCH   1  10
BRANCH   2  20
HETATM   20  C   UNL     1      41.590  -4.706  11.034  1.00  0.00    -0.031 A 
HETATM   21  C   UNL     1      42.872  -4.333  10.586  1.00  0.00     0.012 A 
HETATM   22  C   UNL     1      43.378  -3.057  10.845  1.00  0.00     0.037 A 
HETATM   23  C   UNL     1      42.600  -2.142  11.546  1.00  0.00     0.065 A 
HETATM   24  C   UNL     1      41.325  -2.477  11.979  1.00  0.00     0.037 A 
HETATM   25  C   UNL     1      40.821  -3.755  11.725  1.00  0.00     0.012 A 
BRANCH  23  26
HETATM   26  O   UNL     1      43.064  -0.894  11.839  1.00  0.00    -0.361 OA
HETATM   27  H   UNL     1      42.327  -0.267  11.760  1.00  0.00     0.217 HD
ENDBRANCH  23  26
ENDBRANCH   2  20
BRANCH   6  28
HETATM   28  C   UNL     1      43.820  -8.815   8.990  1.00  0.00     0.042 A 
HETATM   29  C   UNL     1      45.113  -8.337   8.740  1.00  0.00     0.030 A 
HETATM   30  C   UNL     1      46.069  -9.176   8.167  1.00  0.00     0.002 A 
HETATM   31  C   UNL     1      45.738 -10.492   7.841  1.00  0.00     0.000 A 
HETATM   32  C   UNL     1      44.451 -10.972   8.083  1.00  0.00     0.002 A 
HETATM   33  C   UNL     1      43.493 -10.136   8.657  1.00  0.00     0.030 A 
ENDBRANCH   6  28
TORSDOF 5
ENDMDL
MODEL 8
REMARK VINA RESULT:      -7.1      2.779      5.685
REMARK  5 active torsions:
REMARK  status: ('A' for Active; 'I' for Inactive)
REMARK    1  A    between atoms: C_5  and  N_6 
REMARK       I    between atoms: N_6  and  C_7 
REMARK    2  A    between atoms: C_7  and  C_8 
REMARK    3  A    between atoms: C_9  and  C_10 
REMARK    4  A    between atoms: C_13  and  O_14 
REMARK    5  A    between atoms: N_20  and  C_21 
ROOT
HETATM    1  C   UNL     1      41.459 -11.774   3.728  1.00  0.00     0.060 C 
HETATM    2  C   UNL     1      42.389 -12.338   2.699  1.00  0.00     0.158 C 
HETATM    3  N   UNL     1      42.101 -11.748   1.412  1.00  0.00    -0.354 N 
HETATM    4  C   UNL     1      40.885 -11.262   1.017  1.00  0.00     0.179 C 
HETATM    5  S   UNL     1      40.734 -10.958  -0.629  1.00  0.00    -0.040 SA
HETATM    6  N   UNL     1      39.942 -11.019   2.042  1.00  0.00    -0.292 N 
HETATM    7  C   UNL     1      40.268 -11.224   3.404  1.00  0.00     0.030 C 
HETATM    8  C   UNL     1      39.211 -10.924   4.448  1.00  0.00     0.070 C 
HETATM    9  H   UNL     1      42.733 -11.974   0.653  1.00  0.00     0.163 HD
ENDROOT
BRANCH   1  10
HETATM   10  C   UNL     1      41.946 -11.929   5.135  1.00  0.00     0.257 C 
HETATM   11  N   UNL     1      43.089 -11.205   5.394  1.00  0.00    -0.306 N 
HETATM   12  H   UNL     1      43.520 -10.673   4.654  1.00  0.00     0.170 HD
HETATM   13  O   UNL     1      41.370 -12.693   5.896  1.00  0.00    -0.267 OA
BRANCH  11  14
HETATM   14  C   UNL     1      43.654 -11.079   6.650  1.00  0.00     0.160 A 
HETATM   15  N   UNL     1      44.671 -11.801   7.128  1.00  0.00    -0.110 NA
HETATM   16  O   UNL     1      44.873 -11.381   8.426  1.00  0.00    -0.216 OA
HETATM   17  C   UNL     1      43.974 -10.413   8.731  1.00  0.00     0.078 A 
HETATM   18  C   UNL     1      44.030  -9.879  10.103  1.00  0.00     0.079 C 
HETATM   19  C   UNL     1      43.190 -10.168   7.631  1.00  0.00     0.087 A 
ENDBRANCH  11  14
ENDBRANCH   1  10
BRANCH   2  20
HETATM   20  C   UNL     1      42.362 -13.857   2.590  1.00  0.00    -0.031 A 
HETATM   21  C   UNL     1      43.441 -14.582   2.050  1.00  0.00     0.012 A 
HETATM   22  C   UNL     1      43.374 -15.971   1.913  1.00  0.00     0.037 A 
HETATM   23  C   UNL     1      42.230 -16.645   2.326  1.00  0.00     0.065 A 
HETATM   24  C   UNL     1      41.162 -15.956   2.883  1.00  0.00     0.037 A 
HETATM   25  C   UNL     1      41.226 -14.567   3.014  1.00  0.00     0.012 A 
BRANCH  23  26
HETATM   26  O   UNL     1      42.115 -17.997   2.192  1.00  0.00    -0.361 OA
HETATM   27  H   UNL     1      41.898 -18.374   3.059  1.00  0.00     0.217 HD
ENDBRANCH  23  26
ENDBRANCH   2  20
BRANCH   6  28
HETATM   28  C   UNL     1      38.676 -10.449   1.679  1.00  0.00     0.042 A 
HETATM   29  C   UNL     1      38.505  -9.059   1.685  1.00  0.00     0.030 A 
HETATM   30  C   UNL     1      37.283  -8.504   1.301  1.00  0.00     0.002 A 
HETATM   31  C   UNL     1      36.230  -9.334   0.912  1.00  0.00     0.000 A 
HETATM   32  C   UNL     1      36.394 -10.719   0.909  1.00  0.00     0.002 A 
HETATM   33  C   UNL     1      37.615 -11.277   1.290  1.00  0.00     0.030 A 
ENDBRANCH   6  28
TORSDOF 5
ENDMDL
MODEL 9
REMARK VINA RESULT:      -7.0      8.470     12.115
REMARK  5 active torsions:
REMARK  status: ('A' for Active; 'I' for Inactive)
REMARK    1  A    between atoms: C_5  and  N_6 
REMARK       I    between atoms: N_6  and  C_7 
REMARK    2  A    between atoms: C_7  and  C_8 
REMARK    3  A    between atoms: C_9  and  C_10 
REMARK    4  A    between atoms: C_13  and  O_14 
REMARK    5  A    between atoms: N_20  and  C_21 
ROOT
HETATM    1  C   UNL     1      41.235  -8.752  11.043  1.00  0.00     0.060 C 
HETATM    2  C   UNL     1      40.215  -8.085  10.175  1.00  0.00     0.158 C 
HETATM    3  N   UNL     1      40.436  -8.456   8.796  1.00  0.00    -0.354 N 
HETATM    4  C   UNL     1      41.641  -8.813   8.256  1.00  0.00     0.179 C 
HETATM    5  S   UNL     1      41.690  -8.855   6.576  1.00  0.00    -0.040 SA
HETATM    6  N   UNL     1      42.662  -9.162   9.169  1.00  0.00    -0.292 N 
HETATM    7  C   UNL     1      42.422  -9.184  10.564  1.00  0.00     0.030 C 
HETATM    8  C   UNL     1      43.561  -9.587  11.480  1.00  0.00     0.070 C 
HETATM    9  H   UNL     1      39.745  -8.149   8.122  1.00  0.00     0.163 HD
ENDROOT
BRANCH   1  10
HETATM   10  C   UNL     1      40.842  -8.839  12.485  1.00  0.00     0.257 C 
HETATM   11  N   UNL     1      41.203  -7.725  13.211  1.00  0.00    -0.306 N 
HETATM   12  H   UNL     1      41.709  -6.979  12.761  1.00  0.00     0.170 HD
HETATM   13  O   UNL     1      40.317  -9.857  12.911  1.00  0.00    -0.267 OA
BRANCH  11  14
HETATM   14  C   UNL     1      40.835  -7.510  14.527  1.00  0.00     0.160 A 
HETATM   15  N   UNL     1      39.863  -6.696  14.946  1.00  0.00    -0.110 NA
HETATM   16  O   UNL     1      39.876  -6.747  16.324  1.00  0.00    -0.216 OA
HETATM   17  C   UNL     1      40.859  -7.587  16.734  1.00  0.00     0.078 A 
HETATM   18  C   UNL     1      41.032  -7.726  18.190  1.00  0.00     0.079 C 
HETATM   19  C   UNL     1      41.485  -8.114  15.632  1.00  0.00     0.087 A 
ENDBRANCH  11  14
ENDBRANCH   1  10
BRANCH   2  20
HETATM   20  C   UNL     1      40.172  -6.568  10.302  1.00  0.00    -0.031 A 
HETATM   21  C   UNL     1      41.318  -5.773  10.110  1.00  0.00     0.012 A 
HETATM   22  C   UNL     1      41.266  -4.388  10.281  1.00  0.00     0.037 A 
HETATM   23  C   UNL     1      40.063  -3.787  10.638  1.00  0.00     0.065 A 
HETATM   24  C   UNL     1      38.915  -4.545  10.812  1.00  0.00     0.037 A 
HETATM   25  C   UNL     1      38.968  -5.931  10.646  1.00  0.00     0.012 A 
BRANCH  23  26
HETATM   26  O   UNL     1      39.974  -2.441  10.836  1.00  0.00    -0.361 OA
HETATM   27  H   UNL     1      40.864  -2.060  10.761  1.00  0.00     0.217 HD
ENDBRANCH  23  26
ENDBRANCH   2  20
BRANCH   6  28
HETATM   28  C   UNL     1      43.922  -9.605   8.644  1.00  0.00     0.042 A 
HETATM   29  C   UNL     1      44.063 -10.915   8.170  1.00  0.00     0.030 A 
HETATM   30  C   UNL     1      45.279 -11.335   7.629  1.00  0.00     0.002 A 
HETATM   31  C   UNL     1      46.356 -10.451   7.562  1.00  0.00     0.000 A 
HETATM   32  C   UNL     1      46.223  -9.146   8.037  1.00  0.00     0.002 A 
HETATM   33  C   UNL     1      45.008  -8.722   8.576  1.00  0.00     0.030 A 
ENDBRANCH   6  28
TORSDOF 5
ENDMDL
MODEL 10
REMARK VINA RESULT:      -6.9      3.459      7.045
REMARK  5 active torsions:
REMARK  status: ('A' for Active; 'I' for Inactive)
REMARK    1  A    between atoms: C_5  and  N_6 
REMARK       I    between atoms: N_6  and  C_7 
REMARK    2  A    between atoms: C_7  and  C_8 
REMARK    3  A    between atoms: C_9  and  C_10 
REMARK    4  A    between atoms: C_13  and  O_14 
REMARK    5  A    between atoms: N_20  and  C_21 
ROOT
HETATM    1  C   UNL     1      39.679 -12.533   4.009  1.00  0.00     0.060 C 
HETATM    2  C   UNL     1      38.955 -11.921   2.850  1.00  0.00     0.158 C 
HETATM    3  N   UNL     1      38.929 -12.856   1.748  1.00  0.00    -0.354 N 
HETATM    4  C   UNL     1      39.859 -13.830   1.515  1.00  0.00     0.179 C 
HETATM    5  S   UNL     1      39.788 -14.540  -0.007  1.00  0.00    -0.040 SA
HETATM    6  N   UNL     1      40.712 -14.159   2.594  1.00  0.00    -0.292 N 
HETATM    7  C   UNL     1      40.567 -13.540   3.858  1.00  0.00     0.030 C 
HETATM    8  C   UNL     1      41.506 -13.958   4.973  1.00  0.00     0.070 C 
HETATM    9  H   UNL     1      38.377 -12.596   0.940  1.00  0.00     0.163 HD
ENDROOT
BRANCH   1  10
HETATM   10  C   UNL     1      39.369 -11.890   5.325  1.00  0.00     0.257 C 
HETATM   11  N   UNL     1      39.997 -10.675   5.494  1.00  0.00    -0.306 N 
HETATM   12  H   UNL     1      40.616 -10.331   4.776  1.00  0.00     0.170 HD
HETATM   13  O   UNL     1      38.676 -12.479   6.141  1.00  0.00    -0.267 OA
BRANCH  11  14
HETATM   14  C   UNL     1      39.767  -9.830   6.564  1.00  0.00     0.160 A 
HETATM   15  N   UNL     1      38.668  -9.098   6.763  1.00  0.00    -0.110 NA
HETATM   16  O   UNL     1      38.885  -8.371   7.914  1.00  0.00    -0.216 OA
HETATM   17  C   UNL     1      40.116  -8.659   8.404  1.00  0.00     0.078 A 
HETATM   18  C   UNL     1      40.521  -7.933   9.620  1.00  0.00     0.079 C 
HETATM   19  C   UNL     1      40.710  -9.596   7.595  1.00  0.00     0.087 A 
ENDBRANCH  11  14
ENDBRANCH   1  10
BRANCH   2  20
HETATM   20  C   UNL     1      39.523 -10.587   2.385  1.00  0.00    -0.031 A 
HETATM   21  C   UNL     1      38.774  -9.397   2.447  1.00  0.00     0.012 A 
HETATM   22  C   UNL     1      39.297  -8.194   1.968  1.00  0.00     0.037 A 
HETATM   23  C   UNL     1      40.580  -8.172   1.431  1.00  0.00     0.065 A 
HETATM   24  C   UNL     1      41.349  -9.326   1.379  1.00  0.00     0.037 A 
HETATM   25  C   UNL     1      40.823 -10.530   1.853  1.00  0.00     0.012 A 
BRANCH  23  26
HETATM   26  O   UNL     1      41.121  -7.024   0.933  1.00  0.00    -0.361 OA
HETATM   27  H   UNL     1      41.145  -6.363   1.644  1.00  0.00     0.217 HD
ENDBRANCH  23  26
ENDBRANCH   2  20
BRANCH   6  28
HETATM   28  C   UNL     1      41.660 -15.220   2.412  1.00  0.00     0.042 A 
HETATM   29  C   UNL     1      41.332 -16.528   2.792  1.00  0.00     0.030 A 
HETATM   30  C   UNL     1      42.242 -17.565   2.585  1.00  0.00     0.002 A 
HETATM   31  C   UNL     1      43.481 -17.300   2.001  1.00  0.00     0.000 A 
HETATM   32  C   UNL     1      43.816 -16.000   1.625  1.00  0.00     0.002 A 
HETATM   33  C   UNL     1      42.907 -14.960   1.829  1.00  0.00     0.030 A 
ENDBRANCH   6  28
TORSDOF 5
ENDMDL
