MODEL 1
REMARK VINA RESULT:      -9.3      0.000      0.000
REMARK  5 active torsions:
REMARK  status: ('A' for Active; 'I' for Inactive)
REMARK    1  A    between atoms: O_2  and  C_3 
REMARK    2  A    between atoms: C_5  and  O_6 
REMARK    3  A    between atoms: C_8  and  C_9 
REMARK    4  A    between atoms: C_21  and  N_22 
REMARK       I    between atoms: N_22  and  C_23 
REMARK    5  A    between atoms: C_23  and  C_24 
ROOT
HETATM    1  C   UNL     1      42.549 -10.641   6.464  1.00  0.00    -0.022 A 
HETATM    2  C   UNL     1      42.398 -12.014   6.218  1.00  0.00     0.031 A 
HETATM    3  C   UNL     1      42.005 -12.508   4.958  1.00  0.00     0.059 A 
HETATM    4  C   UNL     1      41.763 -11.606   3.907  1.00  0.00     0.050 A 
HETATM    5  N   UNL     1      41.351 -11.949   2.604  1.00  0.00    -0.324 N 
HETATM    6  C   UNL     1      41.594 -13.109   1.915  1.00  0.00     0.245 C 
HETATM    7  O   UNL     1      41.133 -13.252   0.784  1.00  0.00    -0.271 OA
HETATM    8  C   UNL     1      42.514 -14.131   2.586  1.00  0.00     0.181 C 
HETATM    9  N   UNL     1      41.799 -14.676   3.736  1.00  0.00    -0.334 N 
HETATM   10  C   UNL     1      41.658 -13.955   4.916  1.00  0.00     0.256 C 
HETATM   11  O   UNL     1      41.218 -14.485   5.936  1.00  0.00    -0.267 OA
HETATM   12  C   UNL     1      43.067 -15.195   1.622  1.00  0.00     0.060 C 
HETATM   13  C   UNL     1      42.694 -16.630   1.997  1.00  0.00     0.088 C 
HETATM   14  C   UNL     1      41.217 -16.691   2.359  1.00  0.00     0.045 C 
HETATM   15  C   UNL     1      40.896 -15.811   3.556  1.00  0.00     0.129 C 
HETATM   16  C   UNL     1      41.893 -10.232   4.154  1.00  0.00     0.031 A 
HETATM   17  C   UNL     1      42.290  -9.759   5.409  1.00  0.00     0.014 A 
HETATM   18  H   UNL     1      40.924 -11.230   2.030  1.00  0.00     0.169 HD
ENDROOT
BRANCH  13  19
HETATM   19  N   UNL     1      43.536 -17.144   3.080  1.00  0.00    -0.356 N 
HETATM   20  C   UNL     1      43.851 -18.478   3.173  1.00  0.00     0.222 C 
HETATM   21  O   UNL     1      43.349 -19.349   2.472  1.00  0.00    -0.273 OA
HETATM   22  H   UNL     1      44.164 -16.474   3.515  1.00  0.00     0.162 HD
BRANCH  20  23
HETATM   23  C   UNL     1      44.797 -18.824   4.315  1.00  0.00     0.081 C 
HETATM   24  C   UNL     1      44.521 -20.236   4.857  1.00  0.00     0.041 C 
HETATM   25  C   UNL     1      43.227 -20.343   5.657  1.00  0.00     0.233 C 
HETATM   26  N   UNL     1      43.191 -19.275   6.699  1.00  0.00    -0.075 N 
HETATM   27  H   UNL     1      43.915 -19.453   7.407  1.00  0.00     0.277 HD
HETATM   28  H   UNL     1      42.292 -19.342   7.195  1.00  0.00     0.277 HD
HETATM   29  C   UNL     1      43.332 -17.891   6.158  1.00  0.00     0.233 C 
HETATM   30  C   UNL     1      44.661 -17.773   5.423  1.00  0.00     0.041 C 
ENDBRANCH  20  23
ENDBRANCH  13  19
BRANCH   1  31
HETATM   31  C   UNL     1      42.894 -10.144   7.812  1.00  0.00     0.008 A 
HETATM   32  C   UNL     1      44.100 -10.473   8.467  1.00  0.00     0.082 A 
HETATM   33  C   UNL     1      44.360  -9.959   9.745  1.00  0.00     0.074 A 
HETATM   34  C   UNL     1      43.453  -9.106  10.383  1.00  0.00     0.070 A 
HETATM   35  C   UNL     1      42.266  -8.771   9.742  1.00  0.00     0.038 A 
HETATM   36  C   UNL     1      41.992  -9.285   8.472  1.00  0.00     0.018 A 
BRANCH  32  37
HETATM   37  O   UNL     1      44.946 -11.328   7.801  1.00  0.00    -0.355 OA
HETATM   38  C   UNL     1      46.219 -10.813   7.423  1.00  0.00     0.210 C 
ENDBRANCH  32  37
BRANCH  34  39
HETATM   39  O   UNL     1      43.843  -8.680  11.623  1.00  0.00    -0.356 OA
HETATM   40  C   UNL     1      42.962  -8.955  12.706  1.00  0.00     0.210 C 
ENDBRANCH  34  39
ENDBRANCH   1  31
TORSDOF 5
ENDMDL
MODEL 2
REMARK VINA RESULT:      -9.0      3.116      9.011
REMARK  5 active torsions:
REMARK  status: ('A' for Active; 'I' for Inactive)
REMARK    1  A    between atoms: O_2  and  C_3 
REMARK    2  A    between atoms: C_5  and  O_6 
REMARK    3  A    between atoms: C_8  and  C_9 
REMARK    4  A    between atoms: C_21  and  N_22 
REMARK       I    between atoms: N_22  and  C_23 
REMARK    5  A    between atoms: C_23  and  C_24 
ROOT
HETATM    1  C   UNL     1      41.737 -14.941   4.612  1.00  0.00    -0.022 A 
HETATM    2  C   UNL     1      42.116 -13.832   5.383  1.00  0.00     0.031 A 
HETATM    3  C   UNL     1      41.423 -12.607   5.320  1.00  0.00     0.059 A 
HETATM    4  C   UNL     1      40.312 -12.484   4.467  1.00  0.00     0.050 A 
HETATM    5  N   UNL     1      39.536 -11.322   4.287  1.00  0.00    -0.324 N 
HETATM    6  C   UNL     1      39.305 -10.309   5.181  1.00  0.00     0.245 C 
HETATM    7  O   UNL     1      38.614  -9.348   4.845  1.00  0.00    -0.271 OA
HETATM    8  C   UNL     1      39.866 -10.492   6.593  1.00  0.00     0.181 C 
HETATM    9  N   UNL     1      41.320 -10.408   6.500  1.00  0.00    -0.334 N 
HETATM   10  C   UNL     1      42.082 -11.462   6.008  1.00  0.00     0.256 C 
HETATM   11  O   UNL     1      43.309 -11.458   6.102  1.00  0.00    -0.267 OA
HETATM   12  C   UNL     1      39.242  -9.547   7.636  1.00  0.00     0.060 C 
HETATM   13  C   UNL     1      40.251  -8.629   8.327  1.00  0.00     0.088 C 
HETATM   14  C   UNL     1      41.186  -8.030   7.287  1.00  0.00     0.045 C 
HETATM   15  C   UNL     1      41.976  -9.103   6.556  1.00  0.00     0.129 C 
HETATM   16  C   UNL     1      39.942 -13.583   3.680  1.00  0.00     0.031 A 
HETATM   17  C   UNL     1      40.637 -14.795   3.760  1.00  0.00     0.014 A 
HETATM   18  H   UNL     1      38.964 -11.251   3.452  1.00  0.00     0.169 HD
ENDROOT
BRANCH  13  19
HETATM   19  N   UNL     1      40.994  -9.332   9.377  1.00  0.00    -0.356 N 
HETATM   20  C   UNL     1      40.742  -9.105  10.708  1.00  0.00     0.222 C 
HETATM   21  O   UNL     1      40.008  -8.216  11.123  1.00  0.00    -0.273 OA
HETATM   22  H   UNL     1      41.405 -10.223   9.113  1.00  0.00     0.162 HD
BRANCH  20  23
HETATM   23  C   UNL     1      41.552  -9.976  11.660  1.00  0.00     0.081 C 
HETATM   24  C   UNL     1      41.306  -9.578  13.124  1.00  0.00     0.041 C 
HETATM   25  C   UNL     1      41.942  -8.248  13.512  1.00  0.00     0.233 C 
HETATM   26  N   UNL     1      43.381  -8.245  13.116  1.00  0.00    -0.075 N 
HETATM   27  H   UNL     1      43.902  -8.924  13.686  1.00  0.00     0.277 HD
HETATM   28  H   UNL     1      43.775  -7.324  13.350  1.00  0.00     0.277 HD
HETATM   29  C   UNL     1      43.614  -8.507  11.665  1.00  0.00     0.233 C 
HETATM   30  C   UNL     1      43.039  -9.870  11.303  1.00  0.00     0.041 C 
ENDBRANCH  20  23
ENDBRANCH  13  19
BRANCH   1  31
HETATM   31  C   UNL     1      42.521 -16.193   4.644  1.00  0.00     0.008 A 
HETATM   32  C   UNL     1      42.741 -16.932   5.827  1.00  0.00     0.082 A 
HETATM   33  C   UNL     1      43.492 -18.115   5.778  1.00  0.00     0.074 A 
HETATM   34  C   UNL     1      44.017 -18.592   4.572  1.00  0.00     0.070 A 
HETATM   35  C   UNL     1      43.798 -17.875   3.402  1.00  0.00     0.038 A 
HETATM   36  C   UNL     1      43.059 -16.689   3.440  1.00  0.00     0.018 A 
BRANCH  32  37
HETATM   37  O   UNL     1      42.217 -16.408   6.984  1.00  0.00    -0.355 OA
HETATM   38  C   UNL     1      43.141 -16.012   7.992  1.00  0.00     0.210 C 
ENDBRANCH  32  37
BRANCH  34  39
HETATM   39  O   UNL     1      44.723 -19.760   4.678  1.00  0.00    -0.356 OA
HETATM   40  C   UNL     1      44.082 -20.842   5.343  1.00  0.00     0.210 C 
ENDBRANCH  34  39
ENDBRANCH   1  31
TORSDOF 5
ENDMDL
MODEL 3
REMARK VINA RESULT:      -8.9      3.504      8.347
REMARK  5 active torsions:
REMARK  status: ('A' for Active; 'I' for Inactive)
REMARK    1  A    between atoms: O_2  and  C_3 
REMARK    2  A    between atoms: C_5  and  O_6 
REMARK    3  A    between atoms: C_8  and  C_9 
REMARK    4  A    between atoms: C_21  and  N_22 
REMARK       I    between atoms: N_22  and  C_23 
REMARK    5  A    between atoms: C_23  and  C_24 
ROOT
HETATM    1  C   UNL     1      41.539 -15.717   2.457  1.00  0.00    -0.022 A 
HETATM    2  C   UNL     1      41.706 -14.349   2.718  1.00  0.00     0.031 A 
HETATM    3  C   UNL     1      40.949 -13.364   2.053  1.00  0.00     0.059 A 
HETATM    4  C   UNL     1      39.990 -13.754   1.102  1.00  0.00     0.050 A 
HETATM    5  N   UNL     1      39.174 -12.886   0.350  1.00  0.00    -0.324 N 
HETATM    6  C   UNL     1      38.728 -11.635   0.688  1.00  0.00     0.245 C 
HETATM    7  O   UNL     1      38.037 -11.000  -0.108  1.00  0.00    -0.271 OA
HETATM    8  C   UNL     1      39.058 -11.142   2.098  1.00  0.00     0.181 C 
HETATM    9  N   UNL     1      40.498 -10.910   2.155  1.00  0.00    -0.334 N 
HETATM   10  C   UNL     1      41.403 -11.960   2.258  1.00  0.00     0.256 C 
HETATM   11  O   UNL     1      42.594 -11.753   2.489  1.00  0.00    -0.267 OA
HETATM   12  C   UNL     1      38.205  -9.944   2.552  1.00  0.00     0.060 C 
HETATM   13  C   UNL     1      39.018  -8.696   2.900  1.00  0.00     0.088 C 
HETATM   14  C   UNL     1      40.069  -8.460   1.824  1.00  0.00     0.045 C 
HETATM   15  C   UNL     1      41.043  -9.624   1.725  1.00  0.00     0.129 C 
HETATM   16  C   UNL     1      39.834 -15.119   0.823  1.00  0.00     0.031 A 
HETATM   17  C   UNL     1      40.589 -16.085   1.498  1.00  0.00     0.014 A 
HETATM   18  H   UNL     1      38.746 -13.243  -0.498  1.00  0.00     0.169 HD
ENDROOT
BRANCH  13  19
HETATM   19  N   UNL     1      39.623  -8.796   4.231  1.00  0.00    -0.356 N 
HETATM   20  C   UNL     1      38.854  -8.926   5.361  1.00  0.00     0.222 C 
HETATM   21  O   UNL     1      37.633  -8.820   5.372  1.00  0.00    -0.273 OA
HETATM   22  H   UNL     1      40.580  -9.137   4.262  1.00  0.00     0.162 HD
BRANCH  20  23
HETATM   23  C   UNL     1      39.649  -9.093   6.649  1.00  0.00     0.081 C 
HETATM   24  C   UNL     1      41.161  -9.109   6.372  1.00  0.00     0.041 C 
HETATM   25  C   UNL     1      41.646 -10.386   5.696  1.00  0.00     0.233 C 
HETATM   26  N   UNL     1      41.155 -11.573   6.455  1.00  0.00    -0.075 N 
HETATM   27  H   UNL     1      41.611 -11.613   7.376  1.00  0.00     0.277 HD
HETATM   28  H   UNL     1      41.459 -12.421   5.957  1.00  0.00     0.277 HD
HETATM   29  C   UNL     1      39.671 -11.625   6.615  1.00  0.00     0.233 C 
HETATM   30  C   UNL     1      39.205 -10.378   7.357  1.00  0.00     0.041 C 
ENDBRANCH  20  23
ENDBRANCH  13  19
BRANCH   1  31
HETATM   31  C   UNL     1      42.392 -16.727   3.117  1.00  0.00     0.008 A 
HETATM   32  C   UNL     1      42.534 -16.816   4.518  1.00  0.00     0.082 A 
HETATM   33  C   UNL     1      43.359 -17.805   5.073  1.00  0.00     0.074 A 
HETATM   34  C   UNL     1      44.035 -18.723   4.263  1.00  0.00     0.070 A 
HETATM   35  C   UNL     1      43.895 -18.648   2.882  1.00  0.00     0.038 A 
HETATM   36  C   UNL     1      43.084 -17.660   2.318  1.00  0.00     0.018 A 
BRANCH  32  37
HETATM   37  O   UNL     1      41.860 -15.878   5.264  1.00  0.00    -0.355 OA
HETATM   38  C   UNL     1      41.754 -16.118   6.663  1.00  0.00     0.210 C 
ENDBRANCH  32  37
BRANCH  34  39
HETATM   39  O   UNL     1      44.799 -19.633   4.943  1.00  0.00    -0.356 OA
HETATM   40  C   UNL     1      44.171 -20.857   5.305  1.00  0.00     0.210 C 
ENDBRANCH  34  39
ENDBRANCH   1  31
TORSDOF 5
ENDMDL
MODEL 4
REMARK VINA RESULT:      -8.8      3.412      9.307
REMARK  5 active torsions:
REMARK  status: ('A' for Active; 'I' for Inactive)
REMARK    1  A    between atoms: O_2  and  C_3 
REMARK    2  A    between atoms: C_5  and  O_6 
REMARK    3  A    between atoms: C_8  and  C_9 
REMARK    4  A    between atoms: C_21  and  N_22 
REMARK       I    between atoms: N_22  and  C_23 
REMARK    5  A    between atoms: C_23  and  C_24 
ROOT
HETATM    1  C   UNL     1      41.385 -13.964   5.322  1.00  0.00    -0.022 A 
HETATM    2  C   UNL     1      41.911 -12.843   5.982  1.00  0.00     0.031 A 
HETATM    3  C   UNL     1      41.217 -11.618   6.043  1.00  0.00     0.059 A 
HETATM    4  C   UNL     1      39.955 -11.507   5.433  1.00  0.00     0.050 A 
HETATM    5  N   UNL     1      39.156 -10.348   5.398  1.00  0.00    -0.324 N 
HETATM    6  C   UNL     1      39.110  -9.321   6.305  1.00  0.00     0.245 C 
HETATM    7  O   UNL     1      38.363  -8.364   6.103  1.00  0.00    -0.271 OA
HETATM    8  C   UNL     1      39.948  -9.482   7.575  1.00  0.00     0.181 C 
HETATM    9  N   UNL     1      41.353  -9.402   7.185  1.00  0.00    -0.334 N 
HETATM   10  C   UNL     1      42.000 -10.463   6.564  1.00  0.00     0.256 C 
HETATM   11  O   UNL     1      43.220 -10.459   6.405  1.00  0.00    -0.267 OA
HETATM   12  C   UNL     1      39.549  -8.521   8.708  1.00  0.00     0.060 C 
HETATM   13  C   UNL     1      40.676  -7.594   9.165  1.00  0.00     0.088 C 
HETATM   14  C   UNL     1      41.377  -7.011   7.947  1.00  0.00     0.045 C 
HETATM   15  C   UNL     1      42.003  -8.097   7.086  1.00  0.00     0.129 C 
HETATM   16  C   UNL     1      39.435 -12.618   4.755  1.00  0.00     0.031 A 
HETATM   17  C   UNL     1      40.134 -13.829   4.709  1.00  0.00     0.014 A 
HETATM   18  H   UNL     1      38.425 -10.289   4.696  1.00  0.00     0.169 HD
ENDROOT
BRANCH  13  19
HETATM   19  N   UNL     1      41.619  -8.281  10.052  1.00  0.00    -0.356 N 
HETATM   20  C   UNL     1      42.276  -7.613  11.056  1.00  0.00     0.222 C 
HETATM   21  O   UNL     1      42.251  -6.396  11.198  1.00  0.00    -0.273 OA
HETATM   22  H   UNL     1      41.490  -9.284  10.149  1.00  0.00     0.162 HD
BRANCH  20  23
HETATM   23  C   UNL     1      43.159  -8.497  11.927  1.00  0.00     0.081 C 
HETATM   24  C   UNL     1      42.487  -9.850  12.209  1.00  0.00     0.041 C 
HETATM   25  C   UNL     1      41.312  -9.760  13.178  1.00  0.00     0.233 C 
HETATM   26  N   UNL     1      41.730  -9.022  14.405  1.00  0.00    -0.075 N 
HETATM   27  H   UNL     1      42.418  -9.576  14.930  1.00  0.00     0.277 HD
HETATM   28  H   UNL     1      40.911  -8.938  15.023  1.00  0.00     0.277 HD
HETATM   29  C   UNL     1      42.266  -7.654  14.142  1.00  0.00     0.233 C 
HETATM   30  C   UNL     1      43.483  -7.760  13.232  1.00  0.00     0.041 C 
ENDBRANCH  20  23
ENDBRANCH  13  19
BRANCH   1  31
HETATM   31  C   UNL     1      42.162 -15.215   5.212  1.00  0.00     0.008 A 
HETATM   32  C   UNL     1      42.824 -15.607   4.028  1.00  0.00     0.082 A 
HETATM   33  C   UNL     1      43.547 -16.808   4.001  1.00  0.00     0.074 A 
HETATM   34  C   UNL     1      43.642 -17.624   5.133  1.00  0.00     0.070 A 
HETATM   35  C   UNL     1      42.999 -17.241   6.305  1.00  0.00     0.038 A 
HETATM   36  C   UNL     1      42.268 -16.051   6.341  1.00  0.00     0.018 A 
BRANCH  32  37
HETATM   37  O   UNL     1      42.683 -14.776   2.942  1.00  0.00    -0.355 OA
HETATM   38  C   UNL     1      43.471 -15.073   1.794  1.00  0.00     0.210 C 
ENDBRANCH  32  37
BRANCH  34  39
HETATM   39  O   UNL     1      44.383 -18.761   4.959  1.00  0.00    -0.356 OA
HETATM   40  C   UNL     1      43.902 -19.946   5.582  1.00  0.00     0.210 C 
ENDBRANCH  34  39
ENDBRANCH   1  31
TORSDOF 5
ENDMDL
MODEL 5
REMARK VINA RESULT:      -8.8      3.312      8.536
REMARK  5 active torsions:
REMARK  status: ('A' for Active; 'I' for Inactive)
REMARK    1  A    between atoms: O_2  and  C_3 
REMARK    2  A    between atoms: C_5  and  O_6 
REMARK    3  A    between atoms: C_8  and  C_9 
REMARK    4  A    between atoms: C_21  and  N_22 
REMARK       I    between atoms: N_22  and  C_23 
REMARK    5  A    between atoms: C_23  and  C_24 
ROOT
HETATM    1  C   UNL     1      43.141 -15.031   5.843  1.00  0.00    -0.022 A 
HETATM    2  C   UNL     1      41.892 -14.424   5.648  1.00  0.00     0.031 A 
HETATM    3  C   UNL     1      41.659 -13.072   5.974  1.00  0.00     0.059 A 
HETATM    4  C   UNL     1      42.706 -12.299   6.506  1.00  0.00     0.050 A 
HETATM    5  N   UNL     1      42.619 -10.948   6.893  1.00  0.00    -0.324 N 
HETATM    6  C   UNL     1      41.788  -9.976   6.401  1.00  0.00     0.245 C 
HETATM    7  O   UNL     1      41.828  -8.842   6.877  1.00  0.00    -0.271 OA
HETATM    8  C   UNL     1      40.909 -10.358   5.207  1.00  0.00     0.181 C 
HETATM    9  N   UNL     1      39.912 -11.312   5.685  1.00  0.00    -0.334 N 
HETATM   10  C   UNL     1      40.235 -12.640   5.937  1.00  0.00     0.256 C 
HETATM   11  O   UNL     1      39.359 -13.475   6.161  1.00  0.00    -0.267 OA
HETATM   12  C   UNL     1      40.322  -9.150   4.457  1.00  0.00     0.060 C 
HETATM   13  C   UNL     1      38.793  -9.122   4.421  1.00  0.00     0.088 C 
HETATM   14  C   UNL     1      38.248  -9.438   5.807  1.00  0.00     0.045 C 
HETATM   15  C   UNL     1      38.666 -10.823   6.273  1.00  0.00     0.129 C 
HETATM   16  C   UNL     1      43.950 -12.908   6.722  1.00  0.00     0.031 A 
HETATM   17  C   UNL     1      44.167 -14.249   6.386  1.00  0.00     0.014 A 
HETATM   18  H   UNL     1      43.323 -10.583   7.526  1.00  0.00     0.169 HD
ENDROOT
BRANCH  13  19
HETATM   19  N   UNL     1      38.256 -10.037   3.410  1.00  0.00    -0.356 N 
HETATM   20  C   UNL     1      37.946  -9.605   2.144  1.00  0.00     0.222 C 
HETATM   21  O   UNL     1      37.946  -8.427   1.805  1.00  0.00    -0.273 OA
HETATM   22  H   UNL     1      38.471 -11.022   3.540  1.00  0.00     0.162 HD
BRANCH  20  23
HETATM   23  C   UNL     1      37.473 -10.704   1.202  1.00  0.00     0.081 C 
HETATM   24  C   UNL     1      38.289 -11.992   1.394  1.00  0.00     0.041 C 
HETATM   25  C   UNL     1      39.714 -11.899   0.859  1.00  0.00     0.233 C 
HETATM   26  N   UNL     1      39.690 -11.399  -0.547  1.00  0.00    -0.075 N 
HETATM   27  H   UNL     1      39.259 -12.102  -1.162  1.00  0.00     0.277 HD
HETATM   28  H   UNL     1      40.663 -11.305  -0.870  1.00  0.00     0.277 HD
HETATM   29  C   UNL     1      39.006 -10.083  -0.715  1.00  0.00     0.233 C 
HETATM   30  C   UNL     1      37.563 -10.205  -0.245  1.00  0.00     0.041 C 
ENDBRANCH  20  23
ENDBRANCH  13  19
BRANCH   1  31
HETATM   31  C   UNL     1      43.341 -16.467   5.558  1.00  0.00     0.008 A 
HETATM   32  C   UNL     1      43.578 -16.966   4.259  1.00  0.00     0.082 A 
HETATM   33  C   UNL     1      43.764 -18.342   4.066  1.00  0.00     0.074 A 
HETATM   34  C   UNL     1      43.737 -19.236   5.142  1.00  0.00     0.070 A 
HETATM   35  C   UNL     1      43.512 -18.751   6.425  1.00  0.00     0.038 A 
HETATM   36  C   UNL     1      43.316 -17.383   6.628  1.00  0.00     0.018 A 
BRANCH  32  37
HETATM   37  O   UNL     1      43.578 -16.046   3.238  1.00  0.00    -0.355 OA
HETATM   38  C   UNL     1      43.231 -16.519   1.940  1.00  0.00     0.210 C 
ENDBRANCH  32  37
BRANCH  34  39
HETATM   39  O   UNL     1      43.938 -20.546   4.803  1.00  0.00    -0.356 OA
HETATM   40  C   UNL     1      43.864 -20.872   3.420  1.00  0.00     0.210 C 
ENDBRANCH  34  39
ENDBRANCH   1  31
TORSDOF 5
ENDMDL
MODEL 6
REMARK VINA RESULT:      -8.3      2.170      3.078
REMARK  5 active torsions:
REMARK  status: ('A' for Active; 'I' for Inactive)
REMARK    1  A    between atoms: O_2  and  C_3 
REMARK    2  A    between atoms: C_5  and  O_6 
REMARK    3  A    between atoms: C_8  and  C_9 
REMARK    4  A    between atoms: C_21  and  N_22 
REMARK       I    between atoms: N_22  and  C_23 
REMARK    5  A    between atoms: C_23  and  C_24 
ROOT
HETATM    1  C   UNL     1      41.013  -9.234   7.857  1.00  0.00    -0.022 A 
HETATM    2  C   UNL     1      40.616 -10.418   7.217  1.00  0.00     0.031 A 
HETATM    3  C   UNL     1      40.821 -10.626   5.839  1.00  0.00     0.059 A 
HETATM    4  C   UNL     1      41.447  -9.627   5.074  1.00  0.00     0.050 A 
HETATM    5  N   UNL     1      41.702  -9.686   3.690  1.00  0.00    -0.324 N 
HETATM    6  C   UNL     1      41.915 -10.795   2.913  1.00  0.00     0.245 C 
HETATM    7  O   UNL     1      42.101 -10.664   1.704  1.00  0.00    -0.271 OA
HETATM    8  C   UNL     1      41.995 -12.141   3.637  1.00  0.00     0.181 C 
HETATM    9  N   UNL     1      40.658 -12.448   4.138  1.00  0.00    -0.334 N 
HETATM   10  C   UNL     1      40.137 -11.818   5.262  1.00  0.00     0.256 C 
HETATM   11  O   UNL     1      39.093 -12.208   5.784  1.00  0.00    -0.267 OA
HETATM   12  C   UNL     1      42.629 -13.262   2.795  1.00  0.00     0.060 C 
HETATM   13  C   UNL     1      41.710 -14.463   2.563  1.00  0.00     0.088 C 
HETATM   14  C   UNL     1      40.323 -13.971   2.172  1.00  0.00     0.045 C 
HETATM   15  C   UNL     1      39.697 -13.125   3.270  1.00  0.00     0.129 C 
HETATM   16  C   UNL     1      41.826  -8.434   5.705  1.00  0.00     0.031 A 
HETATM   17  C   UNL     1      41.622  -8.246   7.076  1.00  0.00     0.014 A 
HETATM   18  H   UNL     1      41.877  -8.817   3.195  1.00  0.00     0.169 HD
ENDROOT
BRANCH  13  19
HETATM   19  N   UNL     1      41.659 -15.342   3.734  1.00  0.00    -0.356 N 
HETATM   20  C   UNL     1      42.614 -16.305   3.950  1.00  0.00     0.222 C 
HETATM   21  O   UNL     1      43.477 -16.607   3.134  1.00  0.00    -0.273 OA
HETATM   22  H   UNL     1      41.148 -14.987   4.538  1.00  0.00     0.162 HD
BRANCH  20  23
HETATM   23  C   UNL     1      42.449 -17.076   5.253  1.00  0.00     0.081 C 
HETATM   24  C   UNL     1      41.561 -16.307   6.246  1.00  0.00     0.041 C 
HETATM   25  C   UNL     1      42.237 -15.081   6.848  1.00  0.00     0.233 C 
HETATM   26  N   UNL     1      43.572 -15.461   7.396  1.00  0.00    -0.075 N 
HETATM   27  H   UNL     1      43.454 -16.080   8.208  1.00  0.00     0.277 HD
HETATM   28  H   UNL     1      44.025 -14.611   7.757  1.00  0.00     0.277 HD
HETATM   29  C   UNL     1      44.483 -16.094   6.397  1.00  0.00     0.233 C 
HETATM   30  C   UNL     1      43.830 -17.359   5.854  1.00  0.00     0.041 C 
ENDBRANCH  20  23
ENDBRANCH  13  19
BRANCH   1  31
HETATM   31  C   UNL     1      40.725  -9.011   9.289  1.00  0.00     0.008 A 
HETATM   32  C   UNL     1      41.656  -9.293  10.312  1.00  0.00     0.082 A 
HETATM   33  C   UNL     1      41.313  -9.050  11.650  1.00  0.00     0.074 A 
HETATM   34  C   UNL     1      40.067  -8.514  11.994  1.00  0.00     0.070 A 
HETATM   35  C   UNL     1      39.148  -8.227  10.992  1.00  0.00     0.038 A 
HETATM   36  C   UNL     1      39.475  -8.474   9.656  1.00  0.00     0.018 A 
BRANCH  32  37
HETATM   37  O   UNL     1      42.857  -9.832   9.918  1.00  0.00    -0.355 OA
HETATM   38  C   UNL     1      44.035  -9.110  10.263  1.00  0.00     0.210 C 
ENDBRANCH  32  37
BRANCH  34  39
HETATM   39  O   UNL     1      39.876  -8.327  13.336  1.00  0.00    -0.356 OA
HETATM   40  C   UNL     1      40.890  -8.817  14.206  1.00  0.00     0.210 C 
ENDBRANCH  34  39
ENDBRANCH   1  31
TORSDOF 5
ENDMDL
MODEL 7
REMARK VINA RESULT:      -8.2      6.998     11.938
REMARK  5 active torsions:
REMARK  status: ('A' for Active; 'I' for Inactive)
REMARK    1  A    between atoms: O_2  and  C_3 
REMARK    2  A    between atoms: C_5  and  O_6 
REMARK    3  A    between atoms: C_8  and  C_9 
REMARK    4  A    between atoms: C_21  and  N_22 
REMARK       I    between atoms: N_22  and  C_23 
REMARK    5  A    between atoms: C_23  and  C_24 
ROOT
HETATM    1  C   UNL     1      41.247  -6.900  17.646  1.00  0.00    -0.022 A 
HETATM    2  C   UNL     1      41.343  -7.515  16.389  1.00  0.00     0.031 A 
HETATM    3  C   UNL     1      40.644  -7.031  15.266  1.00  0.00     0.059 A 
HETATM    4  C   UNL     1      39.828  -5.894  15.396  1.00  0.00     0.050 A 
HETATM    5  N   UNL     1      39.060  -5.308  14.371  1.00  0.00    -0.324 N 
HETATM    6  C   UNL     1      39.298  -5.316  13.022  1.00  0.00     0.245 C 
HETATM    7  O   UNL     1      38.501  -4.770  12.260  1.00  0.00    -0.271 OA
HETATM    8  C   UNL     1      40.613  -5.945  12.556  1.00  0.00     0.181 C 
HETATM    9  N   UNL     1      40.519  -7.383  12.796  1.00  0.00    -0.334 N 
HETATM   10  C   UNL     1      40.656  -7.920  14.071  1.00  0.00     0.256 C 
HETATM   11  O   UNL     1      40.759  -9.135  14.241  1.00  0.00    -0.267 OA
HETATM   12  C   UNL     1      41.007  -5.568  11.117  1.00  0.00     0.060 C 
HETATM   13  C   UNL     1      41.146  -6.765  10.175  1.00  0.00     0.088 C 
HETATM   14  C   UNL     1      39.964  -7.703  10.370  1.00  0.00     0.045 C 
HETATM   15  C   UNL     1      39.907  -8.247  11.789  1.00  0.00     0.129 C 
HETATM   16  C   UNL     1      39.712  -5.289  16.655  1.00  0.00     0.031 A 
HETATM   17  C   UNL     1      40.419  -5.778  17.759  1.00  0.00     0.014 A 
HETATM   18  H   UNL     1      38.295  -4.694  14.634  1.00  0.00     0.169 HD
ENDROOT
BRANCH  13  19
HETATM   19  N   UNL     1      42.423  -7.459  10.364  1.00  0.00    -0.356 N 
HETATM   20  C   UNL     1      43.371  -7.500   9.372  1.00  0.00     0.222 C 
HETATM   21  O   UNL     1      43.180  -7.107   8.227  1.00  0.00    -0.273 OA
HETATM   22  H   UNL     1      42.732  -7.571  11.326  1.00  0.00     0.162 HD
BRANCH  20  23
HETATM   23  C   UNL     1      44.666  -8.198   9.766  1.00  0.00     0.081 C 
HETATM   24  C   UNL     1      45.423  -8.708   8.529  1.00  0.00     0.041 C 
HETATM   25  C   UNL     1      44.766  -9.912   7.862  1.00  0.00     0.233 C 
HETATM   26  N   UNL     1      44.495 -10.965   8.884  1.00  0.00    -0.075 N 
HETATM   27  H   UNL     1      45.381 -11.351   9.233  1.00  0.00     0.277 HD
HETATM   28  H   UNL     1      44.015 -11.747   8.418  1.00  0.00     0.277 HD
HETATM   29  C   UNL     1      43.651 -10.504  10.026  1.00  0.00     0.233 C 
HETATM   30  C   UNL     1      44.350  -9.348  10.730  1.00  0.00     0.041 C 
ENDBRANCH  20  23
ENDBRANCH  13  19
BRANCH   1  31
HETATM   31  C   UNL     1      41.935  -7.467  18.824  1.00  0.00     0.008 A 
HETATM   32  C   UNL     1      41.397  -8.520  19.596  1.00  0.00     0.082 A 
HETATM   33  C   UNL     1      42.111  -9.010  20.698  1.00  0.00     0.074 A 
HETATM   34  C   UNL     1      43.363  -8.487  21.043  1.00  0.00     0.070 A 
HETATM   35  C   UNL     1      43.903  -7.456  20.283  1.00  0.00     0.038 A 
HETATM   36  C   UNL     1      43.196  -6.953  19.188  1.00  0.00     0.018 A 
BRANCH  32  37
HETATM   37  O   UNL     1      40.158  -8.983  19.222  1.00  0.00    -0.355 OA
HETATM   38  C   UNL     1      39.059  -8.640  20.060  1.00  0.00     0.210 C 
ENDBRANCH  32  37
BRANCH  34  39
HETATM   39  O   UNL     1      43.943  -9.066  22.138  1.00  0.00    -0.356 OA
HETATM   40  C   UNL     1      43.899 -10.487  22.214  1.00  0.00     0.210 C 
ENDBRANCH  34  39
ENDBRANCH   1  31
TORSDOF 5
ENDMDL
MODEL 8
REMARK VINA RESULT:      -8.2      2.926      8.742
REMARK  5 active torsions:
REMARK  status: ('A' for Active; 'I' for Inactive)
REMARK    1  A    between atoms: O_2  and  C_3 
REMARK    2  A    between atoms: C_5  and  O_6 
REMARK    3  A    between atoms: C_8  and  C_9 
REMARK    4  A    between atoms: C_21  and  N_22 
REMARK       I    between atoms: N_22  and  C_23 
REMARK    5  A    between atoms: C_23  and  C_24 
ROOT
HETATM    1  C   UNL     1      41.365 -14.316   3.868  1.00  0.00    -0.022 A 
HETATM    2  C   UNL     1      41.960 -13.112   4.276  1.00  0.00     0.031 A 
HETATM    3  C   UNL     1      41.215 -11.926   4.430  1.00  0.00     0.059 A 
HETATM    4  C   UNL     1      39.832 -11.939   4.176  1.00  0.00     0.050 A 
HETATM    5  N   UNL     1      38.966 -10.833   4.271  1.00  0.00    -0.324 N 
HETATM    6  C   UNL     1      39.082  -9.731   5.077  1.00  0.00     0.245 C 
HETATM    7  O   UNL     1      38.238  -8.838   5.013  1.00  0.00    -0.271 OA
HETATM    8  C   UNL     1      40.235  -9.729   6.083  1.00  0.00     0.181 C 
HETATM    9  N   UNL     1      41.477  -9.610   5.326  1.00  0.00    -0.334 N 
HETATM   10  C   UNL     1      42.017 -10.688   4.634  1.00  0.00     0.256 C 
HETATM   11  O   UNL     1      43.149 -10.632   4.153  1.00  0.00    -0.267 OA
HETATM   12  C   UNL     1      40.076  -8.690   7.208  1.00  0.00     0.060 C 
HETATM   13  C   UNL     1      41.210  -7.666   7.274  1.00  0.00     0.088 C 
HETATM   14  C   UNL     1      41.519  -7.161   5.872  1.00  0.00     0.045 C 
HETATM   15  C   UNL     1      41.977  -8.286   4.958  1.00  0.00     0.129 C 
HETATM   16  C   UNL     1      39.238 -13.135   3.748  1.00  0.00     0.031 A 
HETATM   17  C   UNL     1      39.991 -14.306   3.606  1.00  0.00     0.014 A 
HETATM   18  H   UNL     1      38.074 -10.878   3.789  1.00  0.00     0.169 HD
ENDROOT
BRANCH  13  19
HETATM   19  N   UNL     1      42.402  -8.216   7.923  1.00  0.00    -0.356 N 
HETATM   20  C   UNL     1      43.076  -7.519   8.896  1.00  0.00     0.222 C 
HETATM   21  O   UNL     1      42.840  -6.353   9.189  1.00  0.00    -0.273 OA
HETATM   22  H   UNL     1      42.488  -9.229   7.914  1.00  0.00     0.162 HD
BRANCH  20  23
HETATM   23  C   UNL     1      44.246  -8.272   9.514  1.00  0.00     0.081 C 
HETATM   24  C   UNL     1      44.643  -9.485   8.657  1.00  0.00     0.041 C 
HETATM   25  C   UNL     1      43.640 -10.632   8.718  1.00  0.00     0.233 C 
HETATM   26  N   UNL     1      43.344 -10.965  10.142  1.00  0.00    -0.075 N 
HETATM   27  H   UNL     1      44.179 -11.367  10.588  1.00  0.00     0.277 HD
HETATM   28  H   UNL     1      42.635 -11.711  10.156  1.00  0.00     0.277 HD
HETATM   29  C   UNL     1      42.837  -9.814  10.945  1.00  0.00     0.233 C 
HETATM   30  C   UNL     1      43.877  -8.702  10.939  1.00  0.00     0.041 C 
ENDBRANCH  20  23
ENDBRANCH  13  19
BRANCH   1  31
HETATM   31  C   UNL     1      42.179 -15.529   3.647  1.00  0.00     0.008 A 
HETATM   32  C   UNL     1      42.894 -16.173   4.679  1.00  0.00     0.082 A 
HETATM   33  C   UNL     1      43.641 -17.324   4.394  1.00  0.00     0.074 A 
HETATM   34  C   UNL     1      43.679 -17.864   3.104  1.00  0.00     0.070 A 
HETATM   35  C   UNL     1      42.972 -17.240   2.083  1.00  0.00     0.038 A 
HETATM   36  C   UNL     1      42.231 -16.086   2.353  1.00  0.00     0.018 A 
BRANCH  32  37
HETATM   37  O   UNL     1      42.834 -15.591   5.923  1.00  0.00    -0.355 OA
HETATM   38  C   UNL     1      42.270 -16.367   6.975  1.00  0.00     0.210 C 
ENDBRANCH  32  37
BRANCH  34  39
HETATM   39  O   UNL     1      44.445 -18.991   2.977  1.00  0.00    -0.356 OA
HETATM   40  C   UNL     1      43.853 -20.100   2.312  1.00  0.00     0.210 C 
ENDBRANCH  34  39
ENDBRANCH   1  31
TORSDOF 5
ENDMDL
MODEL 9
REMARK VINA RESULT:      -8.1      3.941      9.697
REMARK  5 active torsions:
REMARK  status: ('A' for Active; 'I' for Inactive)
REMARK    1  A    between atoms: O_2  and  C_3 
REMARK    2  A    between atoms: C_5  and  O_6 
REMARK    3  A    between atoms: C_8  and  C_9 
REMARK    4  A    between atoms: C_21  and  N_22 
REMARK       I    between atoms: N_22  and  C_23 
REMARK    5  A    between atoms: C_23  and  C_24 
ROOT
HETATM    1  C   UNL     1      40.386 -11.605   5.864  1.00  0.00    -0.022 A 
HETATM    2  C   UNL     1      41.147 -10.673   6.586  1.00  0.00     0.031 A 
HETATM    3  C   UNL     1      40.665  -9.382   6.879  1.00  0.00     0.059 A 
HETATM    4  C   UNL     1      39.381  -9.009   6.446  1.00  0.00     0.050 A 
HETATM    5  N   UNL     1      38.775  -7.754   6.649  1.00  0.00    -0.324 N 
HETATM    6  C   UNL     1      38.984  -6.865   7.672  1.00  0.00     0.245 C 
HETATM    7  O   UNL     1      38.380  -5.793   7.679  1.00  0.00    -0.271 OA
HETATM    8  C   UNL     1      39.911  -7.319   8.801  1.00  0.00     0.181 C 
HETATM    9  N   UNL     1      41.264  -7.387   8.257  1.00  0.00    -0.334 N 
HETATM   10  C   UNL     1      41.669  -8.434   7.438  1.00  0.00     0.256 C 
HETATM   11  O   UNL     1      42.852  -8.583   7.134  1.00  0.00    -0.267 OA
HETATM   12  C   UNL     1      39.785  -6.477  10.083  1.00  0.00     0.060 C 
HETATM   13  C   UNL     1      41.085  -5.792  10.509  1.00  0.00     0.088 C 
HETATM   14  C   UNL     1      41.742  -5.153   9.294  1.00  0.00     0.045 C 
HETATM   15  C   UNL     1      42.098  -6.187   8.238  1.00  0.00     0.129 C 
HETATM   16  C   UNL     1      38.625  -9.929   5.706  1.00  0.00     0.031 A 
HETATM   17  C   UNL     1      39.116 -11.210   5.429  1.00  0.00     0.014 A 
HETATM   18  H   UNL     1      37.995  -7.494   6.053  1.00  0.00     0.169 HD
ENDROOT
BRANCH  13  19
HETATM   19  N   UNL     1      41.993  -6.723  11.184  1.00  0.00    -0.356 N 
HETATM   20  C   UNL     1      41.976  -6.879  12.549  1.00  0.00     0.222 C 
HETATM   21  O   UNL     1      41.330  -6.168  13.310  1.00  0.00    -0.273 OA
HETATM   22  H   UNL     1      42.347  -7.491  10.620  1.00  0.00     0.162 HD
BRANCH  20  23
HETATM   23  C   UNL     1      42.933  -7.941  13.074  1.00  0.00     0.081 C 
HETATM   24  C   UNL     1      43.518  -8.780  11.926  1.00  0.00     0.041 C 
HETATM   25  C   UNL     1      42.514  -9.739  11.295  1.00  0.00     0.233 C 
HETATM   26  N   UNL     1      41.853 -10.546  12.362  1.00  0.00    -0.075 N 
HETATM   27  H   UNL     1      42.537 -11.181  12.794  1.00  0.00     0.277 HD
HETATM   28  H   UNL     1      41.152 -11.154  11.916  1.00  0.00     0.277 HD
HETATM   29  C   UNL     1      41.174  -9.731  13.412  1.00  0.00     0.233 C 
HETATM   30  C   UNL     1      42.199  -8.829  14.086  1.00  0.00     0.041 C 
ENDBRANCH  20  23
ENDBRANCH  13  19
BRANCH   1  31
HETATM   31  C   UNL     1      40.941 -12.928   5.510  1.00  0.00     0.008 A 
HETATM   32  C   UNL     1      41.860 -13.118   4.456  1.00  0.00     0.082 A 
HETATM   33  C   UNL     1      42.347 -14.404   4.181  1.00  0.00     0.074 A 
HETATM   34  C   UNL     1      41.953 -15.508   4.945  1.00  0.00     0.070 A 
HETATM   35  C   UNL     1      41.054 -15.328   5.990  1.00  0.00     0.038 A 
HETATM   36  C   UNL     1      40.554 -14.052   6.266  1.00  0.00     0.018 A 
BRANCH  32  37
HETATM   37  O   UNL     1      42.200 -12.002   3.729  1.00  0.00    -0.355 OA
HETATM   38  C   UNL     1      43.563 -11.593   3.770  1.00  0.00     0.210 C 
ENDBRANCH  32  37
BRANCH  34  39
HETATM   39  O   UNL     1      42.513 -16.696   4.565  1.00  0.00    -0.356 OA
HETATM   40  C   UNL     1      42.507 -16.995   3.173  1.00  0.00     0.210 C 
ENDBRANCH  34  39
ENDBRANCH   1  31
TORSDOF 5
ENDMDL
MODEL 10
REMARK VINA RESULT:      -7.9      2.627      4.157
REMARK  5 active torsions:
REMARK  status: ('A' for Active; 'I' for Inactive)
REMARK    1  A    between atoms: O_2  and  C_3 
REMARK    2  A    between atoms: C_5  and  O_6 
REMARK    3  A    between atoms: C_8  and  C_9 
REMARK    4  A    between atoms: C_21  and  N_22 
REMARK       I    between atoms: N_22  and  C_23 
REMARK    5  A    between atoms: C_23  and  C_24 
ROOT
HETATM    1  C   UNL     1      41.764  -8.264   8.770  1.00  0.00    -0.022 A 
HETATM    2  C   UNL     1      41.203  -9.450   8.272  1.00  0.00     0.031 A 
HETATM    3  C   UNL     1      41.036  -9.674   6.891  1.00  0.00     0.059 A 
HETATM    4  C   UNL     1      41.447  -8.690   5.975  1.00  0.00     0.050 A 
HETATM    5  N   UNL     1      41.329  -8.766   4.574  1.00  0.00    -0.324 N 
HETATM    6  C   UNL     1      41.321  -9.885   3.782  1.00  0.00     0.245 C 
HETATM    7  O   UNL     1      41.183  -9.768   2.565  1.00  0.00    -0.271 OA
HETATM    8  C   UNL     1      41.577 -11.224   4.477  1.00  0.00     0.181 C 
HETATM    9  N   UNL     1      40.416 -11.510   5.316  1.00  0.00    -0.334 N 
HETATM   10  C   UNL     1      40.215 -10.863   6.529  1.00  0.00     0.256 C 
HETATM   11  O   UNL     1      39.341 -11.236   7.311  1.00  0.00    -0.267 OA
HETATM   12  C   UNL     1      41.957 -12.361   3.512  1.00  0.00     0.060 C 
HETATM   13  C   UNL     1      40.999 -13.553   3.546  1.00  0.00     0.088 C 
HETATM   14  C   UNL     1      39.563 -13.049   3.527  1.00  0.00     0.045 C 
HETATM   15  C   UNL     1      39.255 -12.186   4.739  1.00  0.00     0.129 C 
HETATM   16  C   UNL     1      41.989  -7.495   6.469  1.00  0.00     0.031 A 
HETATM   17  C   UNL     1      42.155  -7.291   7.844  1.00  0.00     0.014 A 
HETATM   18  H   UNL     1      41.375  -7.904   4.040  1.00  0.00     0.169 HD
ENDROOT
BRANCH  13  19
HETATM   19  N   UNL     1      41.251 -14.420   4.700  1.00  0.00    -0.356 N 
HETATM   20  C   UNL     1      41.380 -15.780   4.561  1.00  0.00     0.222 C 
HETATM   21  O   UNL     1      41.152 -16.386   3.520  1.00  0.00    -0.273 OA
HETATM   22  H   UNL     1      41.689 -13.978   5.503  1.00  0.00     0.162 HD
BRANCH  20  23
HETATM   23  C   UNL     1      41.714 -16.517   5.851  1.00  0.00     0.081 C 
HETATM   24  C   UNL     1      42.103 -15.535   6.968  1.00  0.00     0.041 C 
HETATM   25  C   UNL     1      43.472 -14.893   6.769  1.00  0.00     0.233 C 
HETATM   26  N   UNL     1      44.490 -15.952   6.510  1.00  0.00    -0.075 N 
HETATM   27  H   UNL     1      44.625 -16.523   7.355  1.00  0.00     0.277 HD
HETATM   28  H   UNL     1      45.394 -15.492   6.337  1.00  0.00     0.277 HD
HETATM   29  C   UNL     1      44.175 -16.829   5.343  1.00  0.00     0.233 C 
HETATM   30  C   UNL     1      42.840 -17.522   5.585  1.00  0.00     0.041 C 
ENDBRANCH  20  23
ENDBRANCH  13  19
BRANCH   1  31
HETATM   31  C   UNL     1      41.865  -8.024  10.224  1.00  0.00     0.008 A 
HETATM   32  C   UNL     1      40.848  -7.390  10.970  1.00  0.00     0.082 A 
HETATM   33  C   UNL     1      41.013  -7.200  12.350  1.00  0.00     0.074 A 
HETATM   34  C   UNL     1      42.163  -7.644  13.011  1.00  0.00     0.070 A 
HETATM   35  C   UNL     1      43.166  -8.276  12.285  1.00  0.00     0.038 A 
HETATM   36  C   UNL     1      43.017  -8.462  10.907  1.00  0.00     0.018 A 
BRANCH  32  37
HETATM   37  O   UNL     1      39.748  -6.960  10.267  1.00  0.00    -0.355 OA
HETATM   38  C   UNL     1      38.532  -7.674  10.468  1.00  0.00     0.210 C 
ENDBRANCH  32  37
BRANCH  34  39
HETATM   39  O   UNL     1      42.182  -7.395  14.356  1.00  0.00    -0.356 OA
HETATM   40  C   UNL     1      41.516  -8.331  15.194  1.00  0.00     0.210 C 
ENDBRANCH  34  39
ENDBRANCH   1  31
TORSDOF 5
ENDMDL
