MODEL 1
REMARK VINA RESULT:      -8.6      0.000      0.000
REMARK  7 active torsions:
REMARK  status: ('A' for Active; 'I' for Inactive)
REMARK    1  A    between atoms: C_2  and  O_3 
REMARK    2  A    between atoms: O_3  and  C_4 
REMARK    3  A    between atoms: C_4  and  C_5 
REMARK    4  A    between atoms: C_6  and  N_7 
REMARK    5  A    between atoms: N_7  and  C_8 
REMARK    6  A    between atoms: C_9  and  C_10 
REMARK    7  A    between atoms: C_13  and  C_14 
ROOT
HETATM    1  C   UNL     1      42.196 -14.129   2.276  1.00  0.00     0.114 C 
HETATM    2  C   UNL     1      41.353 -13.136   2.627  1.00  0.00     0.095 C 
HETATM    3  C   UNL     1      40.368 -12.711   1.686  1.00  0.00     0.103 C 
HETATM    4  N   UNL     1      39.598 -12.386   0.880  1.00  0.00    -0.191 NA
ENDROOT
BRANCH   2   5
HETATM    5  C   UNL     1      41.426 -12.456   3.884  1.00  0.00     0.120 A 
HETATM    6  S   UNL     1      40.037 -12.354   4.931  1.00  0.00    -0.078 SA
HETATM    7  C   UNL     1      40.977 -11.582   6.128  1.00  0.00     0.084 A 
HETATM    8  C   UNL     1      42.286 -11.472   5.708  1.00  0.00     0.075 A 
HETATM    9  N   UNL     1      42.525 -11.962   4.432  1.00  0.00    -0.239 NA
BRANCH   8  10
HETATM   10  C   UNL     1      43.360 -10.888   6.507  1.00  0.00    -0.007 A 
HETATM   11  C   UNL     1      43.119  -9.859   7.432  1.00  0.00     0.017 A 
HETATM   12  C   UNL     1      44.169  -9.321   8.184  1.00  0.00     0.043 A 
HETATM   13  C   UNL     1      45.456  -9.815   8.017  1.00  0.00     0.116 A 
HETATM   14  F   UNL     1      46.459  -9.298   8.738  1.00  0.00    -0.206 F 
HETATM   15  C   UNL     1      45.717 -10.839   7.115  1.00  0.00     0.043 A 
HETATM   16  C   UNL     1      44.669 -11.377   6.364  1.00  0.00     0.017 A 
ENDBRANCH   8  10
ENDBRANCH   2   5
BRANCH   1  17
HETATM   17  N   UNL     1      43.186 -14.776   2.989  1.00  0.00    -0.358 N 
HETATM   18  H   UNL     1      44.057 -14.238   3.063  1.00  0.00     0.166 HD
BRANCH  17  19
HETATM   19  C   UNL     1      43.312 -16.123   3.217  1.00  0.00     0.091 A 
HETATM   20  C   UNL     1      43.541 -16.719   4.458  1.00  0.00     0.080 A 
HETATM   21  C   UNL     1      43.711 -18.155   4.336  1.00  0.00    -0.026 A 
HETATM   22  C   UNL     1      43.562 -18.574   3.029  1.00  0.00    -0.008 A 
HETATM   23  C   UNL     1      44.005 -19.139   5.437  1.00  0.00     0.041 C 
HETATM   24  S   UNL     1      43.221 -17.302   1.967  1.00  0.00    -0.075 SA
HETATM   25  C   UNL     1      43.715 -19.982   2.540  1.00  0.00     0.047 C 
HETATM   26  C   UNL     1      43.652 -20.970   3.712  1.00  0.00     0.005 C 
HETATM   27  C   UNL     1      44.499 -20.490   4.896  1.00  0.00     0.005 C 
BRANCH  20  28
HETATM   28  C   UNL     1      43.594 -15.920   5.689  1.00  0.00     0.296 C 
HETATM   29  O   UNL     1      44.531 -15.969   6.480  1.00  0.00    -0.259 OA
BRANCH  28  30
HETATM   30  O   UNL     1      42.513 -15.102   5.840  1.00  0.00    -0.318 OA
BRANCH  30  31
HETATM   31  C   UNL     1      41.526 -15.517   6.795  1.00  0.00     0.174 C 
HETATM   32  C   UNL     1      40.325 -16.090   6.070  1.00  0.00     0.034 C 
ENDBRANCH  30  31
ENDBRANCH  28  30
ENDBRANCH  20  28
ENDBRANCH  17  19
ENDBRANCH   1  17
TORSDOF 7
ENDMDL
MODEL 2
REMARK VINA RESULT:      -8.5      3.669      7.478
REMARK  7 active torsions:
REMARK  status: ('A' for Active; 'I' for Inactive)
REMARK    1  A    between atoms: C_2  and  O_3 
REMARK    2  A    between atoms: O_3  and  C_4 
REMARK    3  A    between atoms: C_4  and  C_5 
REMARK    4  A    between atoms: C_6  and  N_7 
REMARK    5  A    between atoms: N_7  and  C_8 
REMARK    6  A    between atoms: C_9  and  C_10 
REMARK    7  A    between atoms: C_13  and  C_14 
ROOT
HETATM    1  C   UNL     1      41.904 -12.821   5.745  1.00  0.00     0.114 C 
HETATM    2  C   UNL     1      42.952 -13.416   6.351  1.00  0.00     0.095 C 
HETATM    3  C   UNL     1      43.928 -12.595   6.992  1.00  0.00     0.103 C 
HETATM    4  N   UNL     1      44.706 -11.885   7.481  1.00  0.00    -0.191 NA
ENDROOT
BRANCH   2   5
HETATM    5  C   UNL     1      43.157 -14.833   6.348  1.00  0.00     0.120 A 
HETATM    6  S   UNL     1      43.074 -15.754   7.823  1.00  0.00    -0.078 SA
HETATM    7  C   UNL     1      43.276 -17.205   6.946  1.00  0.00     0.084 A 
HETATM    8  C   UNL     1      43.356 -16.938   5.596  1.00  0.00     0.075 A 
HETATM    9  N   UNL     1      43.296 -15.589   5.271  1.00  0.00    -0.239 NA
BRANCH   8  10
HETATM   10  C   UNL     1      43.500 -17.958   4.562  1.00  0.00    -0.007 A 
HETATM   11  C   UNL     1      43.974 -19.248   4.855  1.00  0.00     0.017 A 
HETATM   12  C   UNL     1      44.098 -20.205   3.843  1.00  0.00     0.043 A 
HETATM   13  C   UNL     1      43.743 -19.877   2.541  1.00  0.00     0.116 A 
HETATM   14  F   UNL     1      43.863 -20.796   1.574  1.00  0.00    -0.206 F 
HETATM   15  C   UNL     1      43.263 -18.612   2.229  1.00  0.00     0.043 A 
HETATM   16  C   UNL     1      43.138 -17.655   3.239  1.00  0.00     0.017 A 
ENDBRANCH   8  10
ENDBRANCH   2   5
BRANCH   1  17
HETATM   17  N   UNL     1      40.797 -13.352   5.113  1.00  0.00    -0.358 N 
HETATM   18  H   UNL     1      40.286 -14.035   5.684  1.00  0.00     0.166 HD
BRANCH  17  19
HETATM   19  C   UNL     1      40.554 -13.422   3.765  1.00  0.00     0.091 A 
HETATM   20  C   UNL     1      40.127 -12.364   2.960  1.00  0.00     0.080 A 
HETATM   21  C   UNL     1      39.879 -12.798   1.598  1.00  0.00    -0.026 A 
HETATM   22  C   UNL     1      40.169 -14.138   1.432  1.00  0.00    -0.008 A 
HETATM   23  C   UNL     1      39.381 -11.964   0.447  1.00  0.00     0.041 C 
HETATM   24  S   UNL     1      40.728 -14.869   2.851  1.00  0.00    -0.075 SA
HETATM   25  C   UNL     1      39.988 -14.921   0.166  1.00  0.00     0.047 C 
HETATM   26  C   UNL     1      39.832 -13.978  -1.034  1.00  0.00     0.005 C 
HETATM   27  C   UNL     1      38.873 -12.824  -0.720  1.00  0.00     0.005 C 
BRANCH  20  28
HETATM   28  C   UNL     1      39.968 -11.009   3.503  1.00  0.00     0.296 C 
HETATM   29  O   UNL     1      40.691 -10.071   3.183  1.00  0.00    -0.259 OA
BRANCH  28  30
HETATM   30  O   UNL     1      38.918 -10.901   4.367  1.00  0.00    -0.318 OA
BRANCH  30  31
HETATM   31  C   UNL     1      39.092 -10.003   5.472  1.00  0.00     0.174 C 
HETATM   32  C   UNL     1      38.927 -10.762   6.775  1.00  0.00     0.034 C 
ENDBRANCH  30  31
ENDBRANCH  28  30
ENDBRANCH  20  28
ENDBRANCH  17  19
ENDBRANCH   1  17
TORSDOF 7
ENDMDL
MODEL 3
REMARK VINA RESULT:      -8.4      4.254      7.759
REMARK  7 active torsions:
REMARK  status: ('A' for Active; 'I' for Inactive)
REMARK    1  A    between atoms: C_2  and  O_3 
REMARK    2  A    between atoms: O_3  and  C_4 
REMARK    3  A    between atoms: C_4  and  C_5 
REMARK    4  A    between atoms: C_6  and  N_7 
REMARK    5  A    between atoms: N_7  and  C_8 
REMARK    6  A    between atoms: C_9  and  C_10 
REMARK    7  A    between atoms: C_13  and  C_14 
ROOT
HETATM    1  C   UNL     1      40.662 -12.408   3.381  1.00  0.00     0.114 C 
HETATM    2  C   UNL     1      40.811 -13.012   4.577  1.00  0.00     0.095 C 
HETATM    3  C   UNL     1      39.982 -12.594   5.662  1.00  0.00     0.103 C 
HETATM    4  N   UNL     1      39.301 -12.206   6.518  1.00  0.00    -0.191 NA
ENDROOT
BRANCH   2   5
HETATM    5  C   UNL     1      41.791 -14.026   4.826  1.00  0.00     0.120 A 
HETATM    6  S   UNL     1      42.811 -13.960   6.236  1.00  0.00    -0.078 SA
HETATM    7  C   UNL     1      43.490 -15.474   5.833  1.00  0.00     0.084 A 
HETATM    8  C   UNL     1      42.899 -15.972   4.691  1.00  0.00     0.075 A 
HETATM    9  N   UNL     1      41.944 -15.138   4.126  1.00  0.00    -0.239 NA
BRANCH   8  10
HETATM   10  C   UNL     1      43.226 -17.262   4.091  1.00  0.00    -0.007 A 
HETATM   11  C   UNL     1      43.914 -18.258   4.805  1.00  0.00     0.017 A 
HETATM   12  C   UNL     1      44.211 -19.485   4.203  1.00  0.00     0.043 A 
HETATM   13  C   UNL     1      43.815 -19.721   2.893  1.00  0.00     0.116 A 
HETATM   14  F   UNL     1      44.101 -20.897   2.320  1.00  0.00    -0.206 F 
HETATM   15  C   UNL     1      43.126 -18.755   2.171  1.00  0.00     0.043 A 
HETATM   16  C   UNL     1      42.827 -17.530   2.771  1.00  0.00     0.017 A 
ENDBRANCH   8  10
ENDBRANCH   2   5
BRANCH   1  17
HETATM   17  N   UNL     1      41.267 -12.642   2.162  1.00  0.00    -0.358 N 
HETATM   18  H   UNL     1      42.173 -12.170   2.055  1.00  0.00     0.166 HD
BRANCH  17  19
HETATM   19  C   UNL     1      40.669 -13.028   0.989  1.00  0.00     0.091 A 
HETATM   20  C   UNL     1      40.111 -12.168   0.041  1.00  0.00     0.080 A 
HETATM   21  C   UNL     1      39.481 -12.905  -1.039  1.00  0.00    -0.026 A 
HETATM   22  C   UNL     1      39.631 -14.268  -0.878  1.00  0.00    -0.008 A 
HETATM   23  C   UNL     1      38.747 -12.340  -2.227  1.00  0.00     0.041 C 
HETATM   24  S   UNL     1      40.501 -14.672   0.514  1.00  0.00    -0.075 SA
HETATM   25  C   UNL     1      39.069 -15.321  -1.785  1.00  0.00     0.047 C 
HETATM   26  C   UNL     1      38.659 -14.712  -3.132  1.00  0.00     0.005 C 
HETATM   27  C   UNL     1      37.893 -13.397  -2.942  1.00  0.00     0.005 C 
BRANCH  20  28
HETATM   28  C   UNL     1      40.189 -10.710   0.194  1.00  0.00     0.296 C 
HETATM   29  O   UNL     1      41.251 -10.097   0.243  1.00  0.00    -0.259 OA
BRANCH  28  30
HETATM   30  O   UNL     1      38.963 -10.113   0.241  1.00  0.00    -0.318 OA
BRANCH  30  31
HETATM   31  C   UNL     1      38.157 -10.399   1.393  1.00  0.00     0.174 C 
HETATM   32  C   UNL     1      36.769 -10.821   0.951  1.00  0.00     0.034 C 
ENDBRANCH  30  31
ENDBRANCH  28  30
ENDBRANCH  20  28
ENDBRANCH  17  19
ENDBRANCH   1  17
TORSDOF 7
ENDMDL
MODEL 4
REMARK VINA RESULT:      -8.3      4.209      7.940
REMARK  7 active torsions:
REMARK  status: ('A' for Active; 'I' for Inactive)
REMARK    1  A    between atoms: C_2  and  O_3 
REMARK    2  A    between atoms: O_3  and  C_4 
REMARK    3  A    between atoms: C_4  and  C_5 
REMARK    4  A    between atoms: C_6  and  N_7 
REMARK    5  A    between atoms: N_7  and  C_8 
REMARK    6  A    between atoms: C_9  and  C_10 
REMARK    7  A    between atoms: C_13  and  C_14 
ROOT
HETATM    1  C   UNL     1      40.930 -11.941   3.707  1.00  0.00     0.114 C 
HETATM    2  C   UNL     1      40.975 -12.685   4.832  1.00  0.00     0.095 C 
HETATM    3  C   UNL     1      40.077 -12.368   5.896  1.00  0.00     0.103 C 
HETATM    4  N   UNL     1      39.343 -12.060   6.741  1.00  0.00    -0.191 NA
ENDROOT
BRANCH   2   5
HETATM    5  C   UNL     1      41.909 -13.751   5.030  1.00  0.00     0.120 A 
HETATM    6  S   UNL     1      42.913 -13.811   6.451  1.00  0.00    -0.078 SA
HETATM    7  C   UNL     1      43.535 -15.325   5.966  1.00  0.00     0.084 A 
HETATM    8  C   UNL     1      42.939 -15.730   4.791  1.00  0.00     0.075 A 
HETATM    9  N   UNL     1      42.026 -14.825   4.266  1.00  0.00    -0.239 NA
BRANCH   8  10
HETATM   10  C   UNL     1      43.221 -16.994   4.118  1.00  0.00    -0.007 A 
HETATM   11  C   UNL     1      42.733 -17.274   2.831  1.00  0.00     0.017 A 
HETATM   12  C   UNL     1      43.022 -18.494   2.211  1.00  0.00     0.043 A 
HETATM   13  C   UNL     1      43.803 -19.432   2.874  1.00  0.00     0.116 A 
HETATM   14  F   UNL     1      44.077 -20.599   2.279  1.00  0.00    -0.206 F 
HETATM   15  C   UNL     1      44.304 -19.175   4.144  1.00  0.00     0.043 A 
HETATM   16  C   UNL     1      44.017 -17.956   4.763  1.00  0.00     0.017 A 
ENDBRANCH   8  10
ENDBRANCH   2   5
BRANCH   1  17
HETATM   17  N   UNL     1      41.620 -12.053   2.516  1.00  0.00    -0.358 N 
HETATM   18  H   UNL     1      42.481 -11.495   2.486  1.00  0.00     0.166 HD
BRANCH  17  19
HETATM   19  C   UNL     1      41.125 -12.427   1.292  1.00  0.00     0.091 A 
HETATM   20  C   UNL     1      40.927 -11.578   0.202  1.00  0.00     0.080 A 
HETATM   21  C   UNL     1      40.307 -12.274  -0.909  1.00  0.00    -0.026 A 
HETATM   22  C   UNL     1      40.107 -13.610  -0.623  1.00  0.00    -0.008 A 
HETATM   23  C   UNL     1      39.906 -11.699  -2.242  1.00  0.00     0.041 C 
HETATM   24  S   UNL     1      40.647 -14.037   0.923  1.00  0.00    -0.075 SA
HETATM   25  C   UNL     1      39.453 -14.610  -1.528  1.00  0.00     0.047 C 
HETATM   26  C   UNL     1      39.397 -14.080  -2.966  1.00  0.00     0.005 C 
HETATM   27  C   UNL     1      38.941 -12.617  -3.008  1.00  0.00     0.005 C 
BRANCH  20  28
HETATM   28  C   UNL     1      41.322 -10.164   0.255  1.00  0.00     0.296 C 
HETATM   29  O   UNL     1      40.843  -9.365   1.053  1.00  0.00    -0.259 OA
BRANCH  28  30
HETATM   30  O   UNL     1      42.293  -9.848  -0.650  1.00  0.00    -0.318 OA
BRANCH  30  31
HETATM   31  C   UNL     1      42.014  -8.748  -1.528  1.00  0.00     0.174 C 
HETATM   32  C   UNL     1      43.172  -7.770  -1.502  1.00  0.00     0.034 C 
ENDBRANCH  30  31
ENDBRANCH  28  30
ENDBRANCH  20  28
ENDBRANCH  17  19
ENDBRANCH   1  17
TORSDOF 7
ENDMDL
MODEL 5
REMARK VINA RESULT:      -8.3      3.448      7.947
REMARK  7 active torsions:
REMARK  status: ('A' for Active; 'I' for Inactive)
REMARK    1  A    between atoms: C_2  and  O_3 
REMARK    2  A    between atoms: O_3  and  C_4 
REMARK    3  A    between atoms: C_4  and  C_5 
REMARK    4  A    between atoms: C_6  and  N_7 
REMARK    5  A    between atoms: N_7  and  C_8 
REMARK    6  A    between atoms: C_9  and  C_10 
REMARK    7  A    between atoms: C_13  and  C_14 
ROOT
HETATM    1  C   UNL     1      41.926 -12.723   5.877  1.00  0.00     0.114 C 
HETATM    2  C   UNL     1      42.963 -13.334   6.488  1.00  0.00     0.095 C 
HETATM    3  C   UNL     1      43.930 -12.529   7.162  1.00  0.00     0.103 C 
HETATM    4  N   UNL     1      44.701 -11.831   7.678  1.00  0.00    -0.191 NA
ENDROOT
BRANCH   2   5
HETATM    5  C   UNL     1      43.165 -14.751   6.457  1.00  0.00     0.120 A 
HETATM    6  S   UNL     1      43.093 -15.698   7.917  1.00  0.00    -0.078 SA
HETATM    7  C   UNL     1      43.285 -17.133   7.012  1.00  0.00     0.084 A 
HETATM    8  C   UNL     1      43.354 -16.842   5.666  1.00  0.00     0.075 A 
HETATM    9  N   UNL     1      43.294 -15.488   5.366  1.00  0.00    -0.239 NA
BRANCH   8  10
HETATM   10  C   UNL     1      43.486 -17.844   4.613  1.00  0.00    -0.007 A 
HETATM   11  C   UNL     1      43.955 -19.142   4.880  1.00  0.00     0.017 A 
HETATM   12  C   UNL     1      44.068 -20.081   3.850  1.00  0.00     0.043 A 
HETATM   13  C   UNL     1      43.708 -19.727   2.556  1.00  0.00     0.116 A 
HETATM   14  F   UNL     1      43.818 -20.629   1.572  1.00  0.00    -0.206 F 
HETATM   15  C   UNL     1      43.234 -18.454   2.270  1.00  0.00     0.043 A 
HETATM   16  C   UNL     1      43.119 -17.515   3.298  1.00  0.00     0.017 A 
ENDBRANCH   8  10
ENDBRANCH   2   5
BRANCH   1  17
HETATM   17  N   UNL     1      40.829 -13.238   5.216  1.00  0.00    -0.358 N 
HETATM   18  H   UNL     1      40.792 -14.264   5.217  1.00  0.00     0.166 HD
BRANCH  17  19
HETATM   19  C   UNL     1      40.071 -12.629   4.249  1.00  0.00     0.091 A 
HETATM   20  C   UNL     1      39.778 -13.161   2.991  1.00  0.00     0.080 A 
HETATM   21  C   UNL     1      39.028 -12.222   2.178  1.00  0.00    -0.026 A 
HETATM   22  C   UNL     1      38.757 -11.057   2.867  1.00  0.00    -0.008 A 
HETATM   23  C   UNL     1      38.556 -12.413   0.761  1.00  0.00     0.041 C 
HETATM   24  S   UNL     1      39.369 -11.071   4.444  1.00  0.00    -0.075 SA
HETATM   25  C   UNL     1      38.040  -9.862   2.316  1.00  0.00     0.047 C 
HETATM   26  C   UNL     1      37.282 -10.231   1.034  1.00  0.00     0.005 C 
HETATM   27  C   UNL     1      38.144 -11.088   0.100  1.00  0.00     0.005 C 
BRANCH  20  28
HETATM   28  C   UNL     1      40.215 -14.511   2.614  1.00  0.00     0.296 C 
HETATM   29  O   UNL     1      39.444 -15.379   2.216  1.00  0.00    -0.259 OA
BRANCH  28  30
HETATM   30  O   UNL     1      41.564 -14.683   2.721  1.00  0.00    -0.318 OA
BRANCH  30  31
HETATM   31  C   UNL     1      42.378 -13.932   1.810  1.00  0.00     0.174 C 
HETATM   32  C   UNL     1      43.439 -13.173   2.583  1.00  0.00     0.034 C 
ENDBRANCH  30  31
ENDBRANCH  28  30
ENDBRANCH  20  28
ENDBRANCH  17  19
ENDBRANCH   1  17
TORSDOF 7
ENDMDL
MODEL 6
REMARK VINA RESULT:      -8.2      3.132      5.246
REMARK  7 active torsions:
REMARK  status: ('A' for Active; 'I' for Inactive)
REMARK    1  A    between atoms: C_2  and  O_3 
REMARK    2  A    between atoms: O_3  and  C_4 
REMARK    3  A    between atoms: C_4  and  C_5 
REMARK    4  A    between atoms: C_6  and  N_7 
REMARK    5  A    between atoms: N_7  and  C_8 
REMARK    6  A    between atoms: C_9  and  C_10 
REMARK    7  A    between atoms: C_13  and  C_14 
ROOT
HETATM    1  C   UNL     1      43.491 -13.902   6.691  1.00  0.00     0.114 C 
HETATM    2  C   UNL     1      43.551 -12.560   6.572  1.00  0.00     0.095 C 
HETATM    3  C   UNL     1      44.572 -11.856   7.279  1.00  0.00     0.103 C 
HETATM    4  N   UNL     1      45.405 -11.325   7.890  1.00  0.00    -0.191 NA
ENDROOT
BRANCH   2   5
HETATM    5  C   UNL     1      42.613 -11.800   5.804  1.00  0.00     0.120 A 
HETATM    6  S   UNL     1      42.284 -10.132   6.184  1.00  0.00    -0.078 SA
HETATM    7  C   UNL     1      41.270 -10.005   4.816  1.00  0.00     0.084 A 
HETATM    8  C   UNL     1      41.255 -11.196   4.122  1.00  0.00     0.075 A 
HETATM    9  N   UNL     1      42.013 -12.207   4.697  1.00  0.00    -0.239 NA
BRANCH   8  10
HETATM   10  C   UNL     1      40.512 -11.418   2.885  1.00  0.00    -0.007 A 
HETATM   11  C   UNL     1      39.135 -11.695   2.888  1.00  0.00     0.017 A 
HETATM   12  C   UNL     1      38.450 -11.901   1.686  1.00  0.00     0.043 A 
HETATM   13  C   UNL     1      39.138 -11.824   0.482  1.00  0.00     0.116 A 
HETATM   14  F   UNL     1      38.480 -12.022  -0.667  1.00  0.00    -0.206 F 
HETATM   15  C   UNL     1      40.498 -11.543   0.454  1.00  0.00     0.043 A 
HETATM   16  C   UNL     1      41.183 -11.335   1.654  1.00  0.00     0.017 A 
ENDBRANCH   8  10
ENDBRANCH   2   5
BRANCH   1  17
HETATM   17  N   UNL     1      42.669 -14.833   6.087  1.00  0.00    -0.358 N 
HETATM   18  H   UNL     1      41.686 -14.760   6.372  1.00  0.00     0.166 HD
BRANCH  17  19
HETATM   19  C   UNL     1      43.029 -16.038   5.537  1.00  0.00     0.091 A 
HETATM   20  C   UNL     1      43.022 -16.344   4.175  1.00  0.00     0.080 A 
HETATM   21  C   UNL     1      43.372 -17.732   3.940  1.00  0.00    -0.026 A 
HETATM   22  C   UNL     1      43.664 -18.388   5.119  1.00  0.00    -0.008 A 
HETATM   23  C   UNL     1      43.443 -18.447   2.617  1.00  0.00     0.041 C 
HETATM   24  S   UNL     1      43.535 -17.387   6.476  1.00  0.00    -0.075 SA
HETATM   25  C   UNL     1      44.022 -19.838   5.246  1.00  0.00     0.047 C 
HETATM   26  C   UNL     1      44.427 -20.416   3.885  1.00  0.00     0.005 C 
HETATM   27  C   UNL     1      43.461 -19.974   2.778  1.00  0.00     0.005 C 
BRANCH  20  28
HETATM   28  C   UNL     1      42.686 -15.330   3.168  1.00  0.00     0.296 C 
HETATM   29  O   UNL     1      43.495 -14.908   2.347  1.00  0.00    -0.259 OA
BRANCH  28  30
HETATM   30  O   UNL     1      41.381 -14.936   3.222  1.00  0.00    -0.318 OA
BRANCH  30  31
HETATM   31  C   UNL     1      40.425 -15.812   2.607  1.00  0.00     0.174 C 
HETATM   32  C   UNL     1      40.151 -15.351   1.189  1.00  0.00     0.034 C 
ENDBRANCH  30  31
ENDBRANCH  28  30
ENDBRANCH  20  28
ENDBRANCH  17  19
ENDBRANCH   1  17
TORSDOF 7
ENDMDL
MODEL 7
REMARK VINA RESULT:      -8.2      3.602      6.228
REMARK  7 active torsions:
REMARK  status: ('A' for Active; 'I' for Inactive)
REMARK    1  A    between atoms: C_2  and  O_3 
REMARK    2  A    between atoms: O_3  and  C_4 
REMARK    3  A    between atoms: C_4  and  C_5 
REMARK    4  A    between atoms: C_6  and  N_7 
REMARK    5  A    between atoms: N_7  and  C_8 
REMARK    6  A    between atoms: C_9  and  C_10 
REMARK    7  A    between atoms: C_13  and  C_14 
ROOT
HETATM    1  C   UNL     1      40.961 -12.563   5.115  1.00  0.00     0.114 C 
HETATM    2  C   UNL     1      39.830 -11.883   4.835  1.00  0.00     0.095 C 
HETATM    3  C   UNL     1      39.001 -11.460   5.917  1.00  0.00     0.103 C 
HETATM    4  N   UNL     1      38.349 -11.155   6.828  1.00  0.00    -0.191 NA
ENDROOT
BRANCH   2   5
HETATM    5  C   UNL     1      39.397 -11.602   3.500  1.00  0.00     0.120 A 
HETATM    6  S   UNL     1      38.988  -9.981   3.013  1.00  0.00    -0.078 SA
HETATM    7  C   UNL     1      38.749 -10.508   1.407  1.00  0.00     0.084 A 
HETATM    8  C   UNL     1      39.022 -11.855   1.302  1.00  0.00     0.075 A 
HETATM    9  N   UNL     1      39.379 -12.465   2.497  1.00  0.00    -0.239 NA
BRANCH   8  10
HETATM   10  C   UNL     1      38.946 -12.615   0.059  1.00  0.00    -0.007 A 
HETATM   11  C   UNL     1      38.118 -12.218  -1.004  1.00  0.00     0.017 A 
HETATM   12  C   UNL     1      38.070 -12.966  -2.185  1.00  0.00     0.043 A 
HETATM   13  C   UNL     1      38.852 -14.107  -2.306  1.00  0.00     0.116 A 
HETATM   14  F   UNL     1      38.803 -14.822  -3.438  1.00  0.00    -0.206 F 
HETATM   15  C   UNL     1      39.685 -14.515  -1.273  1.00  0.00     0.043 A 
HETATM   16  C   UNL     1      39.736 -13.767  -0.094  1.00  0.00     0.017 A 
ENDBRANCH   8  10
ENDBRANCH   2   5
BRANCH   1  17
HETATM   17  N   UNL     1      41.967 -13.034   4.294  1.00  0.00    -0.358 N 
HETATM   18  H   UNL     1      42.204 -12.394   3.528  1.00  0.00     0.166 HD
BRANCH  17  19
HETATM   19  C   UNL     1      42.358 -14.335   4.109  1.00  0.00     0.091 A 
HETATM   20  C   UNL     1      43.008 -15.131   5.055  1.00  0.00     0.080 A 
HETATM   21  C   UNL     1      43.360 -16.427   4.508  1.00  0.00    -0.026 A 
HETATM   22  C   UNL     1      42.927 -16.562   3.204  1.00  0.00    -0.008 A 
HETATM   23  C   UNL     1      44.093 -17.545   5.202  1.00  0.00     0.041 C 
HETATM   24  S   UNL     1      42.116 -15.191   2.637  1.00  0.00    -0.075 SA
HETATM   25  C   UNL     1      43.159 -17.755   2.326  1.00  0.00     0.047 C 
HETATM   26  C   UNL     1      43.574 -18.971   3.164  1.00  0.00     0.005 C 
HETATM   27  C   UNL     1      44.625 -18.595   4.215  1.00  0.00     0.005 C 
BRANCH  20  28
HETATM   28  C   UNL     1      43.269 -14.639   6.414  1.00  0.00     0.296 C 
HETATM   29  O   UNL     1      42.661 -15.043   7.401  1.00  0.00    -0.259 OA
BRANCH  28  30
HETATM   30  O   UNL     1      44.275 -13.719   6.464  1.00  0.00    -0.318 OA
BRANCH  30  31
HETATM   31  C   UNL     1      43.992 -12.502   7.169  1.00  0.00     0.174 C 
HETATM   32  C   UNL     1      44.433 -11.316   6.334  1.00  0.00     0.034 C 
ENDBRANCH  30  31
ENDBRANCH  28  30
ENDBRANCH  20  28
ENDBRANCH  17  19
ENDBRANCH   1  17
TORSDOF 7
ENDMDL
MODEL 8
REMARK VINA RESULT:      -8.1      3.048      7.515
REMARK  7 active torsions:
REMARK  status: ('A' for Active; 'I' for Inactive)
REMARK    1  A    between atoms: C_2  and  O_3 
REMARK    2  A    between atoms: O_3  and  C_4 
REMARK    3  A    between atoms: C_4  and  C_5 
REMARK    4  A    between atoms: C_6  and  N_7 
REMARK    5  A    between atoms: N_7  and  C_8 
REMARK    6  A    between atoms: C_9  and  C_10 
REMARK    7  A    between atoms: C_13  and  C_14 
ROOT
HETATM    1  C   UNL     1      43.054 -11.168   3.713  1.00  0.00     0.114 C 
HETATM    2  C   UNL     1      42.494 -11.684   2.599  1.00  0.00     0.095 C 
HETATM    3  C   UNL     1      42.048 -10.788   1.581  1.00  0.00     0.103 C 
HETATM    4  N   UNL     1      41.681 -10.020   0.791  1.00  0.00    -0.191 NA
ENDROOT
BRANCH   2   5
HETATM    5  C   UNL     1      42.285 -13.086   2.405  1.00  0.00     0.120 A 
HETATM    6  S   UNL     1      41.280 -13.673   1.110  1.00  0.00    -0.078 SA
HETATM    7  C   UNL     1      41.677 -15.284   1.510  1.00  0.00     0.084 A 
HETATM    8  C   UNL     1      42.568 -15.307   2.562  1.00  0.00     0.075 A 
HETATM    9  N   UNL     1      42.898 -14.056   3.066  1.00  0.00    -0.239 NA
BRANCH   8  10
HETATM   10  C   UNL     1      43.136 -16.524   3.133  1.00  0.00    -0.007 A 
HETATM   11  C   UNL     1      43.262 -17.705   2.383  1.00  0.00     0.017 A 
HETATM   12  C   UNL     1      43.813 -18.856   2.957  1.00  0.00     0.043 A 
HETATM   13  C   UNL     1      44.243 -18.825   4.277  1.00  0.00     0.116 A 
HETATM   14  F   UNL     1      44.770 -19.928   4.824  1.00  0.00    -0.206 F 
HETATM   15  C   UNL     1      44.138 -17.666   5.036  1.00  0.00     0.043 A 
HETATM   16  C   UNL     1      43.589 -16.516   4.462  1.00  0.00     0.017 A 
ENDBRANCH   8  10
ENDBRANCH   2   5
BRANCH   1  17
HETATM   17  N   UNL     1      43.623 -11.781   4.812  1.00  0.00    -0.358 N 
HETATM   18  H   UNL     1      43.589 -12.806   4.774  1.00  0.00     0.166 HD
BRANCH  17  19
HETATM   19  C   UNL     1      43.815 -11.250   6.062  1.00  0.00     0.091 A 
HETATM   20  C   UNL     1      42.825 -10.675   6.861  1.00  0.00     0.080 A 
HETATM   21  C   UNL     1      43.380 -10.131   8.086  1.00  0.00    -0.026 A 
HETATM   22  C   UNL     1      44.739 -10.356   8.171  1.00  0.00    -0.008 A 
HETATM   23  C   UNL     1      42.643  -9.407   9.183  1.00  0.00     0.041 C 
HETATM   24  S   UNL     1      45.349 -11.198   6.837  1.00  0.00    -0.075 SA
HETATM   25  C   UNL     1      45.634  -9.892   9.281  1.00  0.00     0.047 C 
HETATM   26  C   UNL     1      44.807  -9.495  10.510  1.00  0.00     0.005 C 
HETATM   27  C   UNL     1      43.592  -8.645  10.119  1.00  0.00     0.005 C 
BRANCH  20  28
HETATM   28  C   UNL     1      41.418 -10.660   6.440  1.00  0.00     0.296 C 
HETATM   29  O   UNL     1      40.801  -9.626   6.202  1.00  0.00    -0.259 OA
BRANCH  28  30
HETATM   30  O   UNL     1      40.887 -11.910   6.310  1.00  0.00    -0.318 OA
BRANCH  30  31
HETATM   31  C   UNL     1      39.506 -11.980   5.929  1.00  0.00     0.174 C 
HETATM   32  C   UNL     1      39.399 -12.448   4.491  1.00  0.00     0.034 C 
ENDBRANCH  30  31
ENDBRANCH  28  30
ENDBRANCH  20  28
ENDBRANCH  17  19
ENDBRANCH   1  17
TORSDOF 7
ENDMDL
MODEL 9
REMARK VINA RESULT:      -8.1      3.581      5.261
REMARK  7 active torsions:
REMARK  status: ('A' for Active; 'I' for Inactive)
REMARK    1  A    between atoms: C_2  and  O_3 
REMARK    2  A    between atoms: O_3  and  C_4 
REMARK    3  A    between atoms: C_4  and  C_5 
REMARK    4  A    between atoms: C_6  and  N_7 
REMARK    5  A    between atoms: N_7  and  C_8 
REMARK    6  A    between atoms: C_9  and  C_10 
REMARK    7  A    between atoms: C_13  and  C_14 
ROOT
HETATM    1  C   UNL     1      41.763 -10.678   6.003  1.00  0.00     0.114 C 
HETATM    2  C   UNL     1      41.990  -9.630   6.823  1.00  0.00     0.095 C 
HETATM    3  C   UNL     1      41.590  -8.328   6.394  1.00  0.00     0.103 C 
HETATM    4  N   UNL     1      41.267  -7.287   5.993  1.00  0.00    -0.191 NA
ENDROOT
BRANCH   2   5
HETATM    5  C   UNL     1      42.652  -9.753   8.086  1.00  0.00     0.120 A 
HETATM    6  S   UNL     1      44.319 -10.248   8.180  1.00  0.00    -0.078 SA
HETATM    7  C   UNL     1      44.311 -10.006   9.870  1.00  0.00     0.084 A 
HETATM    8  C   UNL     1      43.082  -9.532  10.277  1.00  0.00     0.075 A 
HETATM    9  N   UNL     1      42.148  -9.402   9.258  1.00  0.00    -0.239 NA
BRANCH   8  10
HETATM   10  C   UNL     1      42.747  -9.190  11.656  1.00  0.00    -0.007 A 
HETATM   11  C   UNL     1      41.747  -9.874  12.367  1.00  0.00     0.017 A 
HETATM   12  C   UNL     1      41.451  -9.526  13.689  1.00  0.00     0.043 A 
HETATM   13  C   UNL     1      42.157  -8.498  14.302  1.00  0.00     0.116 A 
HETATM   14  F   UNL     1      41.871  -8.166  15.567  1.00  0.00    -0.206 F 
HETATM   15  C   UNL     1      43.156  -7.814  13.622  1.00  0.00     0.043 A 
HETATM   16  C   UNL     1      43.453  -8.162  12.302  1.00  0.00     0.017 A 
ENDBRANCH   8  10
ENDBRANCH   2   5
BRANCH   1  17
HETATM   17  N   UNL     1      41.981 -12.031   6.176  1.00  0.00    -0.358 N 
HETATM   18  H   UNL     1      42.348 -12.273   7.103  1.00  0.00     0.166 HD
BRANCH  17  19
HETATM   19  C   UNL     1      42.179 -12.978   5.204  1.00  0.00     0.091 A 
HETATM   20  C   UNL     1      41.746 -14.305   5.262  1.00  0.00     0.080 A 
HETATM   21  C   UNL     1      42.198 -15.063   4.111  1.00  0.00    -0.026 A 
HETATM   22  C   UNL     1      42.907 -14.271   3.229  1.00  0.00    -0.008 A 
HETATM   23  C   UNL     1      41.964 -16.523   3.827  1.00  0.00     0.041 C 
HETATM   24  S   UNL     1      43.032 -12.665   3.743  1.00  0.00    -0.075 SA
HETATM   25  C   UNL     1      43.553 -14.740   1.960  1.00  0.00     0.047 C 
HETATM   26  C   UNL     1      42.994 -16.106   1.542  1.00  0.00     0.005 C 
HETATM   27  C   UNL     1      42.902 -17.063   2.736  1.00  0.00     0.005 C 
BRANCH  20  28
HETATM   28  C   UNL     1      40.939 -14.794   6.387  1.00  0.00     0.296 C 
HETATM   29  O   UNL     1      39.848 -14.319   6.685  1.00  0.00    -0.259 OA
BRANCH  28  30
HETATM   30  O   UNL     1      41.514 -15.847   7.036  1.00  0.00    -0.318 OA
BRANCH  30  31
HETATM   31  C   UNL     1      42.747 -15.579   7.719  1.00  0.00     0.174 C 
HETATM   32  C   UNL     1      43.752 -16.670   7.401  1.00  0.00     0.034 C 
ENDBRANCH  30  31
ENDBRANCH  28  30
ENDBRANCH  20  28
ENDBRANCH  17  19
ENDBRANCH   1  17
TORSDOF 7
ENDMDL
MODEL 10
REMARK VINA RESULT:      -8.1      3.575      5.725
REMARK  7 active torsions:
REMARK  status: ('A' for Active; 'I' for Inactive)
REMARK    1  A    between atoms: C_2  and  O_3 
REMARK    2  A    between atoms: O_3  and  C_4 
REMARK    3  A    between atoms: C_4  and  C_5 
REMARK    4  A    between atoms: C_6  and  N_7 
REMARK    5  A    between atoms: N_7  and  C_8 
REMARK    6  A    between atoms: C_9  and  C_10 
REMARK    7  A    between atoms: C_13  and  C_14 
ROOT
HETATM    1  C   UNL     1      44.038 -12.373   6.995  1.00  0.00     0.114 C 
HETATM    2  C   UNL     1      44.441 -11.244   7.615  1.00  0.00     0.095 C 
HETATM    3  C   UNL     1      45.821 -10.886   7.553  1.00  0.00     0.103 C 
HETATM    4  N   UNL     1      46.956 -10.647   7.492  1.00  0.00    -0.191 NA
ENDROOT
BRANCH   2   5
HETATM    5  C   UNL     1      43.558 -10.409   8.371  1.00  0.00     0.120 A 
HETATM    6  S   UNL     1      42.199  -9.625   7.615  1.00  0.00    -0.078 SA
HETATM    7  C   UNL     1      41.685  -9.025   9.128  1.00  0.00     0.084 A 
HETATM    8  C   UNL     1      42.526  -9.468  10.127  1.00  0.00     0.075 A 
HETATM    9  N   UNL     1      43.588 -10.244   9.684  1.00  0.00    -0.239 NA
BRANCH   8  10
HETATM   10  C   UNL     1      42.352  -9.164  11.544  1.00  0.00    -0.007 A 
HETATM   11  C   UNL     1      43.190  -8.258  12.215  1.00  0.00     0.017 A 
HETATM   12  C   UNL     1      42.998  -7.984  13.573  1.00  0.00     0.043 A 
HETATM   13  C   UNL     1      41.966  -8.611  14.260  1.00  0.00     0.116 A 
HETATM   14  F   UNL     1      41.784  -8.348  15.560  1.00  0.00    -0.206 F 
HETATM   15  C   UNL     1      41.118  -9.503  13.615  1.00  0.00     0.043 A 
HETATM   16  C   UNL     1      41.309  -9.776  12.258  1.00  0.00     0.017 A 
ENDBRANCH   8  10
ENDBRANCH   2   5
BRANCH   1  17
HETATM   17  N   UNL     1      42.782 -12.925   6.836  1.00  0.00    -0.358 N 
HETATM   18  H   UNL     1      42.391 -13.311   7.703  1.00  0.00     0.166 HD
BRANCH  17  19
HETATM   19  C   UNL     1      42.212 -13.393   5.680  1.00  0.00     0.091 A 
HETATM   20  C   UNL     1      41.538 -14.608   5.540  1.00  0.00     0.080 A 
HETATM   21  C   UNL     1      41.136 -14.838   4.165  1.00  0.00    -0.026 A 
HETATM   22  C   UNL     1      41.484 -13.779   3.351  1.00  0.00    -0.008 A 
HETATM   23  C   UNL     1      40.420 -16.041   3.610  1.00  0.00     0.041 C 
HETATM   24  S   UNL     1      42.263 -12.534   4.190  1.00  0.00    -0.075 SA
HETATM   25  C   UNL     1      41.257 -13.704   1.871  1.00  0.00     0.047 C 
HETATM   26  C   UNL     1      40.231 -14.754   1.428  1.00  0.00     0.005 C 
HETATM   27  C   UNL     1      40.505 -16.115   2.078  1.00  0.00     0.005 C 
BRANCH  20  28
HETATM   28  C   UNL     1      41.309 -15.489   6.692  1.00  0.00     0.296 C 
HETATM   29  O   UNL     1      40.193 -15.868   7.035  1.00  0.00    -0.259 OA
BRANCH  28  30
HETATM   30  O   UNL     1      42.464 -15.866   7.313  1.00  0.00    -0.318 OA
BRANCH  30  31
HETATM   31  C   UNL     1      43.238 -16.881   6.659  1.00  0.00     0.174 C 
HETATM   32  C   UNL     1      44.653 -16.382   6.443  1.00  0.00     0.034 C 
ENDBRANCH  30  31
ENDBRANCH  28  30
ENDBRANCH  20  28
ENDBRANCH  17  19
ENDBRANCH   1  17
TORSDOF 7
ENDMDL
