MODEL 1
REMARK VINA RESULT:      -8.2      0.000      0.000
REMARK  5 active torsions:
REMARK  status: ('A' for Active; 'I' for Inactive)
REMARK    1  A    between atoms: C_8  and  C_9 
REMARK       I    between atoms: N_10  and  C_11 
REMARK       I    between atoms: C_11  and  N_12 
REMARK    2  A    between atoms: N_12  and  C_13 
REMARK    3  A    between atoms: C_15  and  O_16 
REMARK    4  A    between atoms: O_16  and  C_17 
REMARK    5  A    between atoms: C_17  and  C_18 
ROOT
HETATM    1  C   UNL     1      41.752 -15.867   4.441  1.00  0.00     0.126 C 
HETATM    2  N   UNL     1      42.083 -14.555   4.997  1.00  0.00    -0.325 N 
HETATM    3  C   UNL     1      42.851 -13.721   4.252  1.00  0.00     0.323 C 
HETATM    4  N   UNL     1      43.443 -12.598   4.702  1.00  0.00    -0.309 N 
HETATM    5  O   UNL     1      43.172 -14.028   3.094  1.00  0.00    -0.247 OA
HETATM    6  C   UNL     1      41.356 -14.338   6.235  1.00  0.00     0.128 C 
HETATM    7  C   UNL     1      40.724 -15.676   6.600  1.00  0.00     0.022 C 
HETATM    8  C   UNL     1      40.551 -16.358   5.253  1.00  0.00     0.032 C 
HETATM    9  H   UNL     1      44.187 -12.396   4.044  1.00  0.00     0.170 HD
ENDROOT
BRANCH   4  10
HETATM   10  C   UNL     1      43.394 -11.708   5.781  1.00  0.00     0.039 A 
HETATM   11  C   UNL     1      44.078 -11.844   6.983  1.00  0.00     0.066 A 
HETATM   12  C   UNL     1      43.953 -10.888   8.003  1.00  0.00     0.071 A 
HETATM   13  C   UNL     1      43.069  -9.821   7.844  1.00  0.00     0.037 A 
HETATM   14  C   UNL     1      42.325  -9.709   6.673  1.00  0.00     0.005 A 
HETATM   15  C   UNL     1      42.485 -10.648   5.654  1.00  0.00     0.030 A 
BRANCH  12  16
HETATM   16  O   UNL     1      44.740 -11.114   9.101  1.00  0.00    -0.347 OA
BRANCH  16  17
HETATM   17  C   UNL     1      45.072  -9.980   9.903  1.00  0.00     0.208 C 
BRANCH  17  18
HETATM   18  C   UNL     1      44.136  -9.936  11.086  1.00  0.00    -0.069 C 
HETATM   19  C   UNL     1      43.648  -8.573  11.487  1.00  0.00     0.044 C 
HETATM   20  C   UNL     1      43.733 -11.048  11.727  1.00  0.00     0.016 C 
ENDBRANCH  17  18
ENDBRANCH  16  17
ENDBRANCH  12  16
ENDBRANCH   4  10
BRANCH   1  21
HETATM   21  C   UNL     1      42.934 -16.810   4.498  1.00  0.00     0.014 A 
HETATM   22  C   UNL     1      43.927 -16.995   5.454  1.00  0.00     0.034 A 
HETATM   23  C   UNL     1      44.245 -16.348   6.748  1.00  0.00     0.070 C 
HETATM   24  N   UNL     1      44.723 -18.002   4.978  1.00  0.00    -0.282 N 
HETATM   25  H   UNL     1      45.549 -18.401   5.412  1.00  0.00     0.189 HD
HETATM   26  N   UNL     1      44.342 -18.488   3.794  1.00  0.00    -0.179 NA
HETATM   27  C   UNL     1      43.276 -17.750   3.473  1.00  0.00     0.061 A 
HETATM   28  C   UNL     1      42.603 -17.963   2.165  1.00  0.00     0.073 C 
ENDBRANCH   1  21
TORSDOF 5
ENDMDL
MODEL 2
REMARK VINA RESULT:      -7.9      1.385      1.851
REMARK  5 active torsions:
REMARK  status: ('A' for Active; 'I' for Inactive)
REMARK    1  A    between atoms: C_8  and  C_9 
REMARK       I    between atoms: N_10  and  C_11 
REMARK       I    between atoms: C_11  and  N_12 
REMARK    2  A    between atoms: N_12  and  C_13 
REMARK    3  A    between atoms: C_15  and  O_16 
REMARK    4  A    between atoms: O_16  and  C_17 
REMARK    5  A    between atoms: C_17  and  C_18 
ROOT
HETATM    1  C   UNL     1      41.390 -15.383   4.967  1.00  0.00     0.126 C 
HETATM    2  N   UNL     1      42.195 -14.303   5.537  1.00  0.00    -0.325 N 
HETATM    3  C   UNL     1      42.481 -13.236   4.750  1.00  0.00     0.323 C 
HETATM    4  N   UNL     1      43.397 -12.288   5.026  1.00  0.00    -0.309 N 
HETATM    5  O   UNL     1      41.985 -13.139   3.617  1.00  0.00    -0.247 OA
HETATM    6  C   UNL     1      42.408 -14.532   6.955  1.00  0.00     0.128 C 
HETATM    7  C   UNL     1      41.918 -15.947   7.238  1.00  0.00     0.022 C 
HETATM    8  C   UNL     1      40.861 -16.169   6.170  1.00  0.00     0.032 C 
HETATM    9  H   UNL     1      43.614 -11.847   4.139  1.00  0.00     0.170 HD
ENDROOT
BRANCH   4  10
HETATM   10  C   UNL     1      44.153 -11.794   6.095  1.00  0.00     0.039 A 
HETATM   11  C   UNL     1      43.676 -11.503   7.367  1.00  0.00     0.066 A 
HETATM   12  C   UNL     1      44.527 -11.006   8.367  1.00  0.00     0.071 A 
HETATM   13  C   UNL     1      45.859 -10.725   8.062  1.00  0.00     0.037 A 
HETATM   14  C   UNL     1      46.334 -10.947   6.773  1.00  0.00     0.005 A 
HETATM   15  C   UNL     1      45.486 -11.473   5.799  1.00  0.00     0.030 A 
BRANCH  12  16
HETATM   16  O   UNL     1      43.936 -10.833   9.590  1.00  0.00    -0.347 OA
BRANCH  16  17
HETATM   17  C   UNL     1      44.661 -10.073  10.557  1.00  0.00     0.208 C 
BRANCH  17  18
HETATM   18  C   UNL     1      43.838  -8.867  10.937  1.00  0.00    -0.069 C 
HETATM   19  C   UNL     1      43.485  -7.933   9.813  1.00  0.00     0.044 C 
HETATM   20  C   UNL     1      43.415  -8.651  12.195  1.00  0.00     0.016 C 
ENDBRANCH  17  18
ENDBRANCH  16  17
ENDBRANCH  12  16
ENDBRANCH   4  10
BRANCH   1  21
HETATM   21  C   UNL     1      42.194 -16.233   4.009  1.00  0.00     0.014 A 
HETATM   22  C   UNL     1      43.404 -16.904   4.156  1.00  0.00     0.034 A 
HETATM   23  C   UNL     1      44.382 -17.034   5.261  1.00  0.00     0.070 C 
HETATM   24  N   UNL     1      43.638 -17.524   2.959  1.00  0.00    -0.282 N 
HETATM   25  H   UNL     1      44.430 -18.102   2.701  1.00  0.00     0.189 HD
HETATM   26  N   UNL     1      42.692 -17.314   2.040  1.00  0.00    -0.179 NA
HETATM   27  C   UNL     1      41.825 -16.503   2.652  1.00  0.00     0.061 A 
HETATM   28  C   UNL     1      40.646 -15.991   1.906  1.00  0.00     0.073 C 
ENDBRANCH   1  21
TORSDOF 5
ENDMDL
MODEL 3
REMARK VINA RESULT:      -7.8      3.015      8.030
REMARK  5 active torsions:
REMARK  status: ('A' for Active; 'I' for Inactive)
REMARK    1  A    between atoms: C_8  and  C_9 
REMARK       I    between atoms: N_10  and  C_11 
REMARK       I    between atoms: C_11  and  N_12 
REMARK    2  A    between atoms: N_12  and  C_13 
REMARK    3  A    between atoms: C_15  and  O_16 
REMARK    4  A    between atoms: O_16  and  C_17 
REMARK    5  A    between atoms: C_17  and  C_18 
ROOT
HETATM    1  C   UNL     1      41.285 -10.702   5.335  1.00  0.00     0.126 C 
HETATM    2  N   UNL     1      41.254 -12.079   4.845  1.00  0.00    -0.325 N 
HETATM    3  C   UNL     1      40.438 -12.963   5.472  1.00  0.00     0.323 C 
HETATM    4  N   UNL     1      40.470 -14.300   5.314  1.00  0.00    -0.309 N 
HETATM    5  O   UNL     1      39.669 -12.582   6.368  1.00  0.00    -0.247 OA
HETATM    6  C   UNL     1      42.029 -12.192   3.622  1.00  0.00     0.128 C 
HETATM    7  C   UNL     1      42.781 -10.876   3.468  1.00  0.00     0.022 C 
HETATM    8  C   UNL     1      41.892  -9.881   4.195  1.00  0.00     0.032 C 
HETATM    9  H   UNL     1      40.006 -14.686   6.129  1.00  0.00     0.170 HD
ENDROOT
BRANCH   4  10
HETATM   10  C   UNL     1      40.979 -15.274   4.447  1.00  0.00     0.039 A 
HETATM   11  C   UNL     1      42.016 -16.155   4.730  1.00  0.00     0.066 A 
HETATM   12  C   UNL     1      42.451 -17.094   3.780  1.00  0.00     0.071 A 
HETATM   13  C   UNL     1      41.888 -17.096   2.504  1.00  0.00     0.037 A 
HETATM   14  C   UNL     1      40.896 -16.174   2.185  1.00  0.00     0.005 A 
HETATM   15  C   UNL     1      40.451 -15.269   3.149  1.00  0.00     0.030 A 
BRANCH  12  16
HETATM   16  O   UNL     1      43.431 -17.944   4.221  1.00  0.00    -0.347 OA
BRANCH  16  17
HETATM   17  C   UNL     1      44.249 -18.559   3.225  1.00  0.00     0.208 C 
BRANCH  17  18
HETATM   18  C   UNL     1      43.841 -20.006   3.094  1.00  0.00    -0.069 C 
HETATM   19  C   UNL     1      43.431 -20.449   1.717  1.00  0.00     0.044 C 
HETATM   20  C   UNL     1      43.871 -20.860   4.132  1.00  0.00     0.016 C 
ENDBRANCH  17  18
ENDBRANCH  16  17
ENDBRANCH  12  16
ENDBRANCH   4  10
BRANCH   1  21
HETATM   21  C   UNL     1      42.061 -10.588   6.628  1.00  0.00     0.014 A 
HETATM   22  C   UNL     1      43.193 -11.250   7.092  1.00  0.00     0.034 A 
HETATM   23  C   UNL     1      44.056 -12.322   6.543  1.00  0.00     0.070 C 
HETATM   24  N   UNL     1      43.458 -10.723   8.326  1.00  0.00    -0.282 N 
HETATM   25  H   UNL     1      44.210 -10.969   8.961  1.00  0.00     0.189 HD
HETATM   26  N   UNL     1      42.597  -9.779   8.715  1.00  0.00    -0.179 NA
HETATM   27  C   UNL     1      41.722  -9.710   7.708  1.00  0.00     0.061 A 
HETATM   28  C   UNL     1      40.556  -8.793   7.810  1.00  0.00     0.073 C 
ENDBRANCH   1  21
TORSDOF 5
ENDMDL
MODEL 4
REMARK VINA RESULT:      -7.8      5.436      8.501
REMARK  5 active torsions:
REMARK  status: ('A' for Active; 'I' for Inactive)
REMARK    1  A    between atoms: C_8  and  C_9 
REMARK       I    between atoms: N_10  and  C_11 
REMARK       I    between atoms: C_11  and  N_12 
REMARK    2  A    between atoms: N_12  and  C_13 
REMARK    3  A    between atoms: C_15  and  O_16 
REMARK    4  A    between atoms: O_16  and  C_17 
REMARK    5  A    between atoms: C_17  and  C_18 
ROOT
HETATM    1  C   UNL     1      40.274 -11.899   0.085  1.00  0.00     0.126 C 
HETATM    2  N   UNL     1      40.718 -13.058   0.858  1.00  0.00    -0.325 N 
HETATM    3  C   UNL     1      40.223 -14.276   0.525  1.00  0.00     0.323 C 
HETATM    4  N   UNL     1      40.331 -15.391   1.272  1.00  0.00    -0.309 N 
HETATM    5  O   UNL     1      39.495 -14.408  -0.471  1.00  0.00    -0.247 OA
HETATM    6  C   UNL     1      41.775 -12.672   1.776  1.00  0.00     0.128 C 
HETATM    7  C   UNL     1      41.830 -11.149   1.750  1.00  0.00     0.022 C 
HETATM    8  C   UNL     1      41.310 -10.807   0.364  1.00  0.00     0.032 C 
HETATM    9  H   UNL     1      39.603 -16.015   0.943  1.00  0.00     0.170 HD
ENDROOT
BRANCH   4  10
HETATM   10  C   UNL     1      41.058 -15.902   2.353  1.00  0.00     0.039 A 
HETATM   11  C   UNL     1      42.172 -16.729   2.270  1.00  0.00     0.066 A 
HETATM   12  C   UNL     1      42.824 -17.188   3.425  1.00  0.00     0.071 A 
HETATM   13  C   UNL     1      42.305 -16.875   4.681  1.00  0.00     0.037 A 
HETATM   14  C   UNL     1      41.150 -16.104   4.779  1.00  0.00     0.005 A 
HETATM   15  C   UNL     1      40.532 -15.627   3.623  1.00  0.00     0.030 A 
BRANCH  12  16
HETATM   16  O   UNL     1      43.948 -17.934   3.190  1.00  0.00    -0.347 OA
BRANCH  16  17
HETATM   17  C   UNL     1      44.474 -18.675   4.293  1.00  0.00     0.208 C 
BRANCH  17  18
HETATM   18  C   UNL     1      44.034 -20.113   4.159  1.00  0.00    -0.069 C 
HETATM   19  C   UNL     1      43.721 -20.576   2.764  1.00  0.00     0.044 C 
HETATM   20  C   UNL     1      43.957 -20.943   5.214  1.00  0.00     0.016 C 
ENDBRANCH  17  18
ENDBRANCH  16  17
ENDBRANCH  12  16
ENDBRANCH   4  10
BRANCH   1  21
HETATM   21  C   UNL     1      38.865 -11.489   0.453  1.00  0.00     0.014 A 
HETATM   22  C   UNL     1      38.254 -11.273   1.683  1.00  0.00     0.034 A 
HETATM   23  C   UNL     1      38.706 -11.379   3.090  1.00  0.00     0.070 C 
HETATM   24  N   UNL     1      36.967 -10.903   1.404  1.00  0.00    -0.282 N 
HETATM   25  H   UNL     1      36.229 -10.669   2.060  1.00  0.00     0.189 HD
HETATM   26  N   UNL     1      36.679 -10.863   0.100  1.00  0.00    -0.179 NA
HETATM   27  C   UNL     1      37.813 -11.251  -0.490  1.00  0.00     0.061 A 
HETATM   28  C   UNL     1      37.860 -11.393  -1.968  1.00  0.00     0.073 C 
ENDBRANCH   1  21
TORSDOF 5
ENDMDL
MODEL 5
REMARK VINA RESULT:      -7.3      2.266      3.626
REMARK  5 active torsions:
REMARK  status: ('A' for Active; 'I' for Inactive)
REMARK    1  A    between atoms: C_8  and  C_9 
REMARK       I    between atoms: N_10  and  C_11 
REMARK       I    between atoms: C_11  and  N_12 
REMARK    2  A    between atoms: N_12  and  C_13 
REMARK    3  A    between atoms: C_15  and  O_16 
REMARK    4  A    between atoms: O_16  and  C_17 
REMARK    5  A    between atoms: C_17  and  C_18 
ROOT
HETATM    1  C   UNL     1      43.092 -13.512   4.356  1.00  0.00     0.126 C 
HETATM    2  N   UNL     1      43.509 -12.510   5.335  1.00  0.00    -0.325 N 
HETATM    3  C   UNL     1      44.133 -12.938   6.461  1.00  0.00     0.323 C 
HETATM    4  N   UNL     1      44.359 -12.190   7.558  1.00  0.00    -0.309 N 
HETATM    5  O   UNL     1      44.429 -14.135   6.600  1.00  0.00    -0.247 OA
HETATM    6  C   UNL     1      43.298 -11.174   4.806  1.00  0.00     0.128 C 
HETATM    7  C   UNL     1      42.485 -11.344   3.529  1.00  0.00     0.022 C 
HETATM    8  C   UNL     1      42.866 -12.736   3.056  1.00  0.00     0.032 C 
HETATM    9  H   UNL     1      44.518 -12.849   8.313  1.00  0.00     0.170 HD
ENDROOT
BRANCH   4  10
HETATM   10  C   UNL     1      44.374 -10.853   7.972  1.00  0.00     0.039 A 
HETATM   11  C   UNL     1      43.261 -10.088   8.298  1.00  0.00     0.066 A 
HETATM   12  C   UNL     1      43.393  -8.748   8.699  1.00  0.00     0.071 A 
HETATM   13  C   UNL     1      44.652  -8.148   8.697  1.00  0.00     0.037 A 
HETATM   14  C   UNL     1      45.767  -8.883   8.306  1.00  0.00     0.005 A 
HETATM   15  C   UNL     1      45.626 -10.222   7.943  1.00  0.00     0.030 A 
BRANCH  12  16
HETATM   16  O   UNL     1      42.220  -8.140   9.059  1.00  0.00    -0.347 OA
BRANCH  16  17
HETATM   17  C   UNL     1      42.211  -7.439  10.303  1.00  0.00     0.208 C 
BRANCH  17  18
HETATM   18  C   UNL     1      42.249  -8.449  11.424  1.00  0.00    -0.069 C 
HETATM   19  C   UNL     1      43.432  -8.360  12.348  1.00  0.00     0.044 C 
HETATM   20  C   UNL     1      41.274  -9.355  11.612  1.00  0.00     0.016 C 
ENDBRANCH  17  18
ENDBRANCH  16  17
ENDBRANCH  12  16
ENDBRANCH   4  10
BRANCH   1  21
HETATM   21  C   UNL     1      41.865 -14.266   4.818  1.00  0.00     0.014 A 
HETATM   22  C   UNL     1      40.705 -13.845   5.460  1.00  0.00     0.034 A 
HETATM   23  C   UNL     1      40.224 -12.538   5.966  1.00  0.00     0.070 C 
HETATM   24  N   UNL     1      39.933 -14.965   5.614  1.00  0.00    -0.282 N 
HETATM   25  H   UNL     1      39.018 -15.036   6.045  1.00  0.00     0.189 HD
HETATM   26  N   UNL     1      40.486 -16.081   5.134  1.00  0.00    -0.179 NA
HETATM   27  C   UNL     1      41.676 -15.679   4.678  1.00  0.00     0.061 A 
HETATM   28  C   UNL     1      42.622 -16.677   4.116  1.00  0.00     0.073 C 
ENDBRANCH   1  21
TORSDOF 5
ENDMDL
MODEL 6
REMARK VINA RESULT:      -7.2      2.934      8.515
REMARK  5 active torsions:
REMARK  status: ('A' for Active; 'I' for Inactive)
REMARK    1  A    between atoms: C_8  and  C_9 
REMARK       I    between atoms: N_10  and  C_11 
REMARK       I    between atoms: C_11  and  N_12 
REMARK    2  A    between atoms: N_12  and  C_13 
REMARK    3  A    between atoms: C_15  and  O_16 
REMARK    4  A    between atoms: O_16  and  C_17 
REMARK    5  A    between atoms: C_17  and  C_18 
ROOT
HETATM    1  C   UNL     1      44.353  -8.826   8.266  1.00  0.00     0.126 C 
HETATM    2  N   UNL     1      43.982 -10.060   7.574  1.00  0.00    -0.325 N 
HETATM    3  C   UNL     1      42.711 -10.176   7.114  1.00  0.00     0.323 C 
HETATM    4  N   UNL     1      42.141 -11.317   6.682  1.00  0.00    -0.309 N 
HETATM    5  O   UNL     1      41.924  -9.221   7.191  1.00  0.00    -0.247 OA
HETATM    6  C   UNL     1      45.154 -10.892   7.372  1.00  0.00     0.128 C 
HETATM    7  C   UNL     1      46.274 -10.261   8.191  1.00  0.00     0.022 C 
HETATM    8  C   UNL     1      45.883  -8.794   8.240  1.00  0.00     0.032 C 
HETATM    9  H   UNL     1      41.140 -11.162   6.732  1.00  0.00     0.170 HD
ENDROOT
BRANCH   4  10
HETATM   10  C   UNL     1      42.486 -12.610   6.270  1.00  0.00     0.039 A 
HETATM   11  C   UNL     1      42.058 -13.237   5.107  1.00  0.00     0.066 A 
HETATM   12  C   UNL     1      42.465 -14.544   4.794  1.00  0.00     0.071 A 
HETATM   13  C   UNL     1      43.251 -15.257   5.699  1.00  0.00     0.037 A 
HETATM   14  C   UNL     1      43.630 -14.666   6.900  1.00  0.00     0.005 A 
HETATM   15  C   UNL     1      43.246 -13.356   7.183  1.00  0.00     0.030 A 
BRANCH  12  16
HETATM   16  O   UNL     1      42.025 -15.007   3.582  1.00  0.00    -0.347 OA
BRANCH  16  17
HETATM   17  C   UNL     1      41.815 -16.414   3.466  1.00  0.00     0.208 C 
BRANCH  17  18
HETATM   18  C   UNL     1      42.815 -16.970   2.481  1.00  0.00    -0.069 C 
HETATM   19  C   UNL     1      43.374 -15.989   1.489  1.00  0.00     0.044 C 
HETATM   20  C   UNL     1      43.210 -18.255   2.505  1.00  0.00     0.016 C 
ENDBRANCH  17  18
ENDBRANCH  16  17
ENDBRANCH  12  16
ENDBRANCH   4  10
BRANCH   1  21
HETATM   21  C   UNL     1      43.782  -8.778   9.666  1.00  0.00     0.014 A 
HETATM   22  C   UNL     1      43.676  -9.747  10.658  1.00  0.00     0.034 A 
HETATM   23  C   UNL     1      44.040 -11.181  10.740  1.00  0.00     0.070 C 
HETATM   24  N   UNL     1      43.086  -9.128  11.726  1.00  0.00    -0.282 N 
HETATM   25  H   UNL     1      42.850  -9.530  12.627  1.00  0.00     0.189 HD
HETATM   26  N   UNL     1      42.791  -7.842  11.520  1.00  0.00    -0.179 NA
HETATM   27  C   UNL     1      43.176  -7.623  10.259  1.00  0.00     0.061 A 
HETATM   28  C   UNL     1      42.943  -6.292   9.641  1.00  0.00     0.073 C 
ENDBRANCH   1  21
TORSDOF 5
ENDMDL
MODEL 7
REMARK VINA RESULT:      -7.1      4.995      7.948
REMARK  5 active torsions:
REMARK  status: ('A' for Active; 'I' for Inactive)
REMARK    1  A    between atoms: C_8  and  C_9 
REMARK       I    between atoms: N_10  and  C_11 
REMARK       I    between atoms: C_11  and  N_12 
REMARK    2  A    between atoms: N_12  and  C_13 
REMARK    3  A    between atoms: C_15  and  O_16 
REMARK    4  A    between atoms: O_16  and  C_17 
REMARK    5  A    between atoms: C_17  and  C_18 
ROOT
HETATM    1  C   UNL     1      41.824 -14.197   3.973  1.00  0.00     0.126 C 
HETATM    2  N   UNL     1      41.328 -13.812   2.652  1.00  0.00    -0.325 N 
HETATM    3  C   UNL     1      40.189 -14.397   2.202  1.00  0.00     0.323 C 
HETATM    4  N   UNL     1      39.736 -14.345   0.935  1.00  0.00    -0.309 N 
HETATM    5  O   UNL     1      39.540 -15.157   2.936  1.00  0.00    -0.247 OA
HETATM    6  C   UNL     1      42.110 -12.708   2.125  1.00  0.00     0.128 C 
HETATM    7  C   UNL     1      43.308 -12.552   3.054  1.00  0.00     0.022 C 
HETATM    8  C   UNL     1      42.792 -13.083   4.380  1.00  0.00     0.032 C 
HETATM    9  H   UNL     1      39.091 -15.121   0.840  1.00  0.00     0.170 HD
ENDROOT
BRANCH   4  10
HETATM   10  C   UNL     1      39.922 -13.625  -0.252  1.00  0.00     0.039 A 
HETATM   11  C   UNL     1      39.896 -12.242  -0.380  1.00  0.00     0.066 A 
HETATM   12  C   UNL     1      40.092 -11.624  -1.626  1.00  0.00     0.071 A 
HETATM   13  C   UNL     1      40.240 -12.409  -2.769  1.00  0.00     0.037 A 
HETATM   14  C   UNL     1      40.199 -13.796  -2.666  1.00  0.00     0.005 A 
HETATM   15  C   UNL     1      40.037 -14.396  -1.417  1.00  0.00     0.030 A 
BRANCH  12  16
HETATM   16  O   UNL     1      40.112 -10.255  -1.590  1.00  0.00    -0.347 OA
BRANCH  16  17
HETATM   17  C   UNL     1      40.599  -9.585  -2.753  1.00  0.00     0.208 C 
BRANCH  17  18
HETATM   18  C   UNL     1      41.717  -8.660  -2.342  1.00  0.00    -0.069 C 
HETATM   19  C   UNL     1      42.152  -7.657  -3.375  1.00  0.00     0.044 C 
HETATM   20  C   UNL     1      42.274  -8.701  -1.119  1.00  0.00     0.016 C 
ENDBRANCH  17  18
ENDBRANCH  16  17
ENDBRANCH  12  16
ENDBRANCH   4  10
BRANCH   1  21
HETATM   21  C   UNL     1      42.469 -15.565   3.949  1.00  0.00     0.014 A 
HETATM   22  C   UNL     1      43.119 -16.266   2.939  1.00  0.00     0.034 A 
HETATM   23  C   UNL     1      43.413 -15.985   1.514  1.00  0.00     0.070 C 
HETATM   24  N   UNL     1      43.512 -17.452   3.498  1.00  0.00    -0.282 N 
HETATM   25  H   UNL     1      44.013 -18.214   3.054  1.00  0.00     0.189 HD
HETATM   26  N   UNL     1      43.172 -17.592   4.781  1.00  0.00    -0.179 NA
HETATM   27  C   UNL     1      42.506 -16.468   5.061  1.00  0.00     0.061 A 
HETATM   28  C   UNL     1      41.906 -16.286   6.407  1.00  0.00     0.073 C 
ENDBRANCH   1  21
TORSDOF 5
ENDMDL
MODEL 8
REMARK VINA RESULT:      -7.1      4.574      8.033
REMARK  5 active torsions:
REMARK  status: ('A' for Active; 'I' for Inactive)
REMARK    1  A    between atoms: C_8  and  C_9 
REMARK       I    between atoms: N_10  and  C_11 
REMARK       I    between atoms: C_11  and  N_12 
REMARK    2  A    between atoms: N_12  and  C_13 
REMARK    3  A    between atoms: C_15  and  O_16 
REMARK    4  A    between atoms: O_16  and  C_17 
REMARK    5  A    between atoms: C_17  and  C_18 
ROOT
HETATM    1  C   UNL     1      42.578 -13.304   5.224  1.00  0.00     0.126 C 
HETATM    2  N   UNL     1      41.619 -12.915   4.190  1.00  0.00    -0.325 N 
HETATM    3  C   UNL     1      40.337 -13.341   4.316  1.00  0.00     0.323 C 
HETATM    4  N   UNL     1      39.401 -13.285   3.350  1.00  0.00    -0.309 N 
HETATM    5  O   UNL     1      39.975 -13.954   5.332  1.00  0.00    -0.247 OA
HETATM    6  C   UNL     1      42.230 -11.973   3.270  1.00  0.00     0.128 C 
HETATM    7  C   UNL     1      43.718 -11.955   3.600  1.00  0.00     0.022 C 
HETATM    8  C   UNL     1      43.751 -12.332   5.071  1.00  0.00     0.032 C 
HETATM    9  H   UNL     1      38.690 -13.958   3.616  1.00  0.00     0.170 HD
ENDROOT
BRANCH   4  10
HETATM   10  C   UNL     1      39.151 -12.665   2.120  1.00  0.00     0.039 A 
HETATM   11  C   UNL     1      39.715 -13.016   0.900  1.00  0.00     0.066 A 
HETATM   12  C   UNL     1      39.394 -12.319  -0.276  1.00  0.00     0.071 A 
HETATM   13  C   UNL     1      38.555 -11.207  -0.212  1.00  0.00     0.037 A 
HETATM   14  C   UNL     1      38.037 -10.802   1.015  1.00  0.00     0.005 A 
HETATM   15  C   UNL     1      38.337 -11.524   2.169  1.00  0.00     0.030 A 
BRANCH  12  16
HETATM   16  O   UNL     1      39.969 -12.820  -1.414  1.00  0.00    -0.347 OA
BRANCH  16  17
HETATM   17  C   UNL     1      39.289 -12.572  -2.645  1.00  0.00     0.208 C 
BRANCH  17  18
HETATM   18  C   UNL     1      38.226 -13.627  -2.829  1.00  0.00    -0.069 C 
HETATM   19  C   UNL     1      38.714 -15.048  -2.876  1.00  0.00     0.044 C 
HETATM   20  C   UNL     1      36.919 -13.326  -2.913  1.00  0.00     0.016 C 
ENDBRANCH  17  18
ENDBRANCH  16  17
ENDBRANCH  12  16
ENDBRANCH   4  10
BRANCH   1  21
HETATM   21  C   UNL     1      42.987 -14.754   5.090  1.00  0.00     0.014 A 
HETATM   22  C   UNL     1      43.253 -15.543   3.975  1.00  0.00     0.034 A 
HETATM   23  C   UNL     1      43.218 -15.305   2.513  1.00  0.00     0.070 C 
HETATM   24  N   UNL     1      43.593 -16.776   4.460  1.00  0.00    -0.282 N 
HETATM   25  H   UNL     1      43.848 -17.604   3.933  1.00  0.00     0.189 HD
HETATM   26  N   UNL     1      43.568 -16.866   5.792  1.00  0.00    -0.179 NA
HETATM   27  C   UNL     1      43.168 -15.655   6.188  1.00  0.00     0.061 A 
HETATM   28  C   UNL     1      42.958 -15.387   7.635  1.00  0.00     0.073 C 
ENDBRANCH   1  21
TORSDOF 5
ENDMDL
MODEL 9
REMARK VINA RESULT:      -7.0      6.201      9.042
REMARK  5 active torsions:
REMARK  status: ('A' for Active; 'I' for Inactive)
REMARK    1  A    between atoms: C_8  and  C_9 
REMARK       I    between atoms: N_10  and  C_11 
REMARK       I    between atoms: C_11  and  N_12 
REMARK    2  A    between atoms: N_12  and  C_13 
REMARK    3  A    between atoms: C_15  and  O_16 
REMARK    4  A    between atoms: O_16  and  C_17 
REMARK    5  A    between atoms: C_17  and  C_18 
ROOT
HETATM    1  C   UNL     1      37.993 -12.785  -1.930  1.00  0.00     0.126 C 
HETATM    2  N   UNL     1      38.847 -13.041  -0.771  1.00  0.00    -0.325 N 
HETATM    3  C   UNL     1      38.672 -12.273   0.334  1.00  0.00     0.323 C 
HETATM    4  N   UNL     1      39.518 -12.209   1.379  1.00  0.00    -0.309 N 
HETATM    5  O   UNL     1      37.745 -11.451   0.387  1.00  0.00    -0.247 OA
HETATM    6  C   UNL     1      39.649 -14.231  -0.993  1.00  0.00     0.128 C 
HETATM    7  C   UNL     1      39.467 -14.602  -2.460  1.00  0.00     0.022 C 
HETATM    8  C   UNL     1      38.092 -14.047  -2.790  1.00  0.00     0.032 C 
HETATM    9  H   UNL     1      39.303 -11.340   1.856  1.00  0.00     0.170 HD
ENDROOT
BRANCH   4  10
HETATM   10  C   UNL     1      40.594 -12.904   1.944  1.00  0.00     0.039 A 
HETATM   11  C   UNL     1      40.546 -14.183   2.484  1.00  0.00     0.066 A 
HETATM   12  C   UNL     1      41.692 -14.784   3.030  1.00  0.00     0.071 A 
HETATM   13  C   UNL     1      42.882 -14.061   3.104  1.00  0.00     0.037 A 
HETATM   14  C   UNL     1      42.927 -12.754   2.630  1.00  0.00     0.005 A 
HETATM   15  C   UNL     1      41.790 -12.181   2.059  1.00  0.00     0.030 A 
BRANCH  12  16
HETATM   16  O   UNL     1      41.513 -16.073   3.459  1.00  0.00    -0.347 OA
BRANCH  16  17
HETATM   17  C   UNL     1      42.516 -16.612   4.321  1.00  0.00     0.208 C 
BRANCH  17  18
HETATM   18  C   UNL     1      43.246 -17.708   3.585  1.00  0.00    -0.069 C 
HETATM   19  C   UNL     1      44.288 -18.448   4.375  1.00  0.00     0.044 C 
HETATM   20  C   UNL     1      42.963 -18.031   2.311  1.00  0.00     0.016 C 
ENDBRANCH  17  18
ENDBRANCH  16  17
ENDBRANCH  12  16
ENDBRANCH   4  10
BRANCH   1  21
HETATM   21  C   UNL     1      38.412 -11.531  -2.665  1.00  0.00     0.014 A 
HETATM   22  C   UNL     1      39.655 -11.078  -3.093  1.00  0.00     0.034 A 
HETATM   23  C   UNL     1      41.036 -11.604  -2.984  1.00  0.00     0.070 C 
HETATM   24  N   UNL     1      39.426  -9.884  -3.720  1.00  0.00    -0.282 N 
HETATM   25  H   UNL     1      40.104  -9.268  -4.155  1.00  0.00     0.189 HD
HETATM   26  N   UNL     1      38.143  -9.512  -3.735  1.00  0.00    -0.179 NA
HETATM   27  C   UNL     1      37.519 -10.486  -3.067  1.00  0.00     0.061 A 
HETATM   28  C   UNL     1      36.057 -10.386  -2.820  1.00  0.00     0.073 C 
ENDBRANCH   1  21
TORSDOF 5
ENDMDL
MODEL 10
REMARK VINA RESULT:      -6.9      4.484      9.328
REMARK  5 active torsions:
REMARK  status: ('A' for Active; 'I' for Inactive)
REMARK    1  A    between atoms: C_8  and  C_9 
REMARK       I    between atoms: N_10  and  C_11 
REMARK       I    between atoms: C_11  and  N_12 
REMARK    2  A    between atoms: N_12  and  C_13 
REMARK    3  A    between atoms: C_15  and  O_16 
REMARK    4  A    between atoms: O_16  and  C_17 
REMARK    5  A    between atoms: C_17  and  C_18 
ROOT
HETATM    1  C   UNL     1      42.093  -7.522  12.372  1.00  0.00     0.126 C 
HETATM    2  N   UNL     1      42.841  -8.076  11.244  1.00  0.00    -0.325 N 
HETATM    3  C   UNL     1      43.052  -7.280  10.165  1.00  0.00     0.323 C 
HETATM    4  N   UNL     1      43.496  -7.698   8.965  1.00  0.00    -0.309 N 
HETATM    5  O   UNL     1      42.707  -6.089  10.185  1.00  0.00    -0.247 OA
HETATM    6  C   UNL     1      43.369  -9.384  11.586  1.00  0.00     0.128 C 
HETATM    7  C   UNL     1      42.717  -9.775  12.907  1.00  0.00     0.022 C 
HETATM    8  C   UNL     1      42.416  -8.435  13.557  1.00  0.00     0.032 C 
HETATM    9  H   UNL     1      43.231  -6.975   8.305  1.00  0.00     0.170 HD
ENDROOT
BRANCH   4  10
HETATM   10  C   UNL     1      44.120  -8.799   8.366  1.00  0.00     0.039 A 
HETATM   11  C   UNL     1      43.478  -9.906   7.824  1.00  0.00     0.066 A 
HETATM   12  C   UNL     1      44.206 -10.959   7.249  1.00  0.00     0.071 A 
HETATM   13  C   UNL     1      45.600 -10.936   7.287  1.00  0.00     0.037 A 
HETATM   14  C   UNL     1      46.257  -9.866   7.888  1.00  0.00     0.005 A 
HETATM   15  C   UNL     1      45.521  -8.810   8.425  1.00  0.00     0.030 A 
BRANCH  12  16
HETATM   16  O   UNL     1      43.440 -11.948   6.691  1.00  0.00    -0.347 OA
BRANCH  16  17
HETATM   17  C   UNL     1      43.978 -13.271   6.712  1.00  0.00     0.208 C 
BRANCH  17  18
HETATM   18  C   UNL     1      42.838 -14.252   6.840  1.00  0.00    -0.069 C 
HETATM   19  C   UNL     1      43.057 -15.391   7.796  1.00  0.00     0.044 C 
HETATM   20  C   UNL     1      41.682 -14.104   6.169  1.00  0.00     0.016 C 
ENDBRANCH  17  18
ENDBRANCH  16  17
ENDBRANCH  12  16
ENDBRANCH   4  10
BRANCH   1  21
HETATM   21  C   UNL     1      40.613  -7.438  12.073  1.00  0.00     0.014 A 
HETATM   22  C   UNL     1      39.744  -8.319  11.436  1.00  0.00     0.034 A 
HETATM   23  C   UNL     1      39.910  -9.640  10.786  1.00  0.00     0.070 C 
HETATM   24  N   UNL     1      38.513  -7.723  11.469  1.00  0.00    -0.282 N 
HETATM   25  H   UNL     1      37.639  -8.076  11.095  1.00  0.00     0.189 HD
HETATM   26  N   UNL     1      38.500  -6.528  12.065  1.00  0.00    -0.179 NA
HETATM   27  C   UNL     1      39.775  -6.326  12.407  1.00  0.00     0.061 A 
HETATM   28  C   UNL     1      40.169  -5.046  13.050  1.00  0.00     0.073 C 
ENDBRANCH   1  21
TORSDOF 5
ENDMDL
