MODEL 1
REMARK VINA RESULT:      -9.1      0.000      0.000
REMARK  8 active torsions:
REMARK  status: ('A' for Active; 'I' for Inactive)
REMARK    1  A    between atoms: C_3  and  N_4 
REMARK       I    between atoms: N_4  and  C_5 
REMARK    2  A    between atoms: C_5  and  C_6 
REMARK    3  A    between atoms: C_13  and  C_14 
REMARK       I    between atoms: C_14  and  N_15 
REMARK    4  A    between atoms: N_15  and  CA_16 
REMARK    5  A    between atoms: CA_16  and  C_17 
REMARK    6  A    between atoms: CA_16  and  C_27 
REMARK    7  A    between atoms: C_20  and  C_21 
REMARK    8  A    between atoms: C_27  and  O_28 
ROOT
HETATM    1  C   UNL     1      40.545 -13.849   5.329  1.00  0.00     0.252 C 
HETATM    2  N   UNL     1      41.651 -14.531   4.875  1.00  0.00    -0.346 N 
HETATM    3  O   UNL     1      40.050 -14.043   6.434  1.00  0.00    -0.268 OA
HETATM    4  H   UNL     1      41.885 -14.490   3.891  1.00  0.00     0.163 HD
ENDROOT
BRANCH   1   5
HETATM    5  C   UNL     1      39.956 -12.833   4.421  1.00  0.00     0.034 A 
HETATM    6  C   UNL     1      39.631 -13.215   3.113  1.00  0.00     0.047 A 
HETATM    7  C   UNL     1      39.024 -12.319   2.216  1.00  0.00     0.042 A 
HETATM    8  C   UNL     1      38.645 -11.048   2.684  1.00  0.00    -0.035 A 
HETATM    9  C   UNL     1      37.803 -10.066   1.915  1.00  0.00     0.050 C 
HETATM   10  C   UNL     1      39.003 -10.667   3.997  1.00  0.00     0.010 A 
HETATM   11  C   UNL     1      39.656 -11.547   4.860  1.00  0.00     0.017 A 
BRANCH   7  12
HETATM   12  N   UNL     1      38.811 -12.830   0.919  1.00  0.00    -0.321 N 
HETATM   13  C   UNL     1      39.681 -12.870  -0.157  1.00  0.00     0.279 C 
HETATM   14  O   UNL     1      40.849 -12.502  -0.145  1.00  0.00    -0.265 OA
HETATM   15  H   UNL     1      37.987 -13.409   0.786  1.00  0.00     0.169 HD
BRANCH  13  16
HETATM   16  C   UNL     1      39.084 -13.475  -1.336  1.00  0.00     0.142 A 
HETATM   17  O   UNL     1      37.862 -13.032  -1.777  1.00  0.00    -0.317 OA
HETATM   18  C   UNL     1      37.545 -13.764  -2.877  1.00  0.00     0.143 A 
HETATM   19  C   UNL     1      38.538 -14.673  -3.156  1.00  0.00     0.027 A 
HETATM   20  C   UNL     1      39.529 -14.489  -2.163  1.00  0.00     0.045 A 
ENDBRANCH  13  16
ENDBRANCH   7  12
ENDBRANCH   1   5
BRANCH   2  21
HETATM   21  CA  UNL     1      42.307 -15.554   5.693  1.00  0.00     0.141 C 
BRANCH  21  22
HETATM   22  C   UNL     1      42.734 -16.729   4.828  1.00  0.00    -0.033 A 
HETATM   23  C   UNL     1      43.526 -17.770   5.339  1.00  0.00     0.010 A 
HETATM   24  C   UNL     1      43.866 -18.864   4.538  1.00  0.00     0.017 A 
HETATM   25  C   UNL     1      43.426 -18.940   3.209  1.00  0.00     0.047 A 
HETATM   26  C   UNL     1      42.640 -17.900   2.698  1.00  0.00     0.017 A 
HETATM   27  C   UNL     1      42.301 -16.805   3.497  1.00  0.00     0.010 A 
BRANCH  25  28
HETATM   28  C   UNL     1      43.750 -20.138   2.348  1.00  0.00     0.417 C 
HETATM   29  F   UNL     1      42.696 -20.567   1.599  1.00  0.00    -0.166 F 
HETATM   30  F   UNL     1      44.756 -19.886   1.467  1.00  0.00    -0.166 F 
HETATM   31  F   UNL     1      44.152 -21.218   3.076  1.00  0.00    -0.166 F 
ENDBRANCH  25  28
ENDBRANCH  21  22
BRANCH  21  32
HETATM   32  C   UNL     1      43.512 -14.985   6.486  1.00  0.00     0.194 C 
BRANCH  32  33
HETATM   33  O   UNL     1      43.107 -14.152   7.573  1.00  0.00    -0.399 OA
HETATM   34  H   UNL     1      43.152 -13.221   7.263  1.00  0.00     0.209 HD
ENDBRANCH  32  33
ENDBRANCH  21  32
ENDBRANCH   2  21
TORSDOF 8
ENDMDL
MODEL 2
REMARK VINA RESULT:      -8.8      4.587      8.263
REMARK  8 active torsions:
REMARK  status: ('A' for Active; 'I' for Inactive)
REMARK    1  A    between atoms: C_3  and  N_4 
REMARK       I    between atoms: N_4  and  C_5 
REMARK    2  A    between atoms: C_5  and  C_6 
REMARK    3  A    between atoms: C_13  and  C_14 
REMARK       I    between atoms: C_14  and  N_15 
REMARK    4  A    between atoms: N_15  and  CA_16 
REMARK    5  A    between atoms: CA_16  and  C_17 
REMARK    6  A    between atoms: CA_16  and  C_27 
REMARK    7  A    between atoms: C_20  and  C_21 
REMARK    8  A    between atoms: C_27  and  O_28 
ROOT
HETATM    1  C   UNL     1      42.362 -12.612   5.718  1.00  0.00     0.252 C 
HETATM    2  N   UNL     1      42.558 -13.974   5.668  1.00  0.00    -0.346 N 
HETATM    3  O   UNL     1      41.323 -12.076   5.348  1.00  0.00    -0.268 OA
HETATM    4  H   UNL     1      43.495 -14.340   5.780  1.00  0.00     0.163 HD
ENDROOT
BRANCH   1   5
HETATM    5  C   UNL     1      43.470 -11.787   6.257  1.00  0.00     0.034 A 
HETATM    6  C   UNL     1      43.229 -11.007   7.396  1.00  0.00     0.047 A 
HETATM    7  C   UNL     1      44.248 -10.241   7.990  1.00  0.00     0.042 A 
HETATM    8  C   UNL     1      45.556 -10.348   7.485  1.00  0.00    -0.035 A 
HETATM    9  C   UNL     1      46.778  -9.764   8.139  1.00  0.00     0.050 C 
HETATM   10  C   UNL     1      45.779 -11.117   6.321  1.00  0.00     0.010 A 
HETATM   11  C   UNL     1      44.749 -11.829   5.707  1.00  0.00     0.017 A 
BRANCH   7  12
HETATM   12  N   UNL     1      43.838  -9.463   9.094  1.00  0.00    -0.321 N 
HETATM   13  C   UNL     1      43.850  -9.785  10.440  1.00  0.00     0.279 C 
HETATM   14  O   UNL     1      44.288 -10.822  10.923  1.00  0.00    -0.265 OA
HETATM   15  H   UNL     1      43.679  -8.475   8.922  1.00  0.00     0.169 HD
BRANCH  13  16
HETATM   16  C   UNL     1      43.335  -8.712  11.274  1.00  0.00     0.142 A 
HETATM   17  O   UNL     1      42.823  -7.583  10.685  1.00  0.00    -0.317 OA
HETATM   18  C   UNL     1      42.425  -6.756  11.687  1.00  0.00     0.143 A 
HETATM   19  C   UNL     1      42.670  -7.327  12.912  1.00  0.00     0.027 A 
HETATM   20  C   UNL     1      43.259  -8.586  12.649  1.00  0.00     0.045 A 
ENDBRANCH  13  16
ENDBRANCH   7  12
ENDBRANCH   1   5
BRANCH   2  21
HETATM   21  CA  UNL     1      41.527 -14.877   5.153  1.00  0.00     0.141 C 
BRANCH  21  22
HETATM   22  C   UNL     1      42.166 -16.089   4.495  1.00  0.00    -0.033 A 
HETATM   23  C   UNL     1      43.107 -16.883   5.170  1.00  0.00     0.010 A 
HETATM   24  C   UNL     1      43.645 -18.021   4.562  1.00  0.00     0.017 A 
HETATM   25  C   UNL     1      43.258 -18.389   3.266  1.00  0.00     0.047 A 
HETATM   26  C   UNL     1      42.322 -17.595   2.590  1.00  0.00     0.017 A 
HETATM   27  C   UNL     1      41.785 -16.456   3.196  1.00  0.00     0.010 A 
BRANCH  25  28
HETATM   28  C   UNL     1      43.799 -19.640   2.616  1.00  0.00     0.417 C 
HETATM   29  F   UNL     1      44.960 -19.437   1.934  1.00  0.00    -0.166 F 
HETATM   30  F   UNL     1      44.062 -20.621   3.520  1.00  0.00    -0.166 F 
HETATM   31  F   UNL     1      42.931 -20.183   1.716  1.00  0.00    -0.166 F 
ENDBRANCH  25  28
ENDBRANCH  21  22
BRANCH  21  32
HETATM   32  C   UNL     1      40.525 -15.311   6.254  1.00  0.00     0.194 C 
BRANCH  32  33
HETATM   33  O   UNL     1      39.491 -14.349   6.463  1.00  0.00    -0.399 OA
HETATM   34  H   UNL     1      38.976 -14.285   5.628  1.00  0.00     0.209 HD
ENDBRANCH  32  33
ENDBRANCH  21  32
ENDBRANCH   2  21
TORSDOF 8
ENDMDL
MODEL 3
REMARK VINA RESULT:      -8.7      4.384      7.901
REMARK  8 active torsions:
REMARK  status: ('A' for Active; 'I' for Inactive)
REMARK    1  A    between atoms: C_3  and  N_4 
REMARK       I    between atoms: N_4  and  C_5 
REMARK    2  A    between atoms: C_5  and  C_6 
REMARK    3  A    between atoms: C_13  and  C_14 
REMARK       I    between atoms: C_14  and  N_15 
REMARK    4  A    between atoms: N_15  and  CA_16 
REMARK    5  A    between atoms: CA_16  and  C_17 
REMARK    6  A    between atoms: CA_16  and  C_27 
REMARK    7  A    between atoms: C_20  and  C_21 
REMARK    8  A    between atoms: C_27  and  O_28 
ROOT
HETATM    1  C   UNL     1      43.572 -11.768   4.726  1.00  0.00     0.252 C 
HETATM    2  N   UNL     1      42.698 -12.831   4.781  1.00  0.00    -0.346 N 
HETATM    3  O   UNL     1      43.926 -11.252   3.672  1.00  0.00    -0.268 OA
HETATM    4  H   UNL     1      42.609 -13.350   5.646  1.00  0.00     0.163 HD
ENDROOT
BRANCH   1   5
HETATM    5  C   UNL     1      44.080 -11.242   6.017  1.00  0.00     0.034 A 
HETATM    6  C   UNL     1      43.151 -10.818   6.977  1.00  0.00     0.047 A 
HETATM    7  C   UNL     1      43.560 -10.355   8.240  1.00  0.00     0.042 A 
HETATM    8  C   UNL     1      44.925 -10.422   8.574  1.00  0.00    -0.035 A 
HETATM    9  C   UNL     1      45.485 -10.168   9.947  1.00  0.00     0.050 C 
HETATM   10  C   UNL     1      45.853 -10.825   7.588  1.00  0.00     0.010 A 
HETATM   11  C   UNL     1      45.439 -11.229   6.318  1.00  0.00     0.017 A 
BRANCH   7  12
HETATM   12  N   UNL     1      42.515  -9.909   9.076  1.00  0.00    -0.321 N 
HETATM   13  C   UNL     1      42.241  -8.628   9.522  1.00  0.00     0.279 C 
HETATM   14  O   UNL     1      42.855  -7.615   9.207  1.00  0.00    -0.265 OA
HETATM   15  H   UNL     1      41.752 -10.559   9.237  1.00  0.00     0.169 HD
BRANCH  13  16
HETATM   16  C   UNL     1      41.070  -8.575  10.381  1.00  0.00     0.142 A 
HETATM   17  O   UNL     1      40.900  -9.528  11.353  1.00  0.00    -0.317 OA
HETATM   18  C   UNL     1      39.737  -9.243  11.994  1.00  0.00     0.143 A 
HETATM   19  C   UNL     1      39.150  -8.123  11.455  1.00  0.00     0.027 A 
HETATM   20  C   UNL     1      40.006  -7.692  10.414  1.00  0.00     0.045 A 
ENDBRANCH  13  16
ENDBRANCH   7  12
ENDBRANCH   1   5
BRANCH   2  21
HETATM   21  CA  UNL     1      42.140 -13.425   3.565  1.00  0.00     0.141 C 
BRANCH  21  22
HETATM   22  C   UNL     1      42.591 -14.870   3.427  1.00  0.00    -0.033 A 
HETATM   23  C   UNL     1      42.765 -15.697   4.548  1.00  0.00     0.010 A 
HETATM   24  C   UNL     1      43.134 -17.037   4.393  1.00  0.00     0.017 A 
HETATM   25  C   UNL     1      43.340 -17.578   3.117  1.00  0.00     0.047 A 
HETATM   26  C   UNL     1      43.170 -16.752   1.998  1.00  0.00     0.017 A 
HETATM   27  C   UNL     1      42.803 -15.413   2.151  1.00  0.00     0.010 A 
BRANCH  25  28
HETATM   28  C   UNL     1      43.695 -19.035   2.935  1.00  0.00     0.417 C 
HETATM   29  F   UNL     1      43.677 -19.746   4.097  1.00  0.00    -0.166 F 
HETATM   30  F   UNL     1      42.841 -19.675   2.092  1.00  0.00    -0.166 F 
HETATM   31  F   UNL     1      44.941 -19.212   2.411  1.00  0.00    -0.166 F 
ENDBRANCH  25  28
ENDBRANCH  21  22
BRANCH  21  32
HETATM   32  C   UNL     1      40.593 -13.324   3.521  1.00  0.00     0.194 C 
BRANCH  32  33
HETATM   33  O   UNL     1      39.991 -13.590   4.788  1.00  0.00    -0.399 OA
HETATM   34  H   UNL     1      40.620 -14.144   5.302  1.00  0.00     0.209 HD
ENDBRANCH  32  33
ENDBRANCH  21  32
ENDBRANCH   2  21
TORSDOF 8
ENDMDL
MODEL 4
REMARK VINA RESULT:      -8.5      6.989      8.927
REMARK  8 active torsions:
REMARK  status: ('A' for Active; 'I' for Inactive)
REMARK    1  A    between atoms: C_3  and  N_4 
REMARK       I    between atoms: N_4  and  C_5 
REMARK    2  A    between atoms: C_5  and  C_6 
REMARK    3  A    between atoms: C_13  and  C_14 
REMARK       I    between atoms: C_14  and  N_15 
REMARK    4  A    between atoms: N_15  and  CA_16 
REMARK    5  A    between atoms: CA_16  and  C_17 
REMARK    6  A    between atoms: CA_16  and  C_27 
REMARK    7  A    between atoms: C_20  and  C_21 
REMARK    8  A    between atoms: C_27  and  O_28 
ROOT
HETATM    1  C   UNL     1      44.353 -11.583   6.472  1.00  0.00     0.252 C 
HETATM    2  N   UNL     1      44.085 -11.100   7.733  1.00  0.00    -0.346 N 
HETATM    3  O   UNL     1      45.087 -11.002   5.679  1.00  0.00    -0.268 OA
HETATM    4  H   UNL     1      43.318 -11.498   8.259  1.00  0.00     0.163 HD
ENDROOT
BRANCH   1   5
HETATM    5  C   UNL     1      43.722 -12.870   6.091  1.00  0.00     0.034 A 
HETATM    6  C   UNL     1      43.068 -12.953   4.854  1.00  0.00     0.047 A 
HETATM    7  C   UNL     1      42.492 -14.156   4.407  1.00  0.00     0.042 A 
HETATM    8  C   UNL     1      42.672 -15.318   5.179  1.00  0.00    -0.035 A 
HETATM    9  C   UNL     1      42.304 -16.708   4.734  1.00  0.00     0.050 C 
HETATM   10  C   UNL     1      43.309 -15.214   6.435  1.00  0.00     0.010 A 
HETATM   11  C   UNL     1      43.827 -14.003   6.893  1.00  0.00     0.017 A 
BRANCH   7  12
HETATM   12  N   UNL     1      41.819 -14.067   3.171  1.00  0.00    -0.321 N 
HETATM   13  C   UNL     1      42.301 -14.312   1.896  1.00  0.00     0.279 C 
HETATM   14  O   UNL     1      43.424 -14.715   1.622  1.00  0.00    -0.265 OA
HETATM   15  H   UNL     1      40.807 -13.993   3.206  1.00  0.00     0.169 HD
BRANCH  13  16
HETATM   16  C   UNL     1      41.294 -14.102   0.869  1.00  0.00     0.142 A 
HETATM   17  O   UNL     1      41.239 -12.899   0.211  1.00  0.00    -0.317 OA
HETATM   18  C   UNL     1      40.216 -12.977  -0.678  1.00  0.00     0.143 A 
HETATM   19  C   UNL     1      39.606 -14.206  -0.609  1.00  0.00     0.027 A 
HETATM   20  C   UNL     1      40.298 -14.932   0.390  1.00  0.00     0.045 A 
ENDBRANCH  13  16
ENDBRANCH   7  12
ENDBRANCH   1   5
BRANCH   2  21
HETATM   21  CA  UNL     1      44.659  -9.838   8.206  1.00  0.00     0.141 C 
BRANCH  21  22
HETATM   22  C   UNL     1      44.077  -9.469   9.561  1.00  0.00    -0.033 A 
HETATM   23  C   UNL     1      43.942 -10.417  10.587  1.00  0.00     0.010 A 
HETATM   24  C   UNL     1      43.450 -10.043  11.841  1.00  0.00     0.017 A 
HETATM   25  C   UNL     1      43.080  -8.715  12.096  1.00  0.00     0.047 A 
HETATM   26  C   UNL     1      43.211  -7.769  11.071  1.00  0.00     0.017 A 
HETATM   27  C   UNL     1      43.701  -8.142   9.817  1.00  0.00     0.010 A 
BRANCH  25  28
HETATM   28  C   UNL     1      42.589  -8.290  13.460  1.00  0.00     0.417 C 
HETATM   29  F   UNL     1      43.449  -7.457  14.110  1.00  0.00    -0.166 F 
HETATM   30  F   UNL     1      41.402  -7.628  13.399  1.00  0.00    -0.166 F 
HETATM   31  F   UNL     1      42.387  -9.344  14.300  1.00  0.00    -0.166 F 
ENDBRANCH  25  28
ENDBRANCH  21  22
BRANCH  21  32
HETATM   32  C   UNL     1      46.208  -9.885   8.264  1.00  0.00     0.194 C 
BRANCH  32  33
HETATM   33  O   UNL     1      46.817  -8.916   7.410  1.00  0.00    -0.399 OA
HETATM   34  H   UNL     1      46.869  -8.073   7.912  1.00  0.00     0.209 HD
ENDBRANCH  32  33
ENDBRANCH  21  32
ENDBRANCH   2  21
TORSDOF 8
ENDMDL
MODEL 5
REMARK VINA RESULT:      -7.9      5.326      7.196
REMARK  8 active torsions:
REMARK  status: ('A' for Active; 'I' for Inactive)
REMARK    1  A    between atoms: C_3  and  N_4 
REMARK       I    between atoms: N_4  and  C_5 
REMARK    2  A    between atoms: C_5  and  C_6 
REMARK    3  A    between atoms: C_13  and  C_14 
REMARK       I    between atoms: C_14  and  N_15 
REMARK    4  A    between atoms: N_15  and  CA_16 
REMARK    5  A    between atoms: CA_16  and  C_17 
REMARK    6  A    between atoms: CA_16  and  C_27 
REMARK    7  A    between atoms: C_20  and  C_21 
REMARK    8  A    between atoms: C_27  and  O_28 
ROOT
HETATM    1  C   UNL     1      40.130 -12.050   5.538  1.00  0.00     0.252 C 
HETATM    2  N   UNL     1      41.036 -11.033   5.336  1.00  0.00    -0.346 N 
HETATM    3  O   UNL     1      39.199 -11.963   6.333  1.00  0.00    -0.268 OA
HETATM    4  H   UNL     1      41.895 -11.233   4.838  1.00  0.00     0.163 HD
ENDROOT
BRANCH   1   5
HETATM    5  C   UNL     1      40.307 -13.286   4.737  1.00  0.00     0.034 A 
HETATM    6  C   UNL     1      39.892 -13.279   3.399  1.00  0.00     0.047 A 
HETATM    7  C   UNL     1      40.076 -14.399   2.568  1.00  0.00     0.042 A 
HETATM    8  C   UNL     1      40.786 -15.504   3.071  1.00  0.00    -0.035 A 
HETATM    9  C   UNL     1      41.246 -16.675   2.246  1.00  0.00     0.050 C 
HETATM   10  C   UNL     1      41.175 -15.507   4.429  1.00  0.00     0.010 A 
HETATM   11  C   UNL     1      40.937 -14.412   5.260  1.00  0.00     0.017 A 
BRANCH   7  12
HETATM   12  N   UNL     1      39.554 -14.262   1.265  1.00  0.00    -0.321 N 
HETATM   13  C   UNL     1      40.093 -13.603   0.174  1.00  0.00     0.279 C 
HETATM   14  O   UNL     1      41.185 -13.050   0.141  1.00  0.00    -0.265 OA
HETATM   15  H   UNL     1      38.774 -14.865   1.020  1.00  0.00     0.169 HD
BRANCH  13  16
HETATM   16  C   UNL     1      39.242 -13.682  -1.002  1.00  0.00     0.142 A 
HETATM   17  O   UNL     1      38.230 -12.770  -1.167  1.00  0.00    -0.317 OA
HETATM   18  C   UNL     1      37.602 -13.078  -2.332  1.00  0.00     0.143 A 
HETATM   19  C   UNL     1      38.187 -14.171  -2.924  1.00  0.00     0.027 A 
HETATM   20  C   UNL     1      39.243 -14.563  -2.067  1.00  0.00     0.045 A 
ENDBRANCH  13  16
ENDBRANCH   7  12
ENDBRANCH   1   5
BRANCH   2  21
HETATM   21  CA  UNL     1      40.950  -9.773   6.076  1.00  0.00     0.141 C 
BRANCH  21  22
HETATM   22  C   UNL     1      41.835  -9.823   7.311  1.00  0.00    -0.033 A 
HETATM   23  C   UNL     1      43.110 -10.411   7.279  1.00  0.00     0.010 A 
HETATM   24  C   UNL     1      43.925 -10.402   8.414  1.00  0.00     0.017 A 
HETATM   25  C   UNL     1      43.485  -9.809   9.606  1.00  0.00     0.047 A 
HETATM   26  C   UNL     1      42.210  -9.227   9.639  1.00  0.00     0.017 A 
HETATM   27  C   UNL     1      41.394  -9.237   8.506  1.00  0.00     0.010 A 
BRANCH  25  28
HETATM   28  C   UNL     1      44.373  -9.755  10.826  1.00  0.00     0.417 C 
HETATM   29  F   UNL     1      45.701  -9.701  10.526  1.00  0.00    -0.166 F 
HETATM   30  F   UNL     1      44.121  -8.666  11.602  1.00  0.00    -0.166 F 
HETATM   31  F   UNL     1      44.220 -10.838  11.639  1.00  0.00    -0.166 F 
ENDBRANCH  25  28
ENDBRANCH  21  22
BRANCH  21  32
HETATM   32  C   UNL     1      41.305  -8.549   5.191  1.00  0.00     0.194 C 
BRANCH  32  33
HETATM   33  O   UNL     1      41.776  -8.929   3.897  1.00  0.00    -0.399 OA
HETATM   34  H   UNL     1      42.376  -8.217   3.583  1.00  0.00     0.209 HD
ENDBRANCH  32  33
ENDBRANCH  21  32
ENDBRANCH   2  21
TORSDOF 8
ENDMDL
MODEL 6
REMARK VINA RESULT:      -7.9      6.726      8.423
REMARK  8 active torsions:
REMARK  status: ('A' for Active; 'I' for Inactive)
REMARK    1  A    between atoms: C_3  and  N_4 
REMARK       I    between atoms: N_4  and  C_5 
REMARK    2  A    between atoms: C_5  and  C_6 
REMARK    3  A    between atoms: C_13  and  C_14 
REMARK       I    between atoms: C_14  and  N_15 
REMARK    4  A    between atoms: N_15  and  CA_16 
REMARK    5  A    between atoms: CA_16  and  C_17 
REMARK    6  A    between atoms: CA_16  and  C_27 
REMARK    7  A    between atoms: C_20  and  C_21 
REMARK    8  A    between atoms: C_27  and  O_28 
ROOT
HETATM    1  C   UNL     1      43.073 -11.155   6.170  1.00  0.00     0.252 C 
HETATM    2  N   UNL     1      43.967 -11.220   7.215  1.00  0.00    -0.346 N 
HETATM    3  O   UNL     1      42.854 -10.124   5.544  1.00  0.00    -0.268 OA
HETATM    4  H   UNL     1      43.950 -12.026   7.826  1.00  0.00     0.163 HD
ENDROOT
BRANCH   1   5
HETATM    5  C   UNL     1      42.368 -12.408   5.802  1.00  0.00     0.034 A 
HETATM    6  C   UNL     1      41.803 -12.506   4.523  1.00  0.00     0.047 A 
HETATM    7  C   UNL     1      41.165 -13.682   4.091  1.00  0.00     0.042 A 
HETATM    8  C   UNL     1      41.193 -14.812   4.928  1.00  0.00    -0.035 A 
HETATM    9  C   UNL     1      40.747 -16.191   4.522  1.00  0.00     0.050 C 
HETATM   10  C   UNL     1      41.742 -14.691   6.224  1.00  0.00     0.010 A 
HETATM   11  C   UNL     1      42.322 -13.502   6.662  1.00  0.00     0.017 A 
BRANCH   7  12
HETATM   12  N   UNL     1      40.594 -13.608   2.803  1.00  0.00    -0.321 N 
HETATM   13  C   UNL     1      41.140 -13.972   1.585  1.00  0.00     0.279 C 
HETATM   14  O   UNL     1      42.237 -14.493   1.420  1.00  0.00    -0.265 OA
HETATM   15  H   UNL     1      39.594 -13.438   2.756  1.00  0.00     0.169 HD
BRANCH  13  16
HETATM   16  C   UNL     1      40.234 -13.734   0.473  1.00  0.00     0.142 A 
HETATM   17  O   UNL     1      40.092 -14.690  -0.501  1.00  0.00    -0.317 OA
HETATM   18  C   UNL     1      39.200 -14.209  -1.405  1.00  0.00     0.143 A 
HETATM   19  C   UNL     1      38.763 -12.960  -1.036  1.00  0.00     0.027 A 
HETATM   20  C   UNL     1      39.430 -12.651   0.173  1.00  0.00     0.045 A 
ENDBRANCH  13  16
ENDBRANCH   7  12
ENDBRANCH   1   5
BRANCH   2  21
HETATM   21  CA  UNL     1      44.713 -10.040   7.657  1.00  0.00     0.141 C 
BRANCH  21  22
HETATM   22  C   UNL     1      44.247  -9.607   9.037  1.00  0.00    -0.033 A 
HETATM   23  C   UNL     1      43.735  -8.321   9.271  1.00  0.00     0.010 A 
HETATM   24  C   UNL     1      43.268  -7.961  10.539  1.00  0.00     0.017 A 
HETATM   25  C   UNL     1      43.305  -8.876  11.600  1.00  0.00     0.047 A 
HETATM   26  C   UNL     1      43.820 -10.158  11.368  1.00  0.00     0.017 A 
HETATM   27  C   UNL     1      44.289 -10.518  10.102  1.00  0.00     0.010 A 
BRANCH  25  28
HETATM   28  C   UNL     1      42.763  -8.514  12.963  1.00  0.00     0.417 C 
HETATM   29  F   UNL     1      42.511  -9.597  13.750  1.00  0.00    -0.166 F 
HETATM   30  F   UNL     1      43.620  -7.729  13.669  1.00  0.00    -0.166 F 
HETATM   31  F   UNL     1      41.590  -7.822  12.896  1.00  0.00    -0.166 F 
ENDBRANCH  25  28
ENDBRANCH  21  22
BRANCH  21  32
HETATM   32  C   UNL     1      46.245 -10.277   7.640  1.00  0.00     0.194 C 
BRANCH  32  33
HETATM   33  O   UNL     1      46.985  -9.063   7.504  1.00  0.00    -0.399 OA
HETATM   34  H   UNL     1      46.336  -8.327   7.456  1.00  0.00     0.209 HD
ENDBRANCH  32  33
ENDBRANCH  21  32
ENDBRANCH   2  21
TORSDOF 8
ENDMDL
MODEL 7
REMARK VINA RESULT:      -7.7     12.262     16.085
REMARK  8 active torsions:
REMARK  status: ('A' for Active; 'I' for Inactive)
REMARK    1  A    between atoms: C_3  and  N_4 
REMARK       I    between atoms: N_4  and  C_5 
REMARK    2  A    between atoms: C_5  and  C_6 
REMARK    3  A    between atoms: C_13  and  C_14 
REMARK       I    between atoms: C_14  and  N_15 
REMARK    4  A    between atoms: N_15  and  CA_16 
REMARK    5  A    between atoms: CA_16  and  C_17 
REMARK    6  A    between atoms: CA_16  and  C_27 
REMARK    7  A    between atoms: C_20  and  C_21 
REMARK    8  A    between atoms: C_27  and  O_28 
ROOT
HETATM    1  C   UNL     1      40.380  -7.312  14.671  1.00  0.00     0.252 C 
HETATM    2  N   UNL     1      40.873  -8.553  14.337  1.00  0.00    -0.346 N 
HETATM    3  O   UNL     1      39.654  -6.662  13.927  1.00  0.00    -0.268 OA
HETATM    4  H   UNL     1      41.629  -8.946  14.885  1.00  0.00     0.163 HD
ENDROOT
BRANCH   1   5
HETATM    5  C   UNL     1      40.752  -6.771  16.001  1.00  0.00     0.034 A 
HETATM    6  C   UNL     1      41.309  -7.644  16.946  1.00  0.00     0.047 A 
HETATM    7  C   UNL     1      41.731  -7.188  18.207  1.00  0.00     0.042 A 
HETATM    8  C   UNL     1      41.684  -5.809  18.477  1.00  0.00    -0.035 A 
HETATM    9  C   UNL     1      42.293  -5.151  19.686  1.00  0.00     0.050 C 
HETATM   10  C   UNL     1      41.096  -4.944  17.527  1.00  0.00     0.010 A 
HETATM   11  C   UNL     1      40.629  -5.417  16.301  1.00  0.00     0.017 A 
BRANCH   7  12
HETATM   12  N   UNL     1      42.216  -8.194  19.069  1.00  0.00    -0.321 N 
HETATM   13  C   UNL     1      41.563  -8.851  20.098  1.00  0.00     0.279 C 
HETATM   14  O   UNL     1      40.389  -8.700  20.410  1.00  0.00    -0.265 OA
HETATM   15  H   UNL     1      43.091  -8.637  18.807  1.00  0.00     0.169 HD
BRANCH  13  16
HETATM   16  C   UNL     1      42.411  -9.826  20.764  1.00  0.00     0.142 A 
HETATM   17  O   UNL     1      43.361  -9.397  21.657  1.00  0.00    -0.317 OA
HETATM   18  C   UNL     1      44.002 -10.503  22.119  1.00  0.00     0.143 A 
HETATM   19  C   UNL     1      43.486 -11.638  21.542  1.00  0.00     0.027 A 
HETATM   20  C   UNL     1      42.462 -11.203  20.667  1.00  0.00     0.045 A 
ENDBRANCH  13  16
ENDBRANCH   7  12
ENDBRANCH   1   5
BRANCH   2  21
HETATM   21  CA  UNL     1      40.566  -9.176  13.048  1.00  0.00     0.141 C 
BRANCH  21  22
HETATM   22  C   UNL     1      41.801  -9.195  12.162  1.00  0.00    -0.033 A 
HETATM   23  C   UNL     1      42.715 -10.260  12.195  1.00  0.00     0.010 A 
HETATM   24  C   UNL     1      43.818 -10.278  11.336  1.00  0.00     0.017 A 
HETATM   25  C   UNL     1      44.033  -9.232  10.428  1.00  0.00     0.047 A 
HETATM   26  C   UNL     1      43.123  -8.167  10.397  1.00  0.00     0.017 A 
HETATM   27  C   UNL     1      42.022  -8.147  11.257  1.00  0.00     0.010 A 
BRANCH  25  28
HETATM   28  C   UNL     1      45.196  -9.261   9.465  1.00  0.00     0.417 C 
HETATM   29  F   UNL     1      46.407  -9.351  10.081  1.00  0.00    -0.166 F 
HETATM   30  F   UNL     1      45.133 -10.317   8.609  1.00  0.00    -0.166 F 
HETATM   31  F   UNL     1      45.260  -8.148   8.681  1.00  0.00    -0.166 F 
ENDBRANCH  25  28
ENDBRANCH  21  22
BRANCH  21  32
HETATM   32  C   UNL     1      39.983 -10.604  13.212  1.00  0.00     0.194 C 
BRANCH  32  33
HETATM   33  O   UNL     1      38.596 -10.671  12.879  1.00  0.00    -0.399 OA
HETATM   34  H   UNL     1      38.223  -9.769  12.994  1.00  0.00     0.209 HD
ENDBRANCH  32  33
ENDBRANCH  21  32
ENDBRANCH   2  21
TORSDOF 8
ENDMDL
MODEL 8
REMARK VINA RESULT:      -7.7      7.970     10.220
REMARK  8 active torsions:
REMARK  status: ('A' for Active; 'I' for Inactive)
REMARK    1  A    between atoms: C_3  and  N_4 
REMARK       I    between atoms: N_4  and  C_5 
REMARK    2  A    between atoms: C_5  and  C_6 
REMARK    3  A    between atoms: C_13  and  C_14 
REMARK       I    between atoms: C_14  and  N_15 
REMARK    4  A    between atoms: N_15  and  CA_16 
REMARK    5  A    between atoms: CA_16  and  C_17 
REMARK    6  A    between atoms: CA_16  and  C_27 
REMARK    7  A    between atoms: C_20  and  C_21 
REMARK    8  A    between atoms: C_27  and  O_28 
ROOT
HETATM    1  C   UNL     1      43.708 -10.434   7.865  1.00  0.00     0.252 C 
HETATM    2  N   UNL     1      43.258 -10.176   9.140  1.00  0.00    -0.346 N 
HETATM    3  O   UNL     1      44.877 -10.284   7.528  1.00  0.00    -0.268 OA
HETATM    4  H   UNL     1      42.262 -10.110   9.306  1.00  0.00     0.163 HD
ENDROOT
BRANCH   1   5
HETATM    5  C   UNL     1      42.711 -10.926   6.882  1.00  0.00     0.034 A 
HETATM    6  C   UNL     1      42.922 -12.176   6.285  1.00  0.00     0.047 A 
HETATM    7  C   UNL     1      41.993 -12.725   5.383  1.00  0.00     0.042 A 
HETATM    8  C   UNL     1      40.782 -12.044   5.163  1.00  0.00    -0.035 A 
HETATM    9  C   UNL     1      39.611 -12.602   4.401  1.00  0.00     0.050 C 
HETATM   10  C   UNL     1      40.595 -10.772   5.749  1.00  0.00     0.010 A 
HETATM   11  C   UNL     1      41.549 -10.213   6.599  1.00  0.00     0.017 A 
BRANCH   7  12
HETATM   12  N   UNL     1      42.372 -13.962   4.822  1.00  0.00    -0.321 N 
HETATM   13  C   UNL     1      42.867 -14.232   3.558  1.00  0.00     0.279 C 
HETATM   14  O   UNL     1      43.122 -13.398   2.698  1.00  0.00    -0.265 OA
HETATM   15  H   UNL     1      42.473 -14.743   5.464  1.00  0.00     0.169 HD
BRANCH  13  16
HETATM   16  C   UNL     1      43.133 -15.646   3.352  1.00  0.00     0.142 A 
HETATM   17  O   UNL     1      43.424 -16.443   4.431  1.00  0.00    -0.317 OA
HETATM   18  C   UNL     1      43.631 -17.698   3.955  1.00  0.00     0.143 A 
HETATM   19  C   UNL     1      43.479 -17.730   2.590  1.00  0.00     0.027 A 
HETATM   20  C   UNL     1      43.161 -16.407   2.199  1.00  0.00     0.045 A 
ENDBRANCH  13  16
ENDBRANCH   7  12
ENDBRANCH   1   5
BRANCH   2  21
HETATM   21  CA  UNL     1      44.161  -9.688  10.185  1.00  0.00     0.141 C 
BRANCH  21  22
HETATM   22  C   UNL     1      43.510  -8.551  10.956  1.00  0.00    -0.033 A 
HETATM   23  C   UNL     1      43.418  -8.570  12.357  1.00  0.00     0.010 A 
HETATM   24  C   UNL     1      42.860  -7.490  13.048  1.00  0.00     0.017 A 
HETATM   25  C   UNL     1      42.379  -6.371  12.354  1.00  0.00     0.047 A 
HETATM   26  C   UNL     1      42.466  -6.353  10.956  1.00  0.00     0.017 A 
HETATM   27  C   UNL     1      43.023  -7.433  10.265  1.00  0.00     0.010 A 
BRANCH  25  28
HETATM   28  C   UNL     1      41.813  -5.180  13.092  1.00  0.00     0.417 C 
HETATM   29  F   UNL     1      40.510  -4.925  12.789  1.00  0.00    -0.166 F 
HETATM   30  F   UNL     1      41.860  -5.336  14.442  1.00  0.00    -0.166 F 
HETATM   31  F   UNL     1      42.489  -4.026  12.825  1.00  0.00    -0.166 F 
ENDBRANCH  25  28
ENDBRANCH  21  22
BRANCH  21  32
HETATM   32  C   UNL     1      44.611 -10.820  11.145  1.00  0.00     0.194 C 
BRANCH  32  33
HETATM   33  O   UNL     1      43.655 -11.877  11.231  1.00  0.00    -0.399 OA
HETATM   34  H   UNL     1      44.106 -12.650  11.636  1.00  0.00     0.209 HD
ENDBRANCH  32  33
ENDBRANCH  21  32
ENDBRANCH   2  21
TORSDOF 8
ENDMDL
MODEL 9
REMARK VINA RESULT:      -7.7      5.086      8.929
REMARK  8 active torsions:
REMARK  status: ('A' for Active; 'I' for Inactive)
REMARK    1  A    between atoms: C_3  and  N_4 
REMARK       I    between atoms: N_4  and  C_5 
REMARK    2  A    between atoms: C_5  and  C_6 
REMARK    3  A    between atoms: C_13  and  C_14 
REMARK       I    between atoms: C_14  and  N_15 
REMARK    4  A    between atoms: N_15  and  CA_16 
REMARK    5  A    between atoms: CA_16  and  C_17 
REMARK    6  A    between atoms: CA_16  and  C_27 
REMARK    7  A    between atoms: C_20  and  C_21 
REMARK    8  A    between atoms: C_27  and  O_28 
ROOT
HETATM    1  C   UNL     1      41.432 -12.851   5.566  1.00  0.00     0.252 C 
HETATM    2  N   UNL     1      41.589 -13.771   4.555  1.00  0.00    -0.346 N 
HETATM    3  O   UNL     1      40.361 -12.661   6.133  1.00  0.00    -0.268 OA
HETATM    4  H   UNL     1      42.424 -13.736   3.984  1.00  0.00     0.163 HD
ENDROOT
BRANCH   1   5
HETATM    5  C   UNL     1      42.632 -12.079   5.972  1.00  0.00     0.034 A 
HETATM    6  C   UNL     1      42.550 -11.267   7.112  1.00  0.00     0.047 A 
HETATM    7  C   UNL     1      43.663 -10.548   7.582  1.00  0.00     0.042 A 
HETATM    8  C   UNL     1      44.905 -10.737   6.950  1.00  0.00    -0.035 A 
HETATM    9  C   UNL     1      46.218 -10.210   7.465  1.00  0.00     0.050 C 
HETATM   10  C   UNL     1      44.968 -11.536   5.787  1.00  0.00     0.010 A 
HETATM   11  C   UNL     1      43.844 -12.200   5.297  1.00  0.00     0.017 A 
BRANCH   7  12
HETATM   12  N   UNL     1      43.410  -9.731   8.704  1.00  0.00    -0.321 N 
HETATM   13  C   UNL     1      43.535 -10.031  10.049  1.00  0.00     0.279 C 
HETATM   14  O   UNL     1      43.956 -11.085  10.509  1.00  0.00    -0.265 OA
HETATM   15  H   UNL     1      43.294  -8.737   8.527  1.00  0.00     0.169 HD
BRANCH  13  16
HETATM   16  C   UNL     1      43.169  -8.916  10.906  1.00  0.00     0.142 A 
HETATM   17  O   UNL     1      42.401  -7.897  10.400  1.00  0.00    -0.317 OA
HETATM   18  C   UNL     1      42.218  -7.000  11.403  1.00  0.00     0.143 A 
HETATM   19  C   UNL     1      42.852  -7.417  12.549  1.00  0.00     0.027 A 
HETATM   20  C   UNL     1      43.468  -8.651  12.230  1.00  0.00     0.045 A 
ENDBRANCH  13  16
ENDBRANCH   7  12
ENDBRANCH   1   5
BRANCH   2  21
HETATM   21  CA  UNL     1      40.467 -14.584   4.079  1.00  0.00     0.141 C 
BRANCH  21  22
HETATM   22  C   UNL     1      40.229 -14.341   2.598  1.00  0.00    -0.033 A 
HETATM   23  C   UNL     1      40.181 -13.044   2.063  1.00  0.00     0.010 A 
HETATM   24  C   UNL     1      40.009 -12.846   0.689  1.00  0.00     0.017 A 
HETATM   25  C   UNL     1      39.879 -13.940  -0.178  1.00  0.00     0.047 A 
HETATM   26  C   UNL     1      39.923 -15.235   0.356  1.00  0.00     0.017 A 
HETATM   27  C   UNL     1      40.093 -15.433   1.728  1.00  0.00     0.010 A 
BRANCH  25  28
HETATM   28  C   UNL     1      39.737 -13.741  -1.669  1.00  0.00     0.417 C 
HETATM   29  F   UNL     1      40.827 -14.151  -2.376  1.00  0.00    -0.166 F 
HETATM   30  F   UNL     1      38.679 -14.422  -2.184  1.00  0.00    -0.166 F 
HETATM   31  F   UNL     1      39.544 -12.435  -2.010  1.00  0.00    -0.166 F 
ENDBRANCH  25  28
ENDBRANCH  21  22
BRANCH  21  32
HETATM   32  C   UNL     1      40.676 -16.094   4.365  1.00  0.00     0.194 C 
BRANCH  32  33
HETATM   33  O   UNL     1      39.831 -16.575   5.411  1.00  0.00    -0.399 OA
HETATM   34  H   UNL     1      40.043 -16.059   6.220  1.00  0.00     0.209 HD
ENDBRANCH  32  33
ENDBRANCH  21  32
ENDBRANCH   2  21
TORSDOF 8
ENDMDL
MODEL 10
REMARK VINA RESULT:      -7.5      5.431      9.674
REMARK  8 active torsions:
REMARK  status: ('A' for Active; 'I' for Inactive)
REMARK    1  A    between atoms: C_3  and  N_4 
REMARK       I    between atoms: N_4  and  C_5 
REMARK    2  A    between atoms: C_5  and  C_6 
REMARK    3  A    between atoms: C_13  and  C_14 
REMARK       I    between atoms: C_14  and  N_15 
REMARK    4  A    between atoms: N_15  and  CA_16 
REMARK    5  A    between atoms: CA_16  and  C_17 
REMARK    6  A    between atoms: CA_16  and  C_27 
REMARK    7  A    between atoms: C_20  and  C_21 
REMARK    8  A    between atoms: C_27  and  O_28 
ROOT
HETATM    1  C   UNL     1      39.827 -14.224  -0.198  1.00  0.00     0.252 C 
HETATM    2  N   UNL     1      40.048 -12.955  -0.684  1.00  0.00    -0.346 N 
HETATM    3  O   UNL     1      39.433 -15.148  -0.903  1.00  0.00    -0.268 OA
HETATM    4  H   UNL     1      40.163 -12.192  -0.030  1.00  0.00     0.163 HD
ENDROOT
BRANCH   1   5
HETATM    5  C   UNL     1      40.097 -14.455   1.242  1.00  0.00     0.034 A 
HETATM    6  C   UNL     1      40.842 -15.584   1.610  1.00  0.00     0.047 A 
HETATM    7  C   UNL     1      41.178 -15.836   2.952  1.00  0.00     0.042 A 
HETATM    8  C   UNL     1      40.845 -14.876   3.924  1.00  0.00    -0.035 A 
HETATM    9  C   UNL     1      41.320 -14.900   5.351  1.00  0.00     0.050 C 
HETATM   10  C   UNL     1      40.071 -13.756   3.543  1.00  0.00     0.010 A 
HETATM   11  C   UNL     1      39.696 -13.545   2.217  1.00  0.00     0.017 A 
BRANCH   7  12
HETATM   12  N   UNL     1      41.879 -17.040   3.171  1.00  0.00    -0.321 N 
HETATM   13  C   UNL     1      43.072 -17.469   2.615  1.00  0.00     0.279 C 
HETATM   14  O   UNL     1      43.775 -16.824   1.849  1.00  0.00    -0.265 OA
HETATM   15  H   UNL     1      41.586 -17.600   3.966  1.00  0.00     0.169 HD
BRANCH  13  16
HETATM   16  C   UNL     1      43.468 -18.784   3.092  1.00  0.00     0.142 A 
HETATM   17  O   UNL     1      43.911 -18.931   4.382  1.00  0.00    -0.317 OA
HETATM   18  C   UNL     1      44.214 -20.244   4.553  1.00  0.00     0.143 A 
HETATM   19  C   UNL     1      43.977 -20.950   3.399  1.00  0.00     0.027 A 
HETATM   20  C   UNL     1      43.498 -20.011   2.454  1.00  0.00     0.045 A 
ENDBRANCH  13  16
ENDBRANCH   7  12
ENDBRANCH   1   5
BRANCH   2  21
HETATM   21  CA  UNL     1      39.812 -12.623  -2.091  1.00  0.00     0.141 C 
BRANCH  21  22
HETATM   22  C   UNL     1      38.752 -11.540  -2.207  1.00  0.00    -0.033 A 
HETATM   23  C   UNL     1      38.723 -10.653  -3.295  1.00  0.00     0.010 A 
HETATM   24  C   UNL     1      37.710  -9.695  -3.406  1.00  0.00     0.017 A 
HETATM   25  C   UNL     1      36.707  -9.601  -2.431  1.00  0.00     0.047 A 
HETATM   26  C   UNL     1      36.738 -10.484  -1.343  1.00  0.00     0.017 A 
HETATM   27  C   UNL     1      37.751 -11.440  -1.231  1.00  0.00     0.010 A 
BRANCH  25  28
HETATM   28  C   UNL     1      35.583  -8.601  -2.562  1.00  0.00     0.417 C 
HETATM   29  F   UNL     1      35.841  -7.414  -1.945  1.00  0.00    -0.166 F 
HETATM   30  F   UNL     1      35.309  -8.296  -3.859  1.00  0.00    -0.166 F 
HETATM   31  F   UNL     1      34.413  -9.051  -2.028  1.00  0.00    -0.166 F 
ENDBRANCH  25  28
ENDBRANCH  21  22
BRANCH  21  32
HETATM   32  C   UNL     1      41.114 -12.203  -2.820  1.00  0.00     0.194 C 
BRANCH  32  33
HETATM   33  O   UNL     1      41.693 -13.273  -3.568  1.00  0.00    -0.399 OA
HETATM   34  H   UNL     1      41.296 -14.110  -3.239  1.00  0.00     0.209 HD
ENDBRANCH  32  33
ENDBRANCH  21  32
ENDBRANCH   2  21
TORSDOF 8
ENDMDL
