MODEL 1
REMARK VINA RESULT:      -9.6      0.000      0.000
REMARK  8 active torsions:
REMARK  status: ('A' for Active; 'I' for Inactive)
REMARK    1  A    between atoms: O_2  and  C_3 
REMARK    2  A    between atoms: C_6  and  N_7 
REMARK       I    between atoms: N_7  and  C_8 
REMARK    3  A    between atoms: C_8  and  C_9 
REMARK    4  A    between atoms: C_9  and  N_10 
REMARK    5  A    between atoms: N_13  and  C_14 
REMARK    6  A    between atoms: C_14  and  C_15 
REMARK    7  A    between atoms: C_30  and  C_31 
REMARK       I    between atoms: C_31  and  N_32 
REMARK    8  A    between atoms: N_32  and  C_33 
ROOT
HETATM    1  N   UNL     1      41.766 -11.991   4.310  1.00  0.00    -0.290 N 
HETATM    2  C   UNL     1      42.189 -11.877   2.993  1.00  0.00     0.332 C 
HETATM    3  O   UNL     1      43.261 -12.376   2.636  1.00  0.00    -0.246 OA
HETATM    4  N   UNL     1      41.370 -11.169   2.129  1.00  0.00    -0.261 N 
HETATM    5  C   UNL     1      40.292 -10.391   2.528  1.00  0.00     0.264 C 
HETATM    6  O   UNL     1      39.619  -9.704   1.763  1.00  0.00    -0.267 OA
HETATM    7  C   UNL     1      39.970 -10.390   3.965  1.00  0.00     0.059 A 
HETATM    8  C   UNL     1      40.692 -11.216   4.825  1.00  0.00     0.056 A 
HETATM    9  C   UNL     1      38.939  -9.570   4.446  1.00  0.00     0.020 A 
HETATM   10  C   UNL     1      38.639  -9.552   5.807  1.00  0.00     0.018 A 
HETATM   11  C   UNL     1      39.357 -10.363   6.690  1.00  0.00     0.034 A 
HETATM   12  C   UNL     1      40.351 -11.217   6.187  1.00  0.00     0.048 A 
ENDROOT
BRANCH   1  13
HETATM   13  C   UNL     1      42.556 -12.857   5.190  1.00  0.00     0.237 C 
BRANCH  13  14
HETATM   14  C   UNL     1      42.284 -14.335   4.902  1.00  0.00     0.240 C 
HETATM   15  N   UNL     1      43.412 -15.019   4.482  1.00  0.00    -0.326 N 
HETATM   16  H   UNL     1      44.282 -14.488   4.467  1.00  0.00     0.169 HD
HETATM   17  O   UNL     1      41.162 -14.804   5.085  1.00  0.00    -0.271 OA
BRANCH  15  18
HETATM   18  C   UNL     1      43.494 -16.367   4.080  1.00  0.00     0.034 A 
HETATM   19  C   UNL     1      44.102 -17.266   4.965  1.00  0.00     0.032 A 
HETATM   20  C   UNL     1      44.259 -18.618   4.626  1.00  0.00     0.039 A 
HETATM   21  C   UNL     1      43.807 -19.086   3.394  1.00  0.00     0.068 A 
HETATM   22  C   UNL     1      43.182 -18.197   2.521  1.00  0.00     0.039 A 
HETATM   23  C   UNL     1      43.028 -16.846   2.857  1.00  0.00     0.032 A 
BRANCH  21  24
HETATM   24  O   UNL     1      43.906 -20.369   2.934  1.00  0.00    -0.356 OA
HETATM   25  C   UNL     1      43.515 -20.598   1.586  1.00  0.00     0.210 C 
ENDBRANCH  21  24
ENDBRANCH  15  18
ENDBRANCH  13  14
ENDBRANCH   1  13
BRANCH   4  26
HETATM   26  C   UNL     1      41.671 -11.222   0.704  1.00  0.00     0.175 C 
BRANCH  26  27
HETATM   27  C   UNL     1      40.949 -12.376   0.034  1.00  0.00    -0.037 A 
HETATM   28  C   UNL     1      40.559 -12.282  -1.312  1.00  0.00     0.048 A 
HETATM   29  C   UNL     1      39.870 -13.341  -1.866  1.00  0.00     0.105 A 
HETATM   30  C   UNL     1      39.555 -14.463  -1.137  1.00  0.00     0.105 A 
HETATM   31  O   UNL     1      39.422 -13.414  -3.148  1.00  0.00    -0.323 OA
HETATM   32  O   UNL     1      38.869 -15.382  -1.867  1.00  0.00    -0.323 OA
HETATM   33  C   UNL     1      39.913 -14.591   0.186  1.00  0.00     0.040 A 
HETATM   34  C   UNL     1      38.793 -14.713  -3.143  1.00  0.00     0.352 A 
HETATM   35  C   UNL     1      40.618 -13.536   0.776  1.00  0.00     0.012 A 
ENDBRANCH  26  27
ENDBRANCH   4  26
BRANCH  11  36
HETATM   36  C   UNL     1      39.042 -10.295   8.146  1.00  0.00     0.252 C 
HETATM   37  N   UNL     1      39.560  -9.219   8.840  1.00  0.00    -0.352 N 
HETATM   38  H   UNL     1      39.959  -8.443   8.327  1.00  0.00     0.163 HD
HETATM   39  O   UNL     1      38.334 -11.157   8.653  1.00  0.00    -0.268 OA
BRANCH  37  40
HETATM   40  C   UNL     1      39.245  -8.975  10.245  1.00  0.00     0.084 C 
HETATM   41  C   UNL     1      40.263  -9.674  11.154  1.00  0.00     0.025 C 
HETATM   42  C   UNL     1      41.637  -9.007  11.137  1.00  0.00     0.002 C 
HETATM   43  C   UNL     1      41.543  -7.516  11.440  1.00  0.00     0.000 C 
HETATM   44  C   UNL     1      40.566  -6.808  10.507  1.00  0.00     0.002 C 
HETATM   45  C   UNL     1      39.186  -7.468  10.527  1.00  0.00     0.025 C 
ENDBRANCH  37  40
ENDBRANCH  11  36
TORSDOF 8
ENDMDL
MODEL 2
REMARK VINA RESULT:      -9.4      2.683      8.777
REMARK  8 active torsions:
REMARK  status: ('A' for Active; 'I' for Inactive)
REMARK    1  A    between atoms: O_2  and  C_3 
REMARK    2  A    between atoms: C_6  and  N_7 
REMARK       I    between atoms: N_7  and  C_8 
REMARK    3  A    between atoms: C_8  and  C_9 
REMARK    4  A    between atoms: C_9  and  N_10 
REMARK    5  A    between atoms: N_13  and  C_14 
REMARK    6  A    between atoms: C_14  and  C_15 
REMARK    7  A    between atoms: C_30  and  C_31 
REMARK       I    between atoms: C_31  and  N_32 
REMARK    8  A    between atoms: N_32  and  C_33 
ROOT
HETATM    1  N   UNL     1      42.231 -10.000   6.332  1.00  0.00    -0.290 N 
HETATM    2  C   UNL     1      42.096  -9.203   7.461  1.00  0.00     0.332 C 
HETATM    3  O   UNL     1      43.006  -9.141   8.294  1.00  0.00    -0.246 OA
HETATM    4  N   UNL     1      40.902  -8.517   7.607  1.00  0.00    -0.261 N 
HETATM    5  C   UNL     1      39.768  -8.739   6.837  1.00  0.00     0.264 C 
HETATM    6  O   UNL     1      38.690  -8.181   7.024  1.00  0.00    -0.267 OA
HETATM    7  C   UNL     1      39.887  -9.725   5.750  1.00  0.00     0.059 A 
HETATM    8  C   UNL     1      41.126 -10.313   5.496  1.00  0.00     0.056 A 
HETATM    9  C   UNL     1      38.761 -10.050   4.980  1.00  0.00     0.020 A 
HETATM   10  C   UNL     1      38.863 -10.995   3.959  1.00  0.00     0.018 A 
HETATM   11  C   UNL     1      40.090 -11.605   3.695  1.00  0.00     0.034 A 
HETATM   12  C   UNL     1      41.221 -11.232   4.438  1.00  0.00     0.048 A 
ENDROOT
BRANCH   1  13
HETATM   13  C   UNL     1      43.543 -10.612   6.103  1.00  0.00     0.237 C 
BRANCH  13  14
HETATM   14  C   UNL     1      43.650 -11.970   6.799  1.00  0.00     0.240 C 
HETATM   15  N   UNL     1      43.355 -13.031   5.959  1.00  0.00    -0.326 N 
HETATM   16  H   UNL     1      43.161 -12.796   4.986  1.00  0.00     0.169 HD
HETATM   17  O   UNL     1      44.004 -12.036   7.975  1.00  0.00    -0.271 OA
BRANCH  15  18
HETATM   18  C   UNL     1      43.300 -14.398   6.296  1.00  0.00     0.034 A 
HETATM   19  C   UNL     1      44.496 -15.124   6.235  1.00  0.00     0.032 A 
HETATM   20  C   UNL     1      44.521 -16.498   6.517  1.00  0.00     0.039 A 
HETATM   21  C   UNL     1      43.346 -17.161   6.864  1.00  0.00     0.068 A 
HETATM   22  C   UNL     1      42.159 -16.436   6.947  1.00  0.00     0.039 A 
HETATM   23  C   UNL     1      42.132 -15.065   6.661  1.00  0.00     0.032 A 
BRANCH  21  24
HETATM   24  O   UNL     1      43.227 -18.492   7.151  1.00  0.00    -0.356 OA
HETATM   25  C   UNL     1      43.549 -19.403   6.107  1.00  0.00     0.210 C 
ENDBRANCH  21  24
ENDBRANCH  15  18
ENDBRANCH  13  14
ENDBRANCH   1  13
BRANCH   4  26
HETATM   26  C   UNL     1      40.817  -7.508   8.655  1.00  0.00     0.175 C 
BRANCH  26  27
HETATM   27  C   UNL     1      40.653  -8.149  10.020  1.00  0.00    -0.037 A 
HETATM   28  C   UNL     1      41.357  -7.646  11.128  1.00  0.00     0.048 A 
HETATM   29  C   UNL     1      41.207  -8.287  12.341  1.00  0.00     0.105 A 
HETATM   30  C   UNL     1      40.403  -9.392  12.482  1.00  0.00     0.105 A 
HETATM   31  O   UNL     1      41.811  -7.932  13.507  1.00  0.00    -0.323 OA
HETATM   32  O   UNL     1      40.401  -9.874  13.754  1.00  0.00    -0.323 OA
HETATM   33  C   UNL     1      39.702  -9.920  11.421  1.00  0.00     0.040 A 
HETATM   34  C   UNL     1      41.292  -8.940  14.399  1.00  0.00     0.352 A 
HETATM   35  C   UNL     1      39.830  -9.289  10.179  1.00  0.00     0.012 A 
ENDBRANCH  26  27
ENDBRANCH   4  26
BRANCH  11  36
HETATM   36  C   UNL     1      40.162 -12.640   2.623  1.00  0.00     0.252 C 
HETATM   37  N   UNL     1      41.270 -13.464   2.633  1.00  0.00    -0.352 N 
HETATM   38  H   UNL     1      41.877 -13.469   3.443  1.00  0.00     0.163 HD
HETATM   39  O   UNL     1      39.249 -12.735   1.810  1.00  0.00    -0.268 OA
BRANCH  37  40
HETATM   40  C   UNL     1      41.417 -14.583   1.706  1.00  0.00     0.084 C 
HETATM   41  C   UNL     1      42.882 -15.028   1.628  1.00  0.00     0.025 C 
HETATM   42  C   UNL     1      43.356 -15.748   2.890  1.00  0.00     0.002 C 
HETATM   43  C   UNL     1      42.435 -16.907   3.256  1.00  0.00     0.000 C 
HETATM   44  C   UNL     1      40.982 -16.458   3.381  1.00  0.00     0.002 C 
HETATM   45  C   UNL     1      40.500 -15.744   2.116  1.00  0.00     0.025 C 
ENDBRANCH  37  40
ENDBRANCH  11  36
TORSDOF 8
ENDMDL
MODEL 3
REMARK VINA RESULT:      -9.3      2.663      8.312
REMARK  8 active torsions:
REMARK  status: ('A' for Active; 'I' for Inactive)
REMARK    1  A    between atoms: O_2  and  C_3 
REMARK    2  A    between atoms: C_6  and  N_7 
REMARK       I    between atoms: N_7  and  C_8 
REMARK    3  A    between atoms: C_8  and  C_9 
REMARK    4  A    between atoms: C_9  and  N_10 
REMARK    5  A    between atoms: N_13  and  C_14 
REMARK    6  A    between atoms: C_14  and  C_15 
REMARK    7  A    between atoms: C_30  and  C_31 
REMARK       I    between atoms: C_31  and  N_32 
REMARK    8  A    between atoms: N_32  and  C_33 
ROOT
HETATM    1  N   UNL     1      39.940 -11.658   3.967  1.00  0.00    -0.290 N 
HETATM    2  C   UNL     1      39.910 -11.436   5.336  1.00  0.00     0.332 C 
HETATM    3  O   UNL     1      39.586 -12.343   6.109  1.00  0.00    -0.246 OA
HETATM    4  N   UNL     1      40.233 -10.163   5.774  1.00  0.00    -0.261 N 
HETATM    5  C   UNL     1      40.365  -9.056   4.946  1.00  0.00     0.264 C 
HETATM    6  O   UNL     1      40.576  -7.915   5.350  1.00  0.00    -0.267 OA
HETATM    7  C   UNL     1      40.217  -9.289   3.499  1.00  0.00     0.059 A 
HETATM    8  C   UNL     1      40.041 -10.591   3.034  1.00  0.00     0.056 A 
HETATM    9  C   UNL     1      40.267  -8.204   2.612  1.00  0.00     0.020 A 
HETATM   10  C   UNL     1      40.112  -8.415   1.243  1.00  0.00     0.018 A 
HETATM   11  C   UNL     1      39.922  -9.710   0.754  1.00  0.00     0.034 A 
HETATM   12  C   UNL     1      39.927 -10.792   1.648  1.00  0.00     0.048 A 
ENDROOT
BRANCH   1  13
HETATM   13  C   UNL     1      39.739 -13.037   3.512  1.00  0.00     0.237 C 
BRANCH  13  14
HETATM   14  C   UNL     1      41.047 -13.828   3.542  1.00  0.00     0.240 C 
HETATM   15  N   UNL     1      40.853 -15.183   3.751  1.00  0.00    -0.326 N 
HETATM   16  H   UNL     1      39.884 -15.497   3.802  1.00  0.00     0.169 HD
HETATM   17  O   UNL     1      42.120 -13.256   3.356  1.00  0.00    -0.271 OA
BRANCH  15  18
HETATM   18  C   UNL     1      41.842 -16.177   3.892  1.00  0.00     0.034 A 
HETATM   19  C   UNL     1      42.213 -16.884   2.742  1.00  0.00     0.032 A 
HETATM   20  C   UNL     1      43.162 -17.915   2.804  1.00  0.00     0.039 A 
HETATM   21  C   UNL     1      43.751 -18.250   4.021  1.00  0.00     0.068 A 
HETATM   22  C   UNL     1      43.400 -17.532   5.163  1.00  0.00     0.039 A 
HETATM   23  C   UNL     1      42.450 -16.505   5.103  1.00  0.00     0.032 A 
BRANCH  21  24
HETATM   24  O   UNL     1      44.676 -19.235   4.224  1.00  0.00    -0.356 OA
HETATM   25  C   UNL     1      44.275 -20.333   5.032  1.00  0.00     0.210 C 
ENDBRANCH  21  24
ENDBRANCH  15  18
ENDBRANCH  13  14
ENDBRANCH   1  13
BRANCH   4  26
HETATM   26  C   UNL     1      40.427  -9.959   7.204  1.00  0.00     0.175 C 
BRANCH  26  27
HETATM   27  C   UNL     1      41.892  -9.740   7.532  1.00  0.00    -0.037 A 
HETATM   28  C   UNL     1      42.863 -10.650   7.079  1.00  0.00     0.048 A 
HETATM   29  C   UNL     1      44.178 -10.430   7.437  1.00  0.00     0.105 A 
HETATM   30  C   UNL     1      44.548  -9.364   8.221  1.00  0.00     0.105 A 
HETATM   31  O   UNL     1      45.237 -11.207   7.085  1.00  0.00    -0.323 OA
HETATM   32  O   UNL     1      45.887  -9.336   8.461  1.00  0.00    -0.323 OA
HETATM   33  C   UNL     1      43.627  -8.455   8.690  1.00  0.00     0.040 A 
HETATM   34  C   UNL     1      46.317 -10.505   7.733  1.00  0.00     0.352 A 
HETATM   35  C   UNL     1      42.286  -8.647   8.341  1.00  0.00     0.012 A 
ENDBRANCH  26  27
ENDBRANCH   4  26
BRANCH  11  36
HETATM   36  C   UNL     1      39.720  -9.902  -0.711  1.00  0.00     0.252 C 
HETATM   37  N   UNL     1      39.796 -11.199  -1.180  1.00  0.00    -0.352 N 
HETATM   38  H   UNL     1      39.794 -11.966  -0.518  1.00  0.00     0.163 HD
HETATM   39  O   UNL     1      39.477  -8.933  -1.422  1.00  0.00    -0.268 OA
BRANCH  37  40
HETATM   40  C   UNL     1      39.518 -11.542  -2.572  1.00  0.00     0.084 C 
HETATM   41  C   UNL     1      40.489 -12.621  -3.064  1.00  0.00     0.025 C 
HETATM   42  C   UNL     1      40.211 -13.996  -2.459  1.00  0.00     0.002 C 
HETATM   43  C   UNL     1      38.758 -14.415  -2.655  1.00  0.00     0.000 C 
HETATM   44  C   UNL     1      37.789 -13.363  -2.124  1.00  0.00     0.002 C 
HETATM   45  C   UNL     1      38.058 -11.986  -2.733  1.00  0.00     0.025 C 
ENDBRANCH  37  40
ENDBRANCH  11  36
TORSDOF 8
ENDMDL
MODEL 4
REMARK VINA RESULT:      -9.2      3.221      8.501
REMARK  8 active torsions:
REMARK  status: ('A' for Active; 'I' for Inactive)
REMARK    1  A    between atoms: O_2  and  C_3 
REMARK    2  A    between atoms: C_6  and  N_7 
REMARK       I    between atoms: N_7  and  C_8 
REMARK    3  A    between atoms: C_8  and  C_9 
REMARK    4  A    between atoms: C_9  and  N_10 
REMARK    5  A    between atoms: N_13  and  C_14 
REMARK    6  A    between atoms: C_14  and  C_15 
REMARK    7  A    between atoms: C_30  and  C_31 
REMARK       I    between atoms: C_31  and  N_32 
REMARK    8  A    between atoms: N_32  and  C_33 
ROOT
HETATM    1  N   UNL     1      40.488 -11.911   1.667  1.00  0.00    -0.290 N 
HETATM    2  C   UNL     1      40.367 -13.101   2.371  1.00  0.00     0.332 C 
HETATM    3  O   UNL     1      40.591 -13.134   3.585  1.00  0.00    -0.246 OA
HETATM    4  N   UNL     1      40.010 -14.226   1.647  1.00  0.00    -0.261 N 
HETATM    5  C   UNL     1      39.985 -14.294   0.261  1.00  0.00     0.264 C 
HETATM    6  O   UNL     1      39.743 -15.318  -0.374  1.00  0.00    -0.267 OA
HETATM    7  C   UNL     1      40.292 -13.053  -0.470  1.00  0.00     0.059 A 
HETATM    8  C   UNL     1      40.505 -11.876   0.247  1.00  0.00     0.056 A 
HETATM    9  C   UNL     1      40.354 -13.068  -1.871  1.00  0.00     0.020 A 
HETATM   10  C   UNL     1      40.660 -11.900  -2.568  1.00  0.00     0.018 A 
HETATM   11  C   UNL     1      40.889 -10.712  -1.871  1.00  0.00     0.034 A 
HETATM   12  C   UNL     1      40.771 -10.699  -0.472  1.00  0.00     0.048 A 
ENDROOT
BRANCH   1  13
HETATM   13  C   UNL     1      40.724 -10.695   2.451  1.00  0.00     0.237 C 
BRANCH  13  14
HETATM   14  C   UNL     1      41.984 -10.825   3.309  1.00  0.00     0.240 C 
HETATM   15  N   UNL     1      41.714 -10.816   4.667  1.00  0.00    -0.326 N 
HETATM   16  H   UNL     1      40.730 -10.783   4.931  1.00  0.00     0.169 HD
HETATM   17  O   UNL     1      43.084 -10.956   2.776  1.00  0.00    -0.271 OA
BRANCH  15  18
HETATM   18  C   UNL     1      42.645 -10.856   5.724  1.00  0.00     0.034 A 
HETATM   19  C   UNL     1      42.633  -9.790   6.632  1.00  0.00     0.032 A 
HETATM   20  C   UNL     1      43.551  -9.734   7.691  1.00  0.00     0.039 A 
HETATM   21  C   UNL     1      44.495 -10.746   7.851  1.00  0.00     0.068 A 
HETATM   22  C   UNL     1      44.495 -11.819   6.961  1.00  0.00     0.039 A 
HETATM   23  C   UNL     1      43.580 -11.874   5.902  1.00  0.00     0.032 A 
BRANCH  21  24
HETATM   24  O   UNL     1      45.450 -10.809   8.826  1.00  0.00    -0.356 OA
HETATM   25  C   UNL     1      45.146 -10.177  10.063  1.00  0.00     0.210 C 
ENDBRANCH  21  24
ENDBRANCH  15  18
ENDBRANCH  13  14
ENDBRANCH   1  13
BRANCH   4  26
HETATM   26  C   UNL     1      39.659 -15.432   2.386  1.00  0.00     0.175 C 
BRANCH  26  27
HETATM   27  C   UNL     1      40.894 -16.099   2.964  1.00  0.00    -0.037 A 
HETATM   28  C   UNL     1      41.027 -16.261   4.353  1.00  0.00     0.048 A 
HETATM   29  C   UNL     1      42.185 -16.837   4.834  1.00  0.00     0.105 A 
HETATM   30  C   UNL     1      43.196 -17.240   3.995  1.00  0.00     0.105 A 
HETATM   31  O   UNL     1      42.474 -17.068   6.142  1.00  0.00    -0.323 OA
HETATM   32  O   UNL     1      44.249 -17.774   4.671  1.00  0.00    -0.323 OA
HETATM   33  C   UNL     1      43.108 -17.093   2.630  1.00  0.00     0.040 A 
HETATM   34  C   UNL     1      43.781 -17.666   6.031  1.00  0.00     0.352 A 
HETATM   35  C   UNL     1      41.944 -16.517   2.111  1.00  0.00     0.012 A 
ENDBRANCH  26  27
ENDBRANCH   4  26
BRANCH  11  36
HETATM   36  C   UNL     1      41.252  -9.486  -2.640  1.00  0.00     0.252 C 
HETATM   37  N   UNL     1      41.874  -8.476  -1.933  1.00  0.00    -0.352 N 
HETATM   38  H   UNL     1      42.223  -8.665  -1.002  1.00  0.00     0.163 HD
HETATM   39  O   UNL     1      41.014  -9.432  -3.841  1.00  0.00    -0.268 OA
BRANCH  37  40
HETATM   40  C   UNL     1      42.375  -7.267  -2.581  1.00  0.00     0.084 C 
HETATM   41  C   UNL     1      41.259  -6.225  -2.712  1.00  0.00     0.025 C 
HETATM   42  C   UNL     1      40.873  -5.592  -1.375  1.00  0.00     0.002 C 
HETATM   43  C   UNL     1      42.087  -5.027  -0.649  1.00  0.00     0.000 C 
HETATM   44  C   UNL     1      43.183  -6.074  -0.476  1.00  0.00     0.002 C 
HETATM   45  C   UNL     1      43.578  -6.705  -1.813  1.00  0.00     0.025 C 
ENDBRANCH  37  40
ENDBRANCH  11  36
TORSDOF 8
ENDMDL
MODEL 5
REMARK VINA RESULT:      -9.2      2.945      7.136
REMARK  8 active torsions:
REMARK  status: ('A' for Active; 'I' for Inactive)
REMARK    1  A    between atoms: O_2  and  C_3 
REMARK    2  A    between atoms: C_6  and  N_7 
REMARK       I    between atoms: N_7  and  C_8 
REMARK    3  A    between atoms: C_8  and  C_9 
REMARK    4  A    between atoms: C_9  and  N_10 
REMARK    5  A    between atoms: N_13  and  C_14 
REMARK    6  A    between atoms: C_14  and  C_15 
REMARK    7  A    between atoms: C_30  and  C_31 
REMARK       I    between atoms: C_31  and  N_32 
REMARK    8  A    between atoms: N_32  and  C_33 
ROOT
HETATM    1  N   UNL     1      40.565 -10.684   4.837  1.00  0.00    -0.290 N 
HETATM    2  C   UNL     1      39.592 -11.229   4.011  1.00  0.00     0.332 C 
HETATM    3  O   UNL     1      38.597 -10.568   3.697  1.00  0.00    -0.246 OA
HETATM    4  N   UNL     1      39.785 -12.534   3.589  1.00  0.00    -0.261 N 
HETATM    5  C   UNL     1      40.747 -13.392   4.102  1.00  0.00     0.264 C 
HETATM    6  O   UNL     1      40.861 -14.572   3.777  1.00  0.00    -0.267 OA
HETATM    7  C   UNL     1      41.662 -12.835   5.112  1.00  0.00     0.059 A 
HETATM    8  C   UNL     1      41.575 -11.482   5.437  1.00  0.00     0.056 A 
HETATM    9  C   UNL     1      42.611 -13.666   5.724  1.00  0.00     0.020 A 
HETATM   10  C   UNL     1      43.470 -13.149   6.694  1.00  0.00     0.018 A 
HETATM   11  C   UNL     1      43.393 -11.799   7.044  1.00  0.00     0.034 A 
HETATM   12  C   UNL     1      42.475 -10.967   6.385  1.00  0.00     0.048 A 
ENDROOT
BRANCH   1  13
HETATM   13  C   UNL     1      40.436  -9.262   5.167  1.00  0.00     0.237 C 
BRANCH  13  14
HETATM   14  C   UNL     1      39.656  -9.063   6.468  1.00  0.00     0.240 C 
HETATM   15  N   UNL     1      40.439  -8.561   7.494  1.00  0.00    -0.326 N 
HETATM   16  H   UNL     1      41.404  -8.333   7.256  1.00  0.00     0.169 HD
HETATM   17  O   UNL     1      38.453  -9.311   6.512  1.00  0.00    -0.271 OA
BRANCH  15  18
HETATM   18  C   UNL     1      40.050  -8.321   8.827  1.00  0.00     0.034 A 
HETATM   19  C   UNL     1      39.721  -9.434   9.611  1.00  0.00     0.032 A 
HETATM   20  C   UNL     1      39.288  -9.280  10.936  1.00  0.00     0.039 A 
HETATM   21  C   UNL     1      39.180  -8.007  11.493  1.00  0.00     0.068 A 
HETATM   22  C   UNL     1      39.528  -6.900  10.721  1.00  0.00     0.039 A 
HETATM   23  C   UNL     1      39.957  -7.052   9.397  1.00  0.00     0.032 A 
BRANCH  21  24
HETATM   24  O   UNL     1      38.761  -7.715  12.760  1.00  0.00    -0.356 OA
HETATM   25  C   UNL     1      37.691  -6.788  12.884  1.00  0.00     0.210 C 
ENDBRANCH  21  24
ENDBRANCH  15  18
ENDBRANCH  13  14
ENDBRANCH   1  13
BRANCH   4  26
HETATM   26  C   UNL     1      38.904 -13.054   2.551  1.00  0.00     0.175 C 
BRANCH  26  27
HETATM   27  C   UNL     1      39.524 -12.893   1.175  1.00  0.00    -0.037 A 
HETATM   28  C   UNL     1      39.691 -11.614   0.618  1.00  0.00     0.048 A 
HETATM   29  C   UNL     1      40.222 -11.520  -0.651  1.00  0.00     0.105 A 
HETATM   30  C   UNL     1      40.578 -12.635  -1.373  1.00  0.00     0.105 A 
HETATM   31  O   UNL     1      40.451 -10.367  -1.334  1.00  0.00    -0.323 OA
HETATM   32  O   UNL     1      41.073 -12.323  -2.600  1.00  0.00    -0.323 OA
HETATM   33  C   UNL     1      40.424 -13.905  -0.866  1.00  0.00     0.040 A 
HETATM   34  C   UNL     1      40.994 -10.883  -2.567  1.00  0.00     0.352 A 
HETATM   35  C   UNL     1      39.892 -14.033   0.421  1.00  0.00     0.012 A 
ENDBRANCH  26  27
ENDBRANCH   4  26
BRANCH  11  36
HETATM   36  C   UNL     1      44.298 -11.281   8.111  1.00  0.00     0.252 C 
HETATM   37  N   UNL     1      43.698 -10.886   9.290  1.00  0.00    -0.352 N 
HETATM   38  H   UNL     1      42.729 -11.129   9.459  1.00  0.00     0.163 HD
HETATM   39  O   UNL     1      45.508 -11.249   7.917  1.00  0.00    -0.268 OA
BRANCH  37  40
HETATM   40  C   UNL     1      44.471 -10.458  10.452  1.00  0.00     0.084 C 
HETATM   41  C   UNL     1      44.674  -8.938  10.433  1.00  0.00     0.025 C 
HETATM   42  C   UNL     1      43.395  -8.161  10.745  1.00  0.00     0.002 C 
HETATM   43  C   UNL     1      42.757  -8.627  12.048  1.00  0.00     0.000 C 
HETATM   44  C   UNL     1      42.511 -10.133  12.053  1.00  0.00     0.002 C 
HETATM   45  C   UNL     1      43.791 -10.916  11.749  1.00  0.00     0.025 C 
ENDBRANCH  37  40
ENDBRANCH  11  36
TORSDOF 8
ENDMDL
MODEL 6
REMARK VINA RESULT:      -9.2      3.396     12.013
REMARK  8 active torsions:
REMARK  status: ('A' for Active; 'I' for Inactive)
REMARK    1  A    between atoms: O_2  and  C_3 
REMARK    2  A    between atoms: C_6  and  N_7 
REMARK       I    between atoms: N_7  and  C_8 
REMARK    3  A    between atoms: C_8  and  C_9 
REMARK    4  A    between atoms: C_9  and  N_10 
REMARK    5  A    between atoms: N_13  and  C_14 
REMARK    6  A    between atoms: C_14  and  C_15 
REMARK    7  A    between atoms: C_30  and  C_31 
REMARK       I    between atoms: C_31  and  N_32 
REMARK    8  A    between atoms: N_32  and  C_33 
ROOT
HETATM    1  N   UNL     1      42.182  -9.101   7.671  1.00  0.00    -0.290 N 
HETATM    2  C   UNL     1      42.925  -8.486   8.669  1.00  0.00     0.332 C 
HETATM    3  O   UNL     1      42.691  -7.316   8.989  1.00  0.00    -0.246 OA
HETATM    4  N   UNL     1      43.931  -9.234   9.255  1.00  0.00    -0.261 N 
HETATM    5  C   UNL     1      44.390 -10.452   8.772  1.00  0.00     0.264 C 
HETATM    6  O   UNL     1      45.335 -11.071   9.254  1.00  0.00    -0.267 OA
HETATM    7  C   UNL     1      43.694 -11.003   7.597  1.00  0.00     0.059 A 
HETATM    8  C   UNL     1      42.582 -10.334   7.088  1.00  0.00     0.056 A 
HETATM    9  C   UNL     1      44.151 -12.194   7.015  1.00  0.00     0.020 A 
HETATM   10  C   UNL     1      43.507 -12.713   5.892  1.00  0.00     0.018 A 
HETATM   11  C   UNL     1      42.398 -12.053   5.357  1.00  0.00     0.034 A 
HETATM   12  C   UNL     1      41.920 -10.891   5.982  1.00  0.00     0.048 A 
ENDROOT
BRANCH   1  13
HETATM   13  C   UNL     1      41.027  -8.364   7.150  1.00  0.00     0.237 C 
BRANCH  13  14
HETATM   14  C   UNL     1      39.925  -8.244   8.204  1.00  0.00     0.240 C 
HETATM   15  N   UNL     1      40.152  -7.219   9.107  1.00  0.00    -0.326 N 
HETATM   16  H   UNL     1      40.976  -6.642   8.937  1.00  0.00     0.169 HD
HETATM   17  O   UNL     1      38.950  -8.992   8.166  1.00  0.00    -0.271 OA
BRANCH  15  18
HETATM   18  C   UNL     1      39.370  -6.879  10.228  1.00  0.00     0.034 A 
HETATM   19  C   UNL     1      38.653  -5.677  10.173  1.00  0.00     0.032 A 
HETATM   20  C   UNL     1      37.881  -5.246  11.261  1.00  0.00     0.039 A 
HETATM   21  C   UNL     1      37.818  -6.016  12.421  1.00  0.00     0.068 A 
HETATM   22  C   UNL     1      38.513  -7.223  12.470  1.00  0.00     0.039 A 
HETATM   23  C   UNL     1      39.287  -7.652  11.385  1.00  0.00     0.032 A 
BRANCH  21  24
HETATM   24  O   UNL     1      37.117  -5.710  13.553  1.00  0.00    -0.356 OA
HETATM   25  C   UNL     1      37.290  -4.400  14.079  1.00  0.00     0.210 C 
ENDBRANCH  21  24
ENDBRANCH  15  18
ENDBRANCH  13  14
ENDBRANCH   1  13
BRANCH   4  26
HETATM   26  C   UNL     1      44.575  -8.698  10.449  1.00  0.00     0.175 C 
BRANCH  26  27
HETATM   27  C   UNL     1      43.646  -8.764  11.647  1.00  0.00    -0.037 A 
HETATM   28  C   UNL     1      43.398  -7.613  12.415  1.00  0.00     0.048 A 
HETATM   29  C   UNL     1      42.579  -7.731  13.519  1.00  0.00     0.105 A 
HETATM   30  C   UNL     1      42.017  -8.932  13.881  1.00  0.00     0.105 A 
HETATM   31  O   UNL     1      42.235  -6.723  14.364  1.00  0.00    -0.323 OA
HETATM   32  O   UNL     1      41.251  -8.831  15.000  1.00  0.00    -0.323 OA
HETATM   33  C   UNL     1      42.241 -10.083  13.159  1.00  0.00     0.040 A 
HETATM   34  C   UNL     1      41.390  -7.427  15.298  1.00  0.00     0.352 A 
HETATM   35  C   UNL     1      43.064  -9.995  12.031  1.00  0.00     0.012 A 
ENDBRANCH  26  27
ENDBRANCH   4  26
BRANCH  11  36
HETATM   36  C   UNL     1      41.753 -12.610   4.133  1.00  0.00     0.252 C 
HETATM   37  N   UNL     1      41.934 -13.959   3.899  1.00  0.00    -0.352 N 
HETATM   38  H   UNL     1      42.318 -14.542   4.631  1.00  0.00     0.163 HD
HETATM   39  O   UNL     1      41.085 -11.876   3.413  1.00  0.00    -0.268 OA
BRANCH  37  40
HETATM   40  C   UNL     1      41.275 -14.653   2.796  1.00  0.00     0.084 C 
HETATM   41  C   UNL     1      42.132 -14.583   1.527  1.00  0.00     0.025 C 
HETATM   42  C   UNL     1      43.380 -15.462   1.600  1.00  0.00     0.002 C 
HETATM   43  C   UNL     1      43.036 -16.900   1.968  1.00  0.00     0.000 C 
HETATM   44  C   UNL     1      42.221 -16.977   3.255  1.00  0.00     0.002 C 
HETATM   45  C   UNL     1      40.966 -16.105   3.184  1.00  0.00     0.025 C 
ENDBRANCH  37  40
ENDBRANCH  11  36
TORSDOF 8
ENDMDL
MODEL 7
REMARK VINA RESULT:      -9.1      2.032      2.916
REMARK  8 active torsions:
REMARK  status: ('A' for Active; 'I' for Inactive)
REMARK    1  A    between atoms: O_2  and  C_3 
REMARK    2  A    between atoms: C_6  and  N_7 
REMARK       I    between atoms: N_7  and  C_8 
REMARK    3  A    between atoms: C_8  and  C_9 
REMARK    4  A    between atoms: C_9  and  N_10 
REMARK    5  A    between atoms: N_13  and  C_14 
REMARK    6  A    between atoms: C_14  and  C_15 
REMARK    7  A    between atoms: C_30  and  C_31 
REMARK       I    between atoms: C_31  and  N_32 
REMARK    8  A    between atoms: N_32  and  C_33 
ROOT
HETATM    1  N   UNL     1      41.269 -12.090   4.228  1.00  0.00    -0.290 N 
HETATM    2  C   UNL     1      41.093 -12.327   2.872  1.00  0.00     0.332 C 
HETATM    3  O   UNL     1      41.950 -12.943   2.230  1.00  0.00    -0.246 OA
HETATM    4  N   UNL     1      39.941 -11.825   2.290  1.00  0.00    -0.261 N 
HETATM    5  C   UNL     1      39.077 -10.928   2.903  1.00  0.00     0.264 C 
HETATM    6  O   UNL     1      38.099 -10.428   2.351  1.00  0.00    -0.267 OA
HETATM    7  C   UNL     1      39.386 -10.555   4.293  1.00  0.00     0.059 A 
HETATM    8  C   UNL     1      40.457 -11.168   4.941  1.00  0.00     0.056 A 
HETATM    9  C   UNL     1      38.595  -9.599   4.948  1.00  0.00     0.020 A 
HETATM   10  C   UNL     1      38.891  -9.229   6.259  1.00  0.00     0.018 A 
HETATM   11  C   UNL     1      39.967  -9.821   6.925  1.00  0.00     0.034 A 
HETATM   12  C   UNL     1      40.717 -10.814   6.275  1.00  0.00     0.048 A 
ENDROOT
BRANCH   1  13
HETATM   13  C   UNL     1      42.412 -12.740   4.874  1.00  0.00     0.237 C 
BRANCH  13  14
HETATM   14  C   UNL     1      42.277 -14.263   4.840  1.00  0.00     0.240 C 
HETATM   15  N   UNL     1      43.224 -14.870   4.031  1.00  0.00    -0.326 N 
HETATM   16  H   UNL     1      43.919 -14.254   3.610  1.00  0.00     0.169 HD
HETATM   17  O   UNL     1      41.415 -14.823   5.515  1.00  0.00    -0.271 OA
BRANCH  15  18
HETATM   18  C   UNL     1      43.341 -16.242   3.733  1.00  0.00     0.034 A 
HETATM   19  C   UNL     1      43.966 -17.057   4.685  1.00  0.00     0.032 A 
HETATM   20  C   UNL     1      44.156 -18.426   4.449  1.00  0.00     0.039 A 
HETATM   21  C   UNL     1      43.721 -18.996   3.255  1.00  0.00     0.068 A 
HETATM   22  C   UNL     1      43.078 -18.192   2.316  1.00  0.00     0.039 A 
HETATM   23  C   UNL     1      42.891 -16.824   2.548  1.00  0.00     0.032 A 
BRANCH  21  24
HETATM   24  O   UNL     1      43.853 -20.308   2.894  1.00  0.00    -0.356 OA
HETATM   25  C   UNL     1      43.944 -21.257   3.949  1.00  0.00     0.210 C 
ENDBRANCH  21  24
ENDBRANCH  15  18
ENDBRANCH  13  14
ENDBRANCH   1  13
BRANCH   4  26
HETATM   26  C   UNL     1      39.622 -12.245   0.931  1.00  0.00     0.175 C 
BRANCH  26  27
HETATM   27  C   UNL     1      40.093 -11.220  -0.084  1.00  0.00    -0.037 A 
HETATM   28  C   UNL     1      41.298 -10.525   0.117  1.00  0.00     0.048 A 
HETATM   29  C   UNL     1      41.665  -9.574  -0.813  1.00  0.00     0.105 A 
HETATM   30  C   UNL     1      40.883  -9.291  -1.907  1.00  0.00     0.105 A 
HETATM   31  O   UNL     1      42.793  -8.817  -0.772  1.00  0.00    -0.323 OA
HETATM   32  O   UNL     1      41.421  -8.320  -2.692  1.00  0.00    -0.323 OA
HETATM   33  C   UNL     1      39.693  -9.944  -2.137  1.00  0.00     0.040 A 
HETATM   34  C   UNL     1      42.634  -8.027  -1.969  1.00  0.00     0.352 A 
HETATM   35  C   UNL     1      39.296 -10.918  -1.214  1.00  0.00     0.012 A 
ENDBRANCH  26  27
ENDBRANCH   4  26
BRANCH  11  36
HETATM   36  C   UNL     1      40.285  -9.377   8.313  1.00  0.00     0.252 C 
HETATM   37  N   UNL     1      41.611  -9.437   8.692  1.00  0.00    -0.352 N 
HETATM   38  H   UNL     1      42.322  -9.590   7.987  1.00  0.00     0.163 HD
HETATM   39  O   UNL     1      39.386  -8.965   9.038  1.00  0.00    -0.268 OA
BRANCH  37  40
HETATM   40  C   UNL     1      42.076  -8.939   9.983  1.00  0.00     0.084 C 
HETATM   41  C   UNL     1      42.634 -10.086  10.833  1.00  0.00     0.025 C 
HETATM   42  C   UNL     1      43.977 -10.608  10.325  1.00  0.00     0.002 C 
HETATM   43  C   UNL     1      44.993  -9.484  10.161  1.00  0.00     0.000 C 
HETATM   44  C   UNL     1      44.458  -8.361   9.277  1.00  0.00     0.002 C 
HETATM   45  C   UNL     1      43.117  -7.829   9.787  1.00  0.00     0.025 C 
ENDBRANCH  37  40
ENDBRANCH  11  36
TORSDOF 8
ENDMDL
MODEL 8
REMARK VINA RESULT:      -9.0      3.941      7.986
REMARK  8 active torsions:
REMARK  status: ('A' for Active; 'I' for Inactive)
REMARK    1  A    between atoms: O_2  and  C_3 
REMARK    2  A    between atoms: C_6  and  N_7 
REMARK       I    between atoms: N_7  and  C_8 
REMARK    3  A    between atoms: C_8  and  C_9 
REMARK    4  A    between atoms: C_9  and  N_10 
REMARK    5  A    between atoms: N_13  and  C_14 
REMARK    6  A    between atoms: C_14  and  C_15 
REMARK    7  A    between atoms: C_30  and  C_31 
REMARK       I    between atoms: C_31  and  N_32 
REMARK    8  A    between atoms: N_32  and  C_33 
ROOT
HETATM    1  N   UNL     1      42.965 -12.308   6.354  1.00  0.00    -0.290 N 
HETATM    2  C   UNL     1      43.207 -13.639   6.664  1.00  0.00     0.332 C 
HETATM    3  O   UNL     1      44.364 -14.043   6.819  1.00  0.00    -0.246 OA
HETATM    4  N   UNL     1      42.106 -14.471   6.765  1.00  0.00    -0.261 N 
HETATM    5  C   UNL     1      40.821 -14.128   6.366  1.00  0.00     0.264 C 
HETATM    6  O   UNL     1      39.865 -14.899   6.386  1.00  0.00    -0.267 OA
HETATM    7  C   UNL     1      40.625 -12.755   5.872  1.00  0.00     0.059 A 
HETATM    8  C   UNL     1      41.694 -11.860   5.907  1.00  0.00     0.056 A 
HETATM    9  C   UNL     1      39.369 -12.363   5.386  1.00  0.00     0.020 A 
HETATM   10  C   UNL     1      39.181 -11.069   4.902  1.00  0.00     0.018 A 
HETATM   11  C   UNL     1      40.240 -10.159   4.916  1.00  0.00     0.034 A 
HETATM   12  C   UNL     1      41.477 -10.548   5.454  1.00  0.00     0.048 A 
ENDROOT
BRANCH   1  13
HETATM   13  C   UNL     1      44.113 -11.397   6.388  1.00  0.00     0.237 C 
BRANCH  13  14
HETATM   14  C   UNL     1      44.404 -10.924   7.813  1.00  0.00     0.240 C 
HETATM   15  N   UNL     1      43.301 -10.355   8.428  1.00  0.00    -0.326 N 
HETATM   16  H   UNL     1      42.431 -10.369   7.896  1.00  0.00     0.169 HD
HETATM   17  O   UNL     1      45.516 -11.098   8.308  1.00  0.00    -0.271 OA
BRANCH  15  18
HETATM   18  C   UNL     1      43.243  -9.768   9.707  1.00  0.00     0.034 A 
HETATM   19  C   UNL     1      43.088  -8.377   9.770  1.00  0.00     0.032 A 
HETATM   20  C   UNL     1      43.059  -7.710  11.003  1.00  0.00     0.039 A 
HETATM   21  C   UNL     1      43.186  -8.429  12.190  1.00  0.00     0.068 A 
HETATM   22  C   UNL     1      43.318  -9.815  12.130  1.00  0.00     0.039 A 
HETATM   23  C   UNL     1      43.351 -10.482  10.899  1.00  0.00     0.032 A 
BRANCH  21  24
HETATM   24  O   UNL     1      43.187  -7.905  13.452  1.00  0.00    -0.356 OA
HETATM   25  C   UNL     1      42.208  -8.406  14.354  1.00  0.00     0.210 C 
ENDBRANCH  21  24
ENDBRANCH  15  18
ENDBRANCH  13  14
ENDBRANCH   1  13
BRANCH   4  26
HETATM   26  C   UNL     1      42.307 -15.811   7.304  1.00  0.00     0.175 C 
BRANCH  26  27
HETATM   27  C   UNL     1      42.750 -16.776   6.220  1.00  0.00    -0.037 A 
HETATM   28  C   UNL     1      43.205 -18.062   6.560  1.00  0.00     0.048 A 
HETATM   29  C   UNL     1      43.635 -18.890   5.543  1.00  0.00     0.105 A 
HETATM   30  C   UNL     1      43.636 -18.486   4.230  1.00  0.00     0.105 A 
HETATM   31  O   UNL     1      44.102 -20.158   5.695  1.00  0.00    -0.323 OA
HETATM   32  O   UNL     1      44.104 -19.448   3.390  1.00  0.00    -0.323 OA
HETATM   33  C   UNL     1      43.205 -17.233   3.857  1.00  0.00     0.040 A 
HETATM   34  C   UNL     1      44.393 -20.507   4.326  1.00  0.00     0.352 A 
HETATM   35  C   UNL     1      42.758 -16.371   4.864  1.00  0.00     0.012 A 
ENDBRANCH  26  27
ENDBRANCH   4  26
BRANCH  11  36
HETATM   36  C   UNL     1      40.021  -8.794   4.356  1.00  0.00     0.252 C 
HETATM   37  N   UNL     1      39.853  -7.772   5.270  1.00  0.00    -0.352 N 
HETATM   38  H   UNL     1      40.066  -7.939   6.246  1.00  0.00     0.163 HD
HETATM   39  O   UNL     1      40.022  -8.629   3.142  1.00  0.00    -0.268 OA
BRANCH  37  40
HETATM   40  C   UNL     1      39.732  -6.375   4.863  1.00  0.00     0.084 C 
HETATM   41  C   UNL     1      38.820  -5.609   5.828  1.00  0.00     0.025 C 
HETATM   42  C   UNL     1      39.464  -5.366   7.193  1.00  0.00     0.002 C 
HETATM   43  C   UNL     1      40.829  -4.700   7.061  1.00  0.00     0.000 C 
HETATM   44  C   UNL     1      41.755  -5.484   6.136  1.00  0.00     0.002 C 
HETATM   45  C   UNL     1      41.118  -5.723   4.766  1.00  0.00     0.025 C 
ENDBRANCH  37  40
ENDBRANCH  11  36
TORSDOF 8
ENDMDL
MODEL 9
REMARK VINA RESULT:      -8.9      2.704      9.840
REMARK  8 active torsions:
REMARK  status: ('A' for Active; 'I' for Inactive)
REMARK    1  A    between atoms: O_2  and  C_3 
REMARK    2  A    between atoms: C_6  and  N_7 
REMARK       I    between atoms: N_7  and  C_8 
REMARK    3  A    between atoms: C_8  and  C_9 
REMARK    4  A    between atoms: C_9  and  N_10 
REMARK    5  A    between atoms: N_13  and  C_14 
REMARK    6  A    between atoms: C_14  and  C_15 
REMARK    7  A    between atoms: C_30  and  C_31 
REMARK       I    between atoms: C_31  and  N_32 
REMARK    8  A    between atoms: N_32  and  C_33 
ROOT
HETATM    1  N   UNL     1      41.379 -10.298   6.793  1.00  0.00    -0.290 N 
HETATM    2  C   UNL     1      41.645  -9.021   7.267  1.00  0.00     0.332 C 
HETATM    3  O   UNL     1      40.819  -8.115   7.118  1.00  0.00    -0.246 OA
HETATM    4  N   UNL     1      42.870  -8.821   7.881  1.00  0.00    -0.261 N 
HETATM    5  C   UNL     1      43.919  -9.729   7.858  1.00  0.00     0.264 C 
HETATM    6  O   UNL     1      45.029  -9.512   8.339  1.00  0.00    -0.267 OA
HETATM    7  C   UNL     1      43.666 -11.017   7.190  1.00  0.00     0.059 A 
HETATM    8  C   UNL     1      42.391 -11.291   6.699  1.00  0.00     0.056 A 
HETATM    9  C   UNL     1      44.705 -11.952   7.067  1.00  0.00     0.020 A 
HETATM   10  C   UNL     1      44.477 -13.167   6.422  1.00  0.00     0.018 A 
HETATM   11  C   UNL     1      43.210 -13.458   5.911  1.00  0.00     0.034 A 
HETATM   12  C   UNL     1      42.167 -12.536   6.088  1.00  0.00     0.048 A 
ENDROOT
BRANCH   1  13
HETATM   13  C   UNL     1      40.032 -10.547   6.272  1.00  0.00     0.237 C 
BRANCH  13  14
HETATM   14  C   UNL     1      39.952 -10.250   4.774  1.00  0.00     0.240 C 
HETATM   15  N   UNL     1      39.833 -11.395   4.004  1.00  0.00    -0.326 N 
HETATM   16  H   UNL     1      39.757 -12.276   4.513  1.00  0.00     0.169 HD
HETATM   17  O   UNL     1      39.962  -9.088   4.372  1.00  0.00    -0.271 OA
BRANCH  15  18
HETATM   18  C   UNL     1      39.798 -11.480   2.598  1.00  0.00     0.034 A 
HETATM   19  C   UNL     1      40.953 -11.104   1.901  1.00  0.00     0.032 A 
HETATM   20  C   UNL     1      40.989 -11.123   0.500  1.00  0.00     0.039 A 
HETATM   21  C   UNL     1      39.866 -11.519  -0.223  1.00  0.00     0.068 A 
HETATM   22  C   UNL     1      38.722 -11.914   0.469  1.00  0.00     0.039 A 
HETATM   23  C   UNL     1      38.684 -11.893   1.868  1.00  0.00     0.032 A 
BRANCH  21  24
HETATM   24  O   UNL     1      39.760 -11.572  -1.584  1.00  0.00    -0.356 OA
HETATM   25  C   UNL     1      39.110 -12.711  -2.132  1.00  0.00     0.210 C 
ENDBRANCH  21  24
ENDBRANCH  15  18
ENDBRANCH  13  14
ENDBRANCH   1  13
BRANCH   4  26
HETATM   26  C   UNL     1      43.086  -7.561   8.582  1.00  0.00     0.175 C 
BRANCH  26  27
HETATM   27  C   UNL     1      42.637  -7.656  10.029  1.00  0.00    -0.037 A 
HETATM   28  C   UNL     1      41.384  -7.153  10.417  1.00  0.00     0.048 A 
HETATM   29  C   UNL     1      41.037  -7.226  11.750  1.00  0.00     0.105 A 
HETATM   30  C   UNL     1      41.882  -7.763  12.691  1.00  0.00     0.105 A 
HETATM   31  O   UNL     1      39.868  -6.790  12.292  1.00  0.00    -0.323 OA
HETATM   32  O   UNL     1      41.352  -7.732  13.943  1.00  0.00    -0.323 OA
HETATM   33  C   UNL     1      43.120  -8.260  12.354  1.00  0.00     0.040 A 
HETATM   34  C   UNL     1      40.073  -7.119  13.681  1.00  0.00     0.352 A 
HETATM   35  C   UNL     1      43.500  -8.205  11.008  1.00  0.00     0.012 A 
ENDBRANCH  26  27
ENDBRANCH   4  26
BRANCH  11  36
HETATM   36  C   UNL     1      43.004 -14.748   5.192  1.00  0.00     0.252 C 
HETATM   37  N   UNL     1      42.526 -14.665   3.899  1.00  0.00    -0.352 N 
HETATM   38  H   UNL     1      42.513 -13.767   3.432  1.00  0.00     0.163 HD
HETATM   39  O   UNL     1      43.283 -15.804   5.750  1.00  0.00    -0.268 OA
BRANCH  37  40
HETATM   40  C   UNL     1      42.377 -15.841   3.047  1.00  0.00     0.084 C 
HETATM   41  C   UNL     1      40.962 -16.417   3.168  1.00  0.00     0.025 C 
HETATM   42  C   UNL     1      39.902 -15.545   2.495  1.00  0.00     0.002 C 
HETATM   43  C   UNL     1      40.262 -15.239   1.046  1.00  0.00     0.000 C 
HETATM   44  C   UNL     1      41.652 -14.622   0.926  1.00  0.00     0.002 C 
HETATM   45  C   UNL     1      42.718 -15.496   1.591  1.00  0.00     0.025 C 
ENDBRANCH  37  40
ENDBRANCH  11  36
TORSDOF 8
ENDMDL
MODEL 10
REMARK VINA RESULT:      -8.7      3.365     11.161
REMARK  8 active torsions:
REMARK  status: ('A' for Active; 'I' for Inactive)
REMARK    1  A    between atoms: O_2  and  C_3 
REMARK    2  A    between atoms: C_6  and  N_7 
REMARK       I    between atoms: N_7  and  C_8 
REMARK    3  A    between atoms: C_8  and  C_9 
REMARK    4  A    between atoms: C_9  and  N_10 
REMARK    5  A    between atoms: N_13  and  C_14 
REMARK    6  A    between atoms: C_14  and  C_15 
REMARK    7  A    between atoms: C_30  and  C_31 
REMARK       I    between atoms: C_31  and  N_32 
REMARK    8  A    between atoms: N_32  and  C_33 
ROOT
HETATM    1  N   UNL     1      42.012 -10.275   6.816  1.00  0.00    -0.290 N 
HETATM    2  C   UNL     1      42.733  -9.167   7.241  1.00  0.00     0.332 C 
HETATM    3  O   UNL     1      42.269  -8.031   7.102  1.00  0.00    -0.246 OA
HETATM    4  N   UNL     1      43.980  -9.403   7.794  1.00  0.00    -0.261 N 
HETATM    5  C   UNL     1      44.642 -10.622   7.750  1.00  0.00     0.264 C 
HETATM    6  O   UNL     1      45.781 -10.802   8.176  1.00  0.00    -0.267 OA
HETATM    7  C   UNL     1      43.920 -11.747   7.132  1.00  0.00     0.059 A 
HETATM    8  C   UNL     1      42.606 -11.561   6.706  1.00  0.00     0.056 A 
HETATM    9  C   UNL     1      44.558 -12.988   6.991  1.00  0.00     0.020 A 
HETATM   10  C   UNL     1      43.886 -14.053   6.392  1.00  0.00     0.018 A 
HETATM   11  C   UNL     1      42.573 -13.886   5.946  1.00  0.00     0.034 A 
HETATM   12  C   UNL     1      41.929 -12.655   6.143  1.00  0.00     0.048 A 
ENDROOT
BRANCH   1  13
HETATM   13  C   UNL     1      40.638 -10.041   6.363  1.00  0.00     0.237 C 
BRANCH  13  14
HETATM   14  C   UNL     1      39.700  -9.787   7.545  1.00  0.00     0.240 C 
HETATM   15  N   UNL     1      40.244  -8.933   8.490  1.00  0.00    -0.326 N 
HETATM   16  H   UNL     1      41.157  -8.538   8.269  1.00  0.00     0.169 HD
HETATM   17  O   UNL     1      38.580 -10.294   7.565  1.00  0.00    -0.271 OA
BRANCH  15  18
HETATM   18  C   UNL     1      39.673  -8.544   9.718  1.00  0.00     0.034 A 
HETATM   19  C   UNL     1      39.082  -7.276   9.780  1.00  0.00     0.032 A 
HETATM   20  C   UNL     1      38.525  -6.797  10.974  1.00  0.00     0.039 A 
HETATM   21  C   UNL     1      38.555  -7.583  12.124  1.00  0.00     0.068 A 
HETATM   22  C   UNL     1      39.124  -8.854  12.060  1.00  0.00     0.039 A 
HETATM   23  C   UNL     1      39.683  -9.332  10.868  1.00  0.00     0.032 A 
BRANCH  21  24
HETATM   24  O   UNL     1      38.063  -7.236  13.350  1.00  0.00    -0.356 OA
HETATM   25  C   UNL     1      37.744  -5.864  13.547  1.00  0.00     0.210 C 
ENDBRANCH  21  24
ENDBRANCH  15  18
ENDBRANCH  13  14
ENDBRANCH   1  13
BRANCH   4  26
HETATM   26  C   UNL     1      44.659  -8.291   8.448  1.00  0.00     0.175 C 
BRANCH  26  27
HETATM   27  C   UNL     1      43.916  -7.854   9.697  1.00  0.00    -0.037 A 
HETATM   28  C   UNL     1      43.833  -8.711  10.808  1.00  0.00     0.048 A 
HETATM   29  C   UNL     1      43.113  -8.286  11.906  1.00  0.00     0.105 A 
HETATM   30  C   UNL     1      42.479  -7.067  11.930  1.00  0.00     0.105 A 
HETATM   31  O   UNL     1      42.934  -8.986  13.058  1.00  0.00    -0.323 OA
HETATM   32  O   UNL     1      41.821  -6.847  13.100  1.00  0.00    -0.323 OA
HETATM   33  C   UNL     1      42.530  -6.202  10.861  1.00  0.00     0.040 A 
HETATM   34  C   UNL     1      42.118  -8.066  13.812  1.00  0.00     0.352 A 
HETATM   35  C   UNL     1      43.257  -6.602   9.734  1.00  0.00     0.012 A 
ENDBRANCH  26  27
ENDBRANCH   4  26
BRANCH  11  36
HETATM   36  C   UNL     1      41.892 -15.031   5.275  1.00  0.00     0.252 C 
HETATM   37  N   UNL     1      41.247 -14.754   4.085  1.00  0.00    -0.352 N 
HETATM   38  H   UNL     1      41.411 -13.865   3.628  1.00  0.00     0.163 HD
HETATM   39  O   UNL     1      41.949 -16.148   5.775  1.00  0.00    -0.268 OA
BRANCH  37  40
HETATM   40  C   UNL     1      40.629 -15.798   3.273  1.00  0.00     0.084 C 
HETATM   41  C   UNL     1      39.456 -15.228   2.466  1.00  0.00     0.025 C 
HETATM   42  C   UNL     1      39.904 -14.321   1.321  1.00  0.00     0.002 C 
HETATM   43  C   UNL     1      40.923 -15.010   0.421  1.00  0.00     0.000 C 
HETATM   44  C   UNL     1      42.115 -15.538   1.215  1.00  0.00     0.002 C 
HETATM   45  C   UNL     1      41.672 -16.454   2.358  1.00  0.00     0.025 C 
ENDBRANCH  37  40
ENDBRANCH  11  36
TORSDOF 8
ENDMDL
