MODEL 1
REMARK VINA RESULT:      -9.0      0.000      0.000
REMARK  6 active torsions:
REMARK  status: ('A' for Active; 'I' for Inactive)
REMARK    1  A    between atoms: C_3  and  C_4 
REMARK    2  A    between atoms: C_4  and  N_5 
REMARK       I    between atoms: N_5  and  C_6 
REMARK    3  A    between atoms: C_6  and  C_7 
REMARK    4  A    between atoms: C_10  and  C_11 
REMARK    5  A    between atoms: C_11  and  N_12 
REMARK    6  A    between atoms: N_12  and  C_13 
ROOT
HETATM    1  C   UNL     1      42.660 -13.916   3.447  1.00  0.00     0.032 A 
HETATM    2  C   UNL     1      41.697 -14.075   4.451  1.00  0.00     0.017 A 
HETATM    3  C   UNL     1      41.208 -12.957   5.133  1.00  0.00     0.010 A 
HETATM    4  C   UNL     1      41.669 -11.669   4.817  1.00  0.00    -0.041 A 
HETATM    5  C   UNL     1      42.653 -11.521   3.829  1.00  0.00     0.010 A 
HETATM    6  C   UNL     1      43.147 -12.637   3.151  1.00  0.00     0.017 A 
ENDROOT
BRANCH   4   7
HETATM    7  C   UNL     1      41.140 -10.466   5.563  1.00  0.00     0.160 C 
BRANCH   7   8
HETATM    8  N   UNL     1      41.430 -10.609   6.978  1.00  0.00    -0.370 N 
HETATM    9  H   UNL     1      41.494 -11.575   7.275  1.00  0.00     0.161 HD
BRANCH   8  10
HETATM   10  C   UNL     1      42.226  -9.693   7.638  1.00  0.00     0.139 A 
HETATM   11  N   UNL     1      41.668  -8.660   8.205  1.00  0.00    -0.202 NA
HETATM   12  C   UNL     1      42.412  -7.706   8.847  1.00  0.00     0.200 A 
HETATM   13  S   UNL     1      41.733  -6.366   9.599  1.00  0.00    -0.039 SA
HETATM   14  N   UNL     1      43.776  -7.821   8.881  1.00  0.00    -0.331 N 
HETATM   15  C   UNL     1      44.444  -8.903   8.316  1.00  0.00     0.048 A 
HETATM   16  H   UNL     1      44.284  -7.091   9.362  1.00  0.00     0.168 HD
HETATM   17  C   UNL     1      43.702  -9.897   7.682  1.00  0.00     0.036 A 
HETATM   18  C   UNL     1      45.833  -8.992   8.401  1.00  0.00     0.030 A 
HETATM   19  C   UNL     1      44.353 -11.014   7.147  1.00  0.00     0.017 A 
HETATM   20  C   UNL     1      45.746 -11.108   7.231  1.00  0.00     0.001 A 
HETATM   21  C   UNL     1      46.483 -10.098   7.852  1.00  0.00     0.002 A 
ENDBRANCH   8  10
ENDBRANCH   7   8
ENDBRANCH   4   7
BRANCH   1  22
HETATM   22  C   UNL     1      43.214 -15.074   2.696  1.00  0.00     0.251 C 
HETATM   23  N   UNL     1      43.120 -16.302   3.311  1.00  0.00    -0.353 N 
HETATM   24  H   UNL     1      42.582 -16.402   4.161  1.00  0.00     0.163 HD
HETATM   25  O   UNL     1      43.685 -14.904   1.577  1.00  0.00    -0.268 OA
BRANCH  23  26
HETATM   26  C   UNL     1      43.587 -17.516   2.671  1.00  0.00     0.163 C 
BRANCH  26  27
HETATM   27  C   UNL     1      43.729 -18.706   3.598  1.00  0.00    -0.019 A 
HETATM   28  C   UNL     1      43.795 -18.558   4.995  1.00  0.00     0.010 A 
HETATM   29  C   UNL     1      43.901 -19.671   5.836  1.00  0.00     0.001 A 
HETATM   30  C   UNL     1      43.930 -20.953   5.299  1.00  0.00     0.002 A 
HETATM   31  C   UNL     1      43.849 -21.125   3.920  1.00  0.00     0.024 A 
HETATM   32  C   UNL     1      43.745 -20.013   3.076  1.00  0.00     0.042 A 
HETATM   33 CL   UNL     1      43.632 -20.316   1.376  1.00  0.00    -0.084 Cl
ENDBRANCH  26  27
ENDBRANCH  23  26
ENDBRANCH   1  22
TORSDOF 6
ENDMDL
MODEL 2
REMARK VINA RESULT:      -8.9      2.113      2.686
REMARK  6 active torsions:
REMARK  status: ('A' for Active; 'I' for Inactive)
REMARK    1  A    between atoms: C_3  and  C_4 
REMARK    2  A    between atoms: C_4  and  N_5 
REMARK       I    between atoms: N_5  and  C_6 
REMARK    3  A    between atoms: C_6  and  C_7 
REMARK    4  A    between atoms: C_10  and  C_11 
REMARK    5  A    between atoms: C_11  and  N_12 
REMARK    6  A    between atoms: N_12  and  C_13 
ROOT
HETATM    1  C   UNL     1      42.247 -14.417   6.021  1.00  0.00     0.032 A 
HETATM    2  C   UNL     1      43.228 -13.459   5.740  1.00  0.00     0.017 A 
HETATM    3  C   UNL     1      42.873 -12.113   5.617  1.00  0.00     0.010 A 
HETATM    4  C   UNL     1      41.539 -11.707   5.777  1.00  0.00    -0.041 A 
HETATM    5  C   UNL     1      40.558 -12.677   6.031  1.00  0.00     0.010 A 
HETATM    6  C   UNL     1      40.910 -14.023   6.149  1.00  0.00     0.017 A 
ENDROOT
BRANCH   4   7
HETATM    7  C   UNL     1      41.163 -10.251   5.636  1.00  0.00     0.160 C 
BRANCH   7   8
HETATM    8  N   UNL     1      42.096  -9.435   6.391  1.00  0.00    -0.370 N 
HETATM    9  H   UNL     1      42.405  -8.614   5.886  1.00  0.00     0.161 HD
BRANCH   8  10
HETATM   10  C   UNL     1      41.999  -9.330   7.765  1.00  0.00     0.139 A 
HETATM   11  N   UNL     1      40.842  -9.060   8.301  1.00  0.00    -0.202 NA
HETATM   12  C   UNL     1      40.694  -8.917   9.655  1.00  0.00     0.200 A 
HETATM   13  S   UNL     1      39.220  -8.579  10.386  1.00  0.00    -0.039 SA
HETATM   14  N   UNL     1      41.787  -9.038  10.471  1.00  0.00    -0.331 N 
HETATM   15  C   UNL     1      43.051  -9.344   9.978  1.00  0.00     0.048 A 
HETATM   16  H   UNL     1      41.631  -8.920  11.463  1.00  0.00     0.168 HD
HETATM   17  C   UNL     1      43.216  -9.520   8.606  1.00  0.00     0.036 A 
HETATM   18  C   UNL     1      44.129  -9.487  10.851  1.00  0.00     0.030 A 
HETATM   19  C   UNL     1      44.470  -9.871   8.097  1.00  0.00     0.017 A 
HETATM   20  C   UNL     1      45.554 -10.017   8.969  1.00  0.00     0.001 A 
HETATM   21  C   UNL     1      45.384  -9.820  10.341  1.00  0.00     0.002 A 
ENDBRANCH   8  10
ENDBRANCH   7   8
ENDBRANCH   4   7
BRANCH   1  22
HETATM   22  C   UNL     1      42.573 -15.862   6.157  1.00  0.00     0.251 C 
HETATM   23  N   UNL     1      43.657 -16.314   5.438  1.00  0.00    -0.353 N 
HETATM   24  H   UNL     1      44.256 -15.656   4.960  1.00  0.00     0.163 HD
HETATM   25  O   UNL     1      41.911 -16.567   6.910  1.00  0.00    -0.268 OA
BRANCH  23  26
HETATM   26  C   UNL     1      44.103 -17.691   5.511  1.00  0.00     0.163 C 
BRANCH  26  27
HETATM   27  C   UNL     1      43.809 -18.519   4.277  1.00  0.00    -0.019 A 
HETATM   28  C   UNL     1      43.436 -17.929   3.056  1.00  0.00     0.010 A 
HETATM   29  C   UNL     1      43.192 -18.708   1.920  1.00  0.00     0.001 A 
HETATM   30  C   UNL     1      43.328 -20.091   1.978  1.00  0.00     0.002 A 
HETATM   31  C   UNL     1      43.711 -20.697   3.172  1.00  0.00     0.024 A 
HETATM   32  C   UNL     1      43.954 -19.919   4.310  1.00  0.00     0.042 A 
HETATM   33 CL   UNL     1      44.443 -20.749   5.747  1.00  0.00    -0.084 Cl
ENDBRANCH  26  27
ENDBRANCH  23  26
ENDBRANCH   1  22
TORSDOF 6
ENDMDL
MODEL 3
REMARK VINA RESULT:      -8.9      1.432      1.541
REMARK  6 active torsions:
REMARK  status: ('A' for Active; 'I' for Inactive)
REMARK    1  A    between atoms: C_3  and  C_4 
REMARK    2  A    between atoms: C_4  and  N_5 
REMARK       I    between atoms: N_5  and  C_6 
REMARK    3  A    between atoms: C_6  and  C_7 
REMARK    4  A    between atoms: C_10  and  C_11 
REMARK    5  A    between atoms: C_11  and  N_12 
REMARK    6  A    between atoms: N_12  and  C_13 
ROOT
HETATM    1  C   UNL     1      41.106 -14.717   3.915  1.00  0.00     0.032 A 
HETATM    2  C   UNL     1      41.001 -14.745   5.311  1.00  0.00     0.017 A 
HETATM    3  C   UNL     1      40.526 -13.624   5.997  1.00  0.00     0.010 A 
HETATM    4  C   UNL     1      40.146 -12.467   5.300  1.00  0.00    -0.041 A 
HETATM    5  C   UNL     1      40.280 -12.437   3.904  1.00  0.00     0.010 A 
HETATM    6  C   UNL     1      40.759 -13.555   3.217  1.00  0.00     0.017 A 
ENDROOT
BRANCH   4   7
HETATM    7  C   UNL     1      39.639 -11.257   6.050  1.00  0.00     0.160 C 
BRANCH   7   8
HETATM    8  N   UNL     1      40.642 -10.208   6.008  1.00  0.00    -0.370 N 
HETATM    9  H   UNL     1      40.332  -9.381   5.513  1.00  0.00     0.161 HD
BRANCH   8  10
HETATM   10  C   UNL     1      41.521 -10.022   7.058  1.00  0.00     0.139 A 
HETATM   11  N   UNL     1      41.096  -9.443   8.146  1.00  0.00    -0.202 NA
HETATM   12  C   UNL     1      41.930  -9.208   9.207  1.00  0.00     0.200 A 
HETATM   13  S   UNL     1      41.421  -8.474  10.629  1.00  0.00    -0.039 SA
HETATM   14  N   UNL     1      43.249  -9.566   9.121  1.00  0.00    -0.331 N 
HETATM   15  C   UNL     1      43.774 -10.205   8.002  1.00  0.00     0.048 A 
HETATM   16  H   UNL     1      43.828  -9.369   9.926  1.00  0.00     0.168 HD
HETATM   17  C   UNL     1      42.934 -10.478   6.925  1.00  0.00     0.036 A 
HETATM   18  C   UNL     1      45.117 -10.578   7.973  1.00  0.00     0.030 A 
HETATM   19  C   UNL     1      43.434 -11.158   5.810  1.00  0.00     0.017 A 
HETATM   20  C   UNL     1      44.779 -11.536   5.777  1.00  0.00     0.001 A 
HETATM   21  C   UNL     1      45.619 -11.242   6.854  1.00  0.00     0.002 A 
ENDBRANCH   8  10
ENDBRANCH   7   8
ENDBRANCH   4   7
BRANCH   1  22
HETATM   22  C   UNL     1      41.609 -15.882   3.139  1.00  0.00     0.251 C 
HETATM   23  N   UNL     1      42.870 -16.333   3.463  1.00  0.00    -0.353 N 
HETATM   24  H   UNL     1      43.347 -15.961   4.272  1.00  0.00     0.163 HD
HETATM   25  O   UNL     1      40.893 -16.406   2.294  1.00  0.00    -0.268 OA
BRANCH  23  26
HETATM   26  C   UNL     1      43.462 -17.483   2.809  1.00  0.00     0.163 C 
BRANCH  26  27
HETATM   27  C   UNL     1      43.662 -18.687   3.705  1.00  0.00    -0.019 A 
HETATM   28  C   UNL     1      43.720 -18.573   5.106  1.00  0.00     0.010 A 
HETATM   29  C   UNL     1      43.881 -19.699   5.919  1.00  0.00     0.001 A 
HETATM   30  C   UNL     1      43.974 -20.965   5.349  1.00  0.00     0.002 A 
HETATM   31  C   UNL     1      43.903 -21.105   3.965  1.00  0.00     0.024 A 
HETATM   32  C   UNL     1      43.745 -19.979   3.150  1.00  0.00     0.042 A 
HETATM   33 CL   UNL     1      43.648 -20.244   1.443  1.00  0.00    -0.084 Cl
ENDBRANCH  26  27
ENDBRANCH  23  26
ENDBRANCH   1  22
TORSDOF 6
ENDMDL
MODEL 4
REMARK VINA RESULT:      -8.7      4.675      9.770
REMARK  6 active torsions:
REMARK  status: ('A' for Active; 'I' for Inactive)
REMARK    1  A    between atoms: C_3  and  C_4 
REMARK    2  A    between atoms: C_4  and  N_5 
REMARK       I    between atoms: N_5  and  C_6 
REMARK    3  A    between atoms: C_6  and  C_7 
REMARK    4  A    between atoms: C_10  and  C_11 
REMARK    5  A    between atoms: C_11  and  N_12 
REMARK    6  A    between atoms: N_12  and  C_13 
ROOT
HETATM    1  C   UNL     1      44.084 -10.644   8.562  1.00  0.00     0.032 A 
HETATM    2  C   UNL     1      42.908 -10.380   7.850  1.00  0.00     0.017 A 
HETATM    3  C   UNL     1      42.837 -10.674   6.485  1.00  0.00     0.010 A 
HETATM    4  C   UNL     1      43.935 -11.240   5.818  1.00  0.00    -0.041 A 
HETATM    5  C   UNL     1      45.118 -11.476   6.531  1.00  0.00     0.010 A 
HETATM    6  C   UNL     1      45.193 -11.177   7.894  1.00  0.00     0.017 A 
ENDROOT
BRANCH   4   7
HETATM    7  C   UNL     1      43.852 -11.549   4.341  1.00  0.00     0.160 C 
BRANCH   7   8
HETATM    8  N   UNL     1      42.783 -12.503   4.106  1.00  0.00    -0.370 N 
HETATM    9  H   UNL     1      42.286 -12.338   3.240  1.00  0.00     0.161 HD
BRANCH   8  10
HETATM   10  C   UNL     1      42.893 -13.814   4.530  1.00  0.00     0.139 A 
HETATM   11  N   UNL     1      42.879 -14.071   5.808  1.00  0.00    -0.202 NA
HETATM   12  C   UNL     1      43.013 -15.347   6.284  1.00  0.00     0.200 A 
HETATM   13  S   UNL     1      42.991 -15.723   7.921  1.00  0.00    -0.039 SA
HETATM   14  N   UNL     1      43.189 -16.382   5.404  1.00  0.00    -0.331 N 
HETATM   15  C   UNL     1      43.196 -16.192   4.026  1.00  0.00     0.048 A 
HETATM   16  H   UNL     1      43.288 -17.307   5.802  1.00  0.00     0.168 HD
HETATM   17  C   UNL     1      43.033 -14.904   3.522  1.00  0.00     0.036 A 
HETATM   18  C   UNL     1      43.348 -17.281   3.168  1.00  0.00     0.030 A 
HETATM   19  C   UNL     1      42.994 -14.699   2.139  1.00  0.00     0.017 A 
HETATM   20  C   UNL     1      43.144 -15.788   1.275  1.00  0.00     0.001 A 
HETATM   21  C   UNL     1      43.325 -17.074   1.789  1.00  0.00     0.002 A 
ENDBRANCH   8  10
ENDBRANCH   7   8
ENDBRANCH   4   7
BRANCH   1  22
HETATM   22  C   UNL     1      44.211 -10.345  10.013  1.00  0.00     0.251 C 
HETATM   23  N   UNL     1      43.155 -10.728  10.810  1.00  0.00    -0.353 N 
HETATM   24  H   UNL     1      42.413 -11.296  10.426  1.00  0.00     0.163 HD
HETATM   25  O   UNL     1      45.233  -9.820  10.439  1.00  0.00    -0.268 OA
BRANCH  23  26
HETATM   26  C   UNL     1      43.169 -10.529  12.245  1.00  0.00     0.163 C 
BRANCH  26  27
HETATM   27  C   UNL     1      42.550  -9.227  12.710  1.00  0.00    -0.019 A 
HETATM   28  C   UNL     1      43.290  -8.033  12.781  1.00  0.00     0.010 A 
HETATM   29  C   UNL     1      42.695  -6.835  13.189  1.00  0.00     0.001 A 
HETATM   30  C   UNL     1      41.345  -6.803  13.521  1.00  0.00     0.002 A 
HETATM   31  C   UNL     1      40.587  -7.968  13.442  1.00  0.00     0.024 A 
HETATM   32  C   UNL     1      41.181  -9.169  13.037  1.00  0.00     0.042 A 
HETATM   33 CL   UNL     1      40.164 -10.566  12.949  1.00  0.00    -0.084 Cl
ENDBRANCH  26  27
ENDBRANCH  23  26
ENDBRANCH   1  22
TORSDOF 6
ENDMDL
MODEL 5
REMARK VINA RESULT:      -8.7      5.203      9.940
REMARK  6 active torsions:
REMARK  status: ('A' for Active; 'I' for Inactive)
REMARK    1  A    between atoms: C_3  and  C_4 
REMARK    2  A    between atoms: C_4  and  N_5 
REMARK       I    between atoms: N_5  and  C_6 
REMARK    3  A    between atoms: C_6  and  C_7 
REMARK    4  A    between atoms: C_10  and  C_11 
REMARK    5  A    between atoms: C_11  and  N_12 
REMARK    6  A    between atoms: N_12  and  C_13 
ROOT
HETATM    1  C   UNL     1      44.471 -10.544   8.296  1.00  0.00     0.032 A 
HETATM    2  C   UNL     1      45.528 -11.065   7.541  1.00  0.00     0.017 A 
HETATM    3  C   UNL     1      45.322 -11.418   6.204  1.00  0.00     0.010 A 
HETATM    4  C   UNL     1      44.064 -11.250   5.605  1.00  0.00    -0.041 A 
HETATM    5  C   UNL     1      43.003 -10.754   6.377  1.00  0.00     0.010 A 
HETATM    6  C   UNL     1      43.206 -10.405   7.714  1.00  0.00     0.017 A 
ENDROOT
BRANCH   4   7
HETATM    7  C   UNL     1      43.848 -11.641   4.162  1.00  0.00     0.160 C 
BRANCH   7   8
HETATM    8  N   UNL     1      42.532 -12.237   4.013  1.00  0.00    -0.370 N 
HETATM    9  H   UNL     1      41.788 -11.652   4.373  1.00  0.00     0.161 HD
BRANCH   8  10
HETATM   10  C   UNL     1      42.234 -13.043   2.932  1.00  0.00     0.139 A 
HETATM   11  N   UNL     1      41.695 -12.508   1.872  1.00  0.00    -0.202 NA
HETATM   12  C   UNL     1      41.352 -13.264   0.783  1.00  0.00     0.200 A 
HETATM   13  S   UNL     1      40.664 -12.615  -0.605  1.00  0.00    -0.039 SA
HETATM   14  N   UNL     1      41.559 -14.618   0.807  1.00  0.00    -0.331 N 
HETATM   15  C   UNL     1      42.148 -15.259   1.893  1.00  0.00     0.048 A 
HETATM   16  H   UNL     1      41.287 -15.136  -0.017  1.00  0.00     0.168 HD
HETATM   17  C   UNL     1      42.527 -14.503   2.999  1.00  0.00     0.036 A 
HETATM   18  C   UNL     1      42.365 -16.636   1.860  1.00  0.00     0.030 A 
HETATM   19  C   UNL     1      43.160 -15.124   4.080  1.00  0.00     0.017 A 
HETATM   20  C   UNL     1      43.382 -16.504   4.051  1.00  0.00     0.001 A 
HETATM   21  C   UNL     1      42.981 -17.258   2.946  1.00  0.00     0.002 A 
ENDBRANCH   8  10
ENDBRANCH   7   8
ENDBRANCH   4   7
BRANCH   1  22
HETATM   22  C   UNL     1      44.638 -10.156   9.722  1.00  0.00     0.251 C 
HETATM   23  N   UNL     1      43.856  -9.113  10.167  1.00  0.00    -0.353 N 
HETATM   24  H   UNL     1      43.127  -8.740   9.576  1.00  0.00     0.163 HD
HETATM   25  O   UNL     1      45.411 -10.783  10.437  1.00  0.00    -0.268 OA
BRANCH  23  26
HETATM   26  C   UNL     1      43.895  -8.662  11.544  1.00  0.00     0.163 C 
BRANCH  26  27
HETATM   27  C   UNL     1      42.636  -8.943  12.338  1.00  0.00    -0.019 A 
HETATM   28  C   UNL     1      41.696  -9.906  11.927  1.00  0.00     0.010 A 
HETATM   29  C   UNL     1      40.550 -10.169  12.686  1.00  0.00     0.001 A 
HETATM   30  C   UNL     1      40.328  -9.486  13.877  1.00  0.00     0.002 A 
HETATM   31  C   UNL     1      41.253  -8.540  14.312  1.00  0.00     0.024 A 
HETATM   32  C   UNL     1      42.398  -8.273  13.553  1.00  0.00     0.042 A 
HETATM   33 CL   UNL     1      43.504  -7.096  14.174  1.00  0.00    -0.084 Cl
ENDBRANCH  26  27
ENDBRANCH  23  26
ENDBRANCH   1  22
TORSDOF 6
ENDMDL
MODEL 6
REMARK VINA RESULT:      -8.4      5.502      7.902
REMARK  6 active torsions:
REMARK  status: ('A' for Active; 'I' for Inactive)
REMARK    1  A    between atoms: C_3  and  C_4 
REMARK    2  A    between atoms: C_4  and  N_5 
REMARK       I    between atoms: N_5  and  C_6 
REMARK    3  A    between atoms: C_6  and  C_7 
REMARK    4  A    between atoms: C_10  and  C_11 
REMARK    5  A    between atoms: C_11  and  N_12 
REMARK    6  A    between atoms: N_12  and  C_13 
ROOT
HETATM    1  C   UNL     1      41.444 -13.866   3.877  1.00  0.00     0.032 A 
HETATM    2  C   UNL     1      40.435 -14.549   3.189  1.00  0.00     0.017 A 
HETATM    3  C   UNL     1      39.428 -13.833   2.534  1.00  0.00     0.010 A 
HETATM    4  C   UNL     1      39.421 -12.429   2.554  1.00  0.00    -0.041 A 
HETATM    5  C   UNL     1      40.419 -11.753   3.269  1.00  0.00     0.010 A 
HETATM    6  C   UNL     1      41.422 -12.467   3.929  1.00  0.00     0.017 A 
ENDROOT
BRANCH   4   7
HETATM    7  C   UNL     1      38.326 -11.663   1.850  1.00  0.00     0.160 C 
BRANCH   7   8
HETATM    8  N   UNL     1      38.828 -11.154   0.586  1.00  0.00    -0.370 N 
HETATM    9  H   UNL     1      39.839 -11.112   0.549  1.00  0.00     0.161 HD
BRANCH   8  10
HETATM   10  C   UNL     1      38.162 -11.408  -0.598  1.00  0.00     0.139 A 
HETATM   11  N   UNL     1      37.320 -10.524  -1.054  1.00  0.00    -0.202 NA
HETATM   12  C   UNL     1      36.612 -10.737  -2.207  1.00  0.00     0.200 A 
HETATM   13  S   UNL     1      35.524  -9.621  -2.834  1.00  0.00    -0.039 SA
HETATM   14  N   UNL     1      36.771 -11.912  -2.891  1.00  0.00    -0.331 N 
HETATM   15  C   UNL     1      37.665 -12.895  -2.479  1.00  0.00     0.048 A 
HETATM   16  H   UNL     1      36.225 -12.027  -3.734  1.00  0.00     0.168 HD
HETATM   17  C   UNL     1      38.414 -12.686  -1.324  1.00  0.00     0.036 A 
HETATM   18  C   UNL     1      37.815 -14.064  -3.226  1.00  0.00     0.030 A 
HETATM   19  C   UNL     1      39.349 -13.644  -0.919  1.00  0.00     0.017 A 
HETATM   20  C   UNL     1      39.504 -14.816  -1.665  1.00  0.00     0.001 A 
HETATM   21  C   UNL     1      38.736 -15.027  -2.812  1.00  0.00     0.002 A 
ENDBRANCH   8  10
ENDBRANCH   7   8
ENDBRANCH   4   7
BRANCH   1  22
HETATM   22  C   UNL     1      42.534 -14.581   4.593  1.00  0.00     0.251 C 
HETATM   23  N   UNL     1      42.622 -15.938   4.370  1.00  0.00    -0.353 N 
HETATM   24  H   UNL     1      42.053 -16.371   3.657  1.00  0.00     0.163 HD
HETATM   25  O   UNL     1      43.312 -13.954   5.301  1.00  0.00    -0.268 OA
BRANCH  23  26
HETATM   26  C   UNL     1      43.661 -16.746   4.977  1.00  0.00     0.163 C 
BRANCH  26  27
HETATM   27  C   UNL     1      43.754 -18.161   4.444  1.00  0.00    -0.019 A 
HETATM   28  C   UNL     1      43.930 -19.267   5.294  1.00  0.00     0.010 A 
HETATM   29  C   UNL     1      43.989 -20.569   4.786  1.00  0.00     0.001 A 
HETATM   30  C   UNL     1      43.860 -20.793   3.419  1.00  0.00     0.002 A 
HETATM   31  C   UNL     1      43.668 -19.714   2.559  1.00  0.00     0.024 A 
HETATM   32  C   UNL     1      43.612 -18.411   3.065  1.00  0.00     0.042 A 
HETATM   33 CL   UNL     1      43.353 -17.131   1.930  1.00  0.00    -0.084 Cl
ENDBRANCH  26  27
ENDBRANCH  23  26
ENDBRANCH   1  22
TORSDOF 6
ENDMDL
MODEL 7
REMARK VINA RESULT:      -8.4      4.201      9.465
REMARK  6 active torsions:
REMARK  status: ('A' for Active; 'I' for Inactive)
REMARK    1  A    between atoms: C_3  and  C_4 
REMARK    2  A    between atoms: C_4  and  N_5 
REMARK       I    between atoms: N_5  and  C_6 
REMARK    3  A    between atoms: C_6  and  C_7 
REMARK    4  A    between atoms: C_10  and  C_11 
REMARK    5  A    between atoms: C_11  and  N_12 
REMARK    6  A    between atoms: N_12  and  C_13 
ROOT
HETATM    1  C   UNL     1      42.308 -11.289   5.634  1.00  0.00     0.032 A 
HETATM    2  C   UNL     1      41.235 -12.164   5.841  1.00  0.00     0.017 A 
HETATM    3  C   UNL     1      41.085 -13.289   5.024  1.00  0.00     0.010 A 
HETATM    4  C   UNL     1      42.005 -13.555   3.997  1.00  0.00    -0.041 A 
HETATM    5  C   UNL     1      43.061 -12.659   3.779  1.00  0.00     0.010 A 
HETATM    6  C   UNL     1      43.209 -11.532   4.591  1.00  0.00     0.017 A 
ENDROOT
BRANCH   4   7
HETATM    7  C   UNL     1      41.832 -14.769   3.115  1.00  0.00     0.160 C 
BRANCH   7   8
HETATM    8  N   UNL     1      43.072 -15.523   3.081  1.00  0.00    -0.370 N 
HETATM    9  H   UNL     1      43.856 -14.983   2.735  1.00  0.00     0.161 HD
BRANCH   8  10
HETATM   10  C   UNL     1      43.343 -16.491   4.028  1.00  0.00     0.139 A 
HETATM   11  N   UNL     1      43.494 -16.136   5.273  1.00  0.00    -0.202 NA
HETATM   12  C   UNL     1      43.791 -17.049   6.249  1.00  0.00     0.200 A 
HETATM   13  S   UNL     1      43.984 -16.636   7.865  1.00  0.00    -0.039 SA
HETATM   14  N   UNL     1      43.957 -18.367   5.913  1.00  0.00    -0.331 N 
HETATM   15  C   UNL     1      43.794 -18.827   4.611  1.00  0.00     0.048 A 
HETATM   16  H   UNL     1      44.181 -19.004   6.665  1.00  0.00     0.168 HD
HETATM   17  C   UNL     1      43.465 -17.917   3.609  1.00  0.00     0.036 A 
HETATM   18  C   UNL     1      43.944 -20.183   4.322  1.00  0.00     0.030 A 
HETATM   19  C   UNL     1      43.254 -18.368   2.303  1.00  0.00     0.017 A 
HETATM   20  C   UNL     1      43.401 -19.728   2.009  1.00  0.00     0.001 A 
HETATM   21  C   UNL     1      43.750 -20.631   3.015  1.00  0.00     0.002 A 
ENDBRANCH   8  10
ENDBRANCH   7   8
ENDBRANCH   4   7
BRANCH   1  22
HETATM   22  C   UNL     1      42.509 -10.077   6.472  1.00  0.00     0.251 C 
HETATM   23  N   UNL     1      43.611 -10.083   7.299  1.00  0.00    -0.353 N 
HETATM   24  H   UNL     1      44.297 -10.820   7.221  1.00  0.00     0.163 HD
HETATM   25  O   UNL     1      41.734  -9.133   6.374  1.00  0.00    -0.268 OA
BRANCH  23  26
HETATM   26  C   UNL     1      43.942  -8.950   8.140  1.00  0.00     0.163 C 
BRANCH  26  27
HETATM   27  C   UNL     1      43.639  -9.143   9.611  1.00  0.00    -0.019 A 
HETATM   28  C   UNL     1      43.730 -10.402  10.231  1.00  0.00     0.010 A 
HETATM   29  C   UNL     1      43.470 -10.558  11.597  1.00  0.00     0.001 A 
HETATM   30  C   UNL     1      43.126  -9.455  12.373  1.00  0.00     0.002 A 
HETATM   31  C   UNL     1      43.045  -8.196  11.784  1.00  0.00     0.024 A 
HETATM   32  C   UNL     1      43.303  -8.039  10.418  1.00  0.00     0.042 A 
HETATM   33 CL   UNL     1      43.198  -6.438   9.770  1.00  0.00    -0.084 Cl
ENDBRANCH  26  27
ENDBRANCH  23  26
ENDBRANCH   1  22
TORSDOF 6
ENDMDL
MODEL 8
REMARK VINA RESULT:      -8.4      4.855      9.672
REMARK  6 active torsions:
REMARK  status: ('A' for Active; 'I' for Inactive)
REMARK    1  A    between atoms: C_3  and  C_4 
REMARK    2  A    between atoms: C_4  and  N_5 
REMARK       I    between atoms: N_5  and  C_6 
REMARK    3  A    between atoms: C_6  and  C_7 
REMARK    4  A    between atoms: C_10  and  C_11 
REMARK    5  A    between atoms: C_11  and  N_12 
REMARK    6  A    between atoms: N_12  and  C_13 
ROOT
HETATM    1  C   UNL     1      43.994 -10.768   7.975  1.00  0.00     0.032 A 
HETATM    2  C   UNL     1      44.988 -11.261   7.121  1.00  0.00     0.017 A 
HETATM    3  C   UNL     1      44.733 -11.382   5.752  1.00  0.00     0.010 A 
HETATM    4  C   UNL     1      43.488 -11.009   5.220  1.00  0.00    -0.041 A 
HETATM    5  C   UNL     1      42.490 -10.542   6.087  1.00  0.00     0.010 A 
HETATM    6  C   UNL     1      42.741 -10.425   7.456  1.00  0.00     0.017 A 
ENDROOT
BRANCH   4   7
HETATM    7  C   UNL     1      43.219 -11.149   3.740  1.00  0.00     0.160 C 
BRANCH   7   8
HETATM    8  N   UNL     1      43.535 -12.501   3.317  1.00  0.00    -0.370 N 
HETATM    9  H   UNL     1      44.397 -12.852   3.719  1.00  0.00     0.161 HD
BRANCH   8  10
HETATM   10  C   UNL     1      42.536 -13.422   3.068  1.00  0.00     0.139 A 
HETATM   11  N   UNL     1      41.966 -13.438   1.895  1.00  0.00    -0.202 NA
HETATM   12  C   UNL     1      40.951 -14.309   1.603  1.00  0.00     0.200 A 
HETATM   13  S   UNL     1      40.198 -14.370   0.103  1.00  0.00    -0.039 SA
HETATM   14  N   UNL     1      40.502 -15.172   2.567  1.00  0.00    -0.331 N 
HETATM   15  C   UNL     1      41.071 -15.229   3.836  1.00  0.00     0.048 A 
HETATM   16  H   UNL     1      39.748 -15.794   2.307  1.00  0.00     0.168 HD
HETATM   17  C   UNL     1      42.123 -14.369   4.143  1.00  0.00     0.036 A 
HETATM   18  C   UNL     1      40.599 -16.145   4.775  1.00  0.00     0.030 A 
HETATM   19  C   UNL     1      42.735 -14.442   5.398  1.00  0.00     0.017 A 
HETATM   20  C   UNL     1      42.267 -15.361   6.342  1.00  0.00     0.001 A 
HETATM   21  C   UNL     1      41.200 -16.206   6.033  1.00  0.00     0.002 A 
ENDBRANCH   8  10
ENDBRANCH   7   8
ENDBRANCH   4   7
BRANCH   1  22
HETATM   22  C   UNL     1      44.215 -10.624   9.439  1.00  0.00     0.251 C 
HETATM   23  N   UNL     1      43.085 -10.513  10.219  1.00  0.00    -0.353 N 
HETATM   24  H   UNL     1      42.173 -10.660   9.810  1.00  0.00     0.163 HD
HETATM   25  O   UNL     1      45.355 -10.645   9.888  1.00  0.00    -0.268 OA
BRANCH  23  26
HETATM   26  C   UNL     1      43.159 -10.405  11.662  1.00  0.00     0.163 C 
BRANCH  26  27
HETATM   27  C   UNL     1      42.582  -9.125  12.231  1.00  0.00    -0.019 A 
HETATM   28  C   UNL     1      43.398  -8.114  12.770  1.00  0.00     0.010 A 
HETATM   29  C   UNL     1      42.849  -6.929  13.269  1.00  0.00     0.001 A 
HETATM   30  C   UNL     1      41.474  -6.724  13.227  1.00  0.00     0.002 A 
HETATM   31  C   UNL     1      40.646  -7.703  12.684  1.00  0.00     0.024 A 
HETATM   32  C   UNL     1      41.194  -8.891  12.187  1.00  0.00     0.042 A 
HETATM   33 CL   UNL     1      40.098 -10.048  11.513  1.00  0.00    -0.084 Cl
ENDBRANCH  26  27
ENDBRANCH  23  26
ENDBRANCH   1  22
TORSDOF 6
ENDMDL
MODEL 9
REMARK VINA RESULT:      -8.3      2.458      3.245
REMARK  6 active torsions:
REMARK  status: ('A' for Active; 'I' for Inactive)
REMARK    1  A    between atoms: C_3  and  C_4 
REMARK    2  A    between atoms: C_4  and  N_5 
REMARK       I    between atoms: N_5  and  C_6 
REMARK    3  A    between atoms: C_6  and  C_7 
REMARK    4  A    between atoms: C_10  and  C_11 
REMARK    5  A    between atoms: C_11  and  N_12 
REMARK    6  A    between atoms: N_12  and  C_13 
ROOT
HETATM    1  C   UNL     1      40.663 -12.055   5.246  1.00  0.00     0.032 A 
HETATM    2  C   UNL     1      39.506 -12.112   6.031  1.00  0.00     0.017 A 
HETATM    3  C   UNL     1      39.132 -11.010   6.805  1.00  0.00     0.010 A 
HETATM    4  C   UNL     1      39.905  -9.838   6.801  1.00  0.00    -0.041 A 
HETATM    5  C   UNL     1      41.078  -9.799   6.033  1.00  0.00     0.010 A 
HETATM    6  C   UNL     1      41.456 -10.901   5.263  1.00  0.00     0.017 A 
ENDROOT
BRANCH   4   7
HETATM    7  C   UNL     1      39.499  -8.653   7.645  1.00  0.00     0.160 C 
BRANCH   7   8
HETATM    8  N   UNL     1      40.649  -8.171   8.388  1.00  0.00    -0.370 N 
HETATM    9  H   UNL     1      40.717  -7.161   8.404  1.00  0.00     0.161 HD
BRANCH   8  10
HETATM   10  C   UNL     1      41.118  -8.852   9.495  1.00  0.00     0.139 A 
HETATM   11  N   UNL     1      40.273  -9.225  10.415  1.00  0.00    -0.202 NA
HETATM   12  C   UNL     1      40.686  -9.877  11.546  1.00  0.00     0.200 A 
HETATM   13  S   UNL     1      39.631 -10.383  12.751  1.00  0.00    -0.039 SA
HETATM   14  N   UNL     1      42.019 -10.128  11.733  1.00  0.00    -0.331 N 
HETATM   15  C   UNL     1      42.980  -9.779  10.789  1.00  0.00     0.048 A 
HETATM   16  H   UNL     1      42.278 -10.608  12.585  1.00  0.00     0.168 HD
HETATM   17  C   UNL     1      42.576  -9.140   9.620  1.00  0.00     0.036 A 
HETATM   18  C   UNL     1      44.323 -10.083  11.010  1.00  0.00     0.030 A 
HETATM   19  C   UNL     1      43.522  -8.821   8.640  1.00  0.00     0.017 A 
HETATM   20  C   UNL     1      44.869  -9.125   8.856  1.00  0.00     0.001 A 
HETATM   21  C   UNL     1      45.268  -9.749  10.040  1.00  0.00     0.002 A 
ENDBRANCH   8  10
ENDBRANCH   7   8
ENDBRANCH   4   7
BRANCH   1  22
HETATM   22  C   UNL     1      41.105 -13.202   4.408  1.00  0.00     0.251 C 
HETATM   23  N   UNL     1      40.457 -14.398   4.621  1.00  0.00    -0.353 N 
HETATM   24  H   UNL     1      39.644 -14.434   5.220  1.00  0.00     0.163 HD
HETATM   25  O   UNL     1      41.975 -13.037   3.561  1.00  0.00    -0.268 OA
BRANCH  23  26
HETATM   26  C   UNL     1      40.766 -15.584   3.846  1.00  0.00     0.163 C 
BRANCH  26  27
HETATM   27  C   UNL     1      41.891 -16.429   4.404  1.00  0.00    -0.019 A 
HETATM   28  C   UNL     1      41.986 -16.735   5.774  1.00  0.00     0.010 A 
HETATM   29  C   UNL     1      43.019 -17.537   6.268  1.00  0.00     0.001 A 
HETATM   30  C   UNL     1      43.972 -18.063   5.401  1.00  0.00     0.002 A 
HETATM   31  C   UNL     1      43.890 -17.788   4.038  1.00  0.00     0.024 A 
HETATM   32  C   UNL     1      42.858 -16.983   3.543  1.00  0.00     0.042 A 
HETATM   33 CL   UNL     1      42.820 -16.706   1.835  1.00  0.00    -0.084 Cl
ENDBRANCH  26  27
ENDBRANCH  23  26
ENDBRANCH   1  22
TORSDOF 6
ENDMDL
MODEL 10
REMARK VINA RESULT:      -8.3      4.104      6.013
REMARK  6 active torsions:
REMARK  status: ('A' for Active; 'I' for Inactive)
REMARK    1  A    between atoms: C_3  and  C_4 
REMARK    2  A    between atoms: C_4  and  N_5 
REMARK       I    between atoms: N_5  and  C_6 
REMARK    3  A    between atoms: C_6  and  C_7 
REMARK    4  A    between atoms: C_10  and  C_11 
REMARK    5  A    between atoms: C_11  and  N_12 
REMARK    6  A    between atoms: N_12  and  C_13 
ROOT
HETATM    1  C   UNL     1      42.138 -14.222   5.769  1.00  0.00     0.032 A 
HETATM    2  C   UNL     1      42.786 -13.212   5.046  1.00  0.00     0.017 A 
HETATM    3  C   UNL     1      42.079 -12.071   4.655  1.00  0.00     0.010 A 
HETATM    4  C   UNL     1      40.723 -11.922   4.985  1.00  0.00    -0.041 A 
HETATM    5  C   UNL     1      40.074 -12.950   5.684  1.00  0.00     0.010 A 
HETATM    6  C   UNL     1      40.777 -14.093   6.071  1.00  0.00     0.017 A 
ENDROOT
BRANCH   4   7
HETATM    7  C   UNL     1      39.965 -10.689   4.552  1.00  0.00     0.160 C 
BRANCH   7   8
HETATM    8  N   UNL     1      39.179 -10.994   3.370  1.00  0.00    -0.370 N 
HETATM    9  H   UNL     1      38.309 -10.477   3.327  1.00  0.00     0.161 HD
BRANCH   8  10
HETATM   10  C   UNL     1      39.790 -11.302   2.170  1.00  0.00     0.139 A 
HETATM   11  N   UNL     1      40.248 -10.336   1.424  1.00  0.00    -0.202 NA
HETATM   12  C   UNL     1      40.837 -10.582   0.213  1.00  0.00     0.200 A 
HETATM   13  S   UNL     1      41.449  -9.368  -0.774  1.00  0.00    -0.039 SA
HETATM   14  N   UNL     1      40.931 -11.870  -0.244  1.00  0.00    -0.331 N 
HETATM   15  C   UNL     1      40.484 -12.956   0.502  1.00  0.00     0.048 A 
HETATM   16  H   UNL     1      41.369 -12.003  -1.145  1.00  0.00     0.168 HD
HETATM   17  C   UNL     1      39.907 -12.727   1.748  1.00  0.00     0.036 A 
HETATM   18  C   UNL     1      40.628 -14.252   0.008  1.00  0.00     0.030 A 
HETATM   19  C   UNL     1      39.491 -13.810   2.530  1.00  0.00     0.017 A 
HETATM   20  C   UNL     1      39.636 -15.112   2.040  1.00  0.00     0.001 A 
HETATM   21  C   UNL     1      40.198 -15.331   0.781  1.00  0.00     0.002 A 
ENDBRANCH   8  10
ENDBRANCH   7   8
ENDBRANCH   4   7
BRANCH   1  22
HETATM   22  C   UNL     1      42.844 -15.456   6.204  1.00  0.00     0.251 C 
HETATM   23  N   UNL     1      43.444 -16.198   5.212  1.00  0.00    -0.353 N 
HETATM   24  H   UNL     1      43.501 -15.833   4.272  1.00  0.00     0.163 HD
HETATM   25  O   UNL     1      42.897 -15.739   7.396  1.00  0.00    -0.268 OA
BRANCH  23  26
HETATM   26  C   UNL     1      44.196 -17.402   5.506  1.00  0.00     0.163 C 
BRANCH  26  27
HETATM   27  C   UNL     1      44.003 -18.528   4.511  1.00  0.00    -0.019 A 
HETATM   28  C   UNL     1      44.157 -19.878   4.873  1.00  0.00     0.010 A 
HETATM   29  C   UNL     1      43.951 -20.905   3.946  1.00  0.00     0.001 A 
HETATM   30  C   UNL     1      43.574 -20.604   2.641  1.00  0.00     0.002 A 
HETATM   31  C   UNL     1      43.400 -19.275   2.263  1.00  0.00     0.024 A 
HETATM   32  C   UNL     1      43.608 -18.246   3.189  1.00  0.00     0.042 A 
HETATM   33 CL   UNL     1      43.352 -16.625   2.641  1.00  0.00    -0.084 Cl
ENDBRANCH  26  27
ENDBRANCH  23  26
ENDBRANCH   1  22
TORSDOF 6
ENDMDL
