MODEL 1
REMARK VINA RESULT:      -9.4      0.000      0.000
REMARK  3 active torsions:
REMARK  status: ('A' for Active; 'I' for Inactive)
REMARK    1  A    between atoms: C_6  and  N_7 
REMARK       I    between atoms: N_7  and  C_8 
REMARK    2  A    between atoms: C_8  and  C_9 
REMARK    3  A    between atoms: C_9  and  N_10 
ROOT
HETATM    1  N   UNL     1      43.001 -14.253   3.740  1.00  0.00    -0.224 N 
HETATM    2  N   UNL     1      43.260 -14.709   5.052  1.00  0.00    -0.180 NA
HETATM    3  C   UNL     1      43.476 -15.977   5.261  1.00  0.00     0.153 A 
HETATM    4  C   UNL     1      43.442 -16.919   4.180  1.00  0.00     0.028 A 
HETATM    5  C   UNL     1      43.146 -16.467   2.920  1.00  0.00     0.116 A 
HETATM    6  N   UNL     1      43.158 -17.533   2.067  1.00  0.00    -0.350 N 
HETATM    7  H   UNL     1      42.968 -17.481   1.074  1.00  0.00     0.166 HD
HETATM    8  C   UNL     1      43.469 -18.682   2.767  1.00  0.00     0.044 A 
HETATM    9  C   UNL     1      43.650 -18.319   4.109  1.00  0.00     0.005 A 
HETATM   10  C   UNL     1      43.598 -20.001   2.321  1.00  0.00     0.030 A 
HETATM   11  C   UNL     1      43.919 -20.978   3.268  1.00  0.00     0.002 A 
HETATM   12  C   UNL     1      44.104 -20.647   4.609  1.00  0.00     0.001 A 
HETATM   13  C   UNL     1      43.973 -19.323   5.043  1.00  0.00     0.014 A 
HETATM   14  C   UNL     1      42.867 -15.095   2.619  1.00  0.00     0.291 A 
HETATM   15  O   UNL     1      42.553 -14.712   1.497  1.00  0.00    -0.264 OA
ENDROOT
BRANCH   1  16
HETATM   16  C   UNL     1      42.628 -12.851   3.602  1.00  0.00     0.258 C 
BRANCH  16  17
HETATM   17  C   UNL     1      43.325 -11.852   4.549  1.00  0.00     0.244 C 
HETATM   18  N   UNL     1      42.701 -11.521   5.767  1.00  0.00    -0.321 N 
HETATM   19  C   UNL     1      41.269 -11.764   5.948  1.00  0.00     0.159 C 
HETATM   20  O   UNL     1      44.354 -11.315   4.125  1.00  0.00    -0.271 OA
BRANCH  18  21
HETATM   21  C   UNL     1      43.394 -10.868   6.862  1.00  0.00     0.037 A 
HETATM   22  C   UNL     1      43.043  -9.603   7.353  1.00  0.00     0.037 A 
HETATM   23  C   UNL     1      43.720  -8.987   8.430  1.00  0.00    -0.054 A 
HETATM   24  C   UNL     1      44.782  -9.659   9.055  1.00  0.00    -0.056 A 
HETATM   25  C   UNL     1      43.237  -7.648   8.916  1.00  0.00     0.049 C 
HETATM   26  C   UNL     1      45.532  -9.060  10.212  1.00  0.00     0.049 C 
HETATM   27  C   UNL     1      45.170 -10.904   8.555  1.00  0.00     0.009 A 
HETATM   28  C   UNL     1      44.490 -11.494   7.482  1.00  0.00     0.030 A 
ENDBRANCH  18  21
ENDBRANCH  16  17
ENDBRANCH   1  16
TORSDOF 3
ENDMDL
MODEL 2
REMARK VINA RESULT:      -9.2      1.606      8.845
REMARK  3 active torsions:
REMARK  status: ('A' for Active; 'I' for Inactive)
REMARK    1  A    between atoms: C_6  and  N_7 
REMARK       I    between atoms: N_7  and  C_8 
REMARK    2  A    between atoms: C_8  and  C_9 
REMARK    3  A    between atoms: C_9  and  N_10 
ROOT
HETATM    1  N   UNL     1      42.209 -12.463   4.735  1.00  0.00    -0.224 N 
HETATM    2  N   UNL     1      43.603 -12.236   4.703  1.00  0.00    -0.180 NA
HETATM    3  C   UNL     1      44.143 -11.428   5.571  1.00  0.00     0.153 A 
HETATM    4  C   UNL     1      43.341 -10.754   6.550  1.00  0.00     0.028 A 
HETATM    5  C   UNL     1      41.984 -10.951   6.541  1.00  0.00     0.116 A 
HETATM    6  N   UNL     1      41.434 -10.205   7.544  1.00  0.00    -0.350 N 
HETATM    7  H   UNL     1      40.445 -10.162   7.757  1.00  0.00     0.166 HD
HETATM    8  C   UNL     1      42.432  -9.526   8.214  1.00  0.00     0.044 A 
HETATM    9  C   UNL     1      43.648  -9.855   7.602  1.00  0.00     0.005 A 
HETATM   10  C   UNL     1      42.350  -8.651   9.303  1.00  0.00     0.030 A 
HETATM   11  C   UNL     1      43.541  -8.095   9.779  1.00  0.00     0.002 A 
HETATM   12  C   UNL     1      44.765  -8.403   9.189  1.00  0.00     0.001 A 
HETATM   13  C   UNL     1      44.834  -9.280   8.101  1.00  0.00     0.014 A 
HETATM   14  C   UNL     1      41.316 -11.799   5.599  1.00  0.00     0.291 A 
HETATM   15  O   UNL     1      40.097 -11.925   5.568  1.00  0.00    -0.264 OA
ENDROOT
BRANCH   1  16
HETATM   16  C   UNL     1      41.657 -13.264   3.650  1.00  0.00     0.258 C 
BRANCH  16  17
HETATM   17  C   UNL     1      41.747 -14.796   3.803  1.00  0.00     0.244 C 
HETATM   18  N   UNL     1      42.786 -15.485   3.149  1.00  0.00    -0.321 N 
HETATM   19  C   UNL     1      43.492 -14.858   2.031  1.00  0.00     0.159 C 
HETATM   20  O   UNL     1      40.825 -15.345   4.416  1.00  0.00    -0.271 OA
BRANCH  18  21
HETATM   21  C   UNL     1      43.163 -16.847   3.476  1.00  0.00     0.037 A 
HETATM   22  C   UNL     1      43.117 -17.903   2.555  1.00  0.00     0.037 A 
HETATM   23  C   UNL     1      43.501 -19.222   2.887  1.00  0.00    -0.054 A 
HETATM   24  C   UNL     1      43.965 -19.504   4.181  1.00  0.00    -0.056 A 
HETATM   25  C   UNL     1      43.461 -20.278   1.814  1.00  0.00     0.049 C 
HETATM   26  C   UNL     1      44.398 -20.884   4.588  1.00  0.00     0.049 C 
HETATM   27  C   UNL     1      43.982 -18.472   5.122  1.00  0.00     0.009 A 
HETATM   28  C   UNL     1      43.590 -17.173   4.775  1.00  0.00     0.030 A 
ENDBRANCH  18  21
ENDBRANCH  16  17
ENDBRANCH   1  16
TORSDOF 3
ENDMDL
MODEL 3
REMARK VINA RESULT:      -8.7      4.727      9.099
REMARK  3 active torsions:
REMARK  status: ('A' for Active; 'I' for Inactive)
REMARK    1  A    between atoms: C_6  and  N_7 
REMARK       I    between atoms: N_7  and  C_8 
REMARK    2  A    between atoms: C_8  and  C_9 
REMARK    3  A    between atoms: C_9  and  N_10 
ROOT
HETATM    1  N   UNL     1      40.564 -12.778   1.917  1.00  0.00    -0.224 N 
HETATM    2  N   UNL     1      40.552 -13.621   0.784  1.00  0.00    -0.180 NA
HETATM    3  C   UNL     1      39.734 -13.367  -0.198  1.00  0.00     0.153 A 
HETATM    4  C   UNL     1      38.836 -12.250  -0.140  1.00  0.00     0.028 A 
HETATM    5  C   UNL     1      38.829 -11.466   0.985  1.00  0.00     0.116 A 
HETATM    6  N   UNL     1      37.894 -10.485   0.820  1.00  0.00    -0.350 N 
HETATM    7  H   UNL     1      37.680  -9.770   1.503  1.00  0.00     0.166 HD
HETATM    8  C   UNL     1      37.296 -10.621  -0.417  1.00  0.00     0.044 A 
HETATM    9  C   UNL     1      37.873 -11.734  -1.043  1.00  0.00     0.005 A 
HETATM   10  C   UNL     1      36.294  -9.853  -1.021  1.00  0.00     0.030 A 
HETATM   11  C   UNL     1      35.868 -10.232  -2.298  1.00  0.00     0.002 A 
HETATM   12  C   UNL     1      36.422 -11.335  -2.944  1.00  0.00     0.001 A 
HETATM   13  C   UNL     1      37.425 -12.094  -2.329  1.00  0.00     0.014 A 
HETATM   14  C   UNL     1      39.676 -11.702   2.116  1.00  0.00     0.291 A 
HETATM   15  O   UNL     1      39.622 -11.026   3.137  1.00  0.00    -0.264 OA
ENDROOT
BRANCH   1  16
HETATM   16  C   UNL     1      41.398 -13.203   3.034  1.00  0.00     0.258 C 
BRANCH  16  17
HETATM   17  C   UNL     1      41.544 -14.724   3.250  1.00  0.00     0.244 C 
HETATM   18  N   UNL     1      42.738 -15.356   2.852  1.00  0.00    -0.321 N 
HETATM   19  C   UNL     1      43.627 -14.703   1.891  1.00  0.00     0.159 C 
HETATM   20  O   UNL     1      40.546 -15.320   3.670  1.00  0.00    -0.271 OA
BRANCH  18  21
HETATM   21  C   UNL     1      43.117 -16.685   3.293  1.00  0.00     0.037 A 
HETATM   22  C   UNL     1      43.098 -17.810   2.457  1.00  0.00     0.037 A 
HETATM   23  C   UNL     1      43.484 -19.096   2.900  1.00  0.00    -0.054 A 
HETATM   24  C   UNL     1      43.920 -19.272   4.222  1.00  0.00    -0.056 A 
HETATM   25  C   UNL     1      43.476 -20.232   1.913  1.00  0.00     0.049 C 
HETATM   26  C   UNL     1      44.353 -20.612   4.746  1.00  0.00     0.049 C 
HETATM   27  C   UNL     1      43.908 -18.169   5.080  1.00  0.00     0.009 A 
HETATM   28  C   UNL     1      43.516 -16.904   4.623  1.00  0.00     0.030 A 
ENDBRANCH  18  21
ENDBRANCH  16  17
ENDBRANCH   1  16
TORSDOF 3
ENDMDL
MODEL 4
REMARK VINA RESULT:      -8.6      2.053      3.457
REMARK  3 active torsions:
REMARK  status: ('A' for Active; 'I' for Inactive)
REMARK    1  A    between atoms: C_6  and  N_7 
REMARK       I    between atoms: N_7  and  C_8 
REMARK    2  A    between atoms: C_8  and  C_9 
REMARK    3  A    between atoms: C_9  and  N_10 
ROOT
HETATM    1  N   UNL     1      42.619 -11.528   5.252  1.00  0.00    -0.224 N 
HETATM    2  N   UNL     1      42.362 -12.525   6.219  1.00  0.00    -0.180 NA
HETATM    3  C   UNL     1      42.424 -13.781   5.880  1.00  0.00     0.153 A 
HETATM    4  C   UNL     1      42.736 -14.167   4.535  1.00  0.00     0.028 A 
HETATM    5  C   UNL     1      42.940 -13.188   3.597  1.00  0.00     0.116 A 
HETATM    6  N   UNL     1      43.206 -13.787   2.399  1.00  0.00    -0.350 N 
HETATM    7  H   UNL     1      43.390 -13.294   1.534  1.00  0.00     0.166 HD
HETATM    8  C   UNL     1      43.185 -15.159   2.554  1.00  0.00     0.044 A 
HETATM    9  C   UNL     1      42.886 -15.425   3.897  1.00  0.00     0.005 A 
HETATM   10  C   UNL     1      43.400 -16.174   1.616  1.00  0.00     0.030 A 
HETATM   11  C   UNL     1      43.308 -17.497   2.059  1.00  0.00     0.002 A 
HETATM   12  C   UNL     1      43.011 -17.792   3.389  1.00  0.00     0.001 A 
HETATM   13  C   UNL     1      42.798 -16.767   4.318  1.00  0.00     0.014 A 
HETATM   14  C   UNL     1      42.858 -11.787   3.888  1.00  0.00     0.291 A 
HETATM   15  O   UNL     1      42.989 -10.923   3.029  1.00  0.00    -0.264 OA
ENDROOT
BRANCH   1  16
HETATM   16  C   UNL     1      42.391 -10.149   5.665  1.00  0.00     0.258 C 
BRANCH  16  17
HETATM   17  C   UNL     1      42.195  -9.901   7.175  1.00  0.00     0.244 C 
HETATM   18  N   UNL     1      43.332  -9.751   7.993  1.00  0.00    -0.321 N 
HETATM   19  C   UNL     1      44.635 -10.232   7.533  1.00  0.00     0.159 C 
HETATM   20  O   UNL     1      41.035  -9.954   7.597  1.00  0.00    -0.271 OA
BRANCH  18  21
HETATM   21  C   UNL     1      43.277  -9.199   9.333  1.00  0.00     0.037 A 
HETATM   22  C   UNL     1      42.878  -7.884   9.611  1.00  0.00     0.037 A 
HETATM   23  C   UNL     1      42.817  -7.367  10.925  1.00  0.00    -0.054 A 
HETATM   24  C   UNL     1      43.153  -8.190  12.010  1.00  0.00    -0.056 A 
HETATM   25  C   UNL     1      42.329  -5.957  11.125  1.00  0.00     0.049 C 
HETATM   26  C   UNL     1      43.097  -7.700  13.430  1.00  0.00     0.049 C 
HETATM   27  C   UNL     1      43.590  -9.492  11.749  1.00  0.00     0.009 A 
HETATM   28  C   UNL     1      43.649  -9.983  10.439  1.00  0.00     0.030 A 
ENDBRANCH  18  21
ENDBRANCH  16  17
ENDBRANCH   1  16
TORSDOF 3
ENDMDL
MODEL 5
REMARK VINA RESULT:      -8.6      4.424      9.061
REMARK  3 active torsions:
REMARK  status: ('A' for Active; 'I' for Inactive)
REMARK    1  A    between atoms: C_6  and  N_7 
REMARK       I    between atoms: N_7  and  C_8 
REMARK    2  A    between atoms: C_8  and  C_9 
REMARK    3  A    between atoms: C_9  and  N_10 
ROOT
HETATM    1  N   UNL     1      40.567 -12.965   1.432  1.00  0.00    -0.224 N 
HETATM    2  N   UNL     1      39.982 -13.516   0.271  1.00  0.00    -0.180 NA
HETATM    3  C   UNL     1      40.024 -12.850  -0.848  1.00  0.00     0.153 A 
HETATM    4  C   UNL     1      40.644 -11.559  -0.915  1.00  0.00     0.028 A 
HETATM    5  C   UNL     1      41.169 -11.018   0.230  1.00  0.00     0.116 A 
HETATM    6  N   UNL     1      41.688  -9.791  -0.072  1.00  0.00    -0.350 N 
HETATM    7  H   UNL     1      42.134  -9.173   0.594  1.00  0.00     0.166 HD
HETATM    8  C   UNL     1      41.510  -9.533  -1.416  1.00  0.00     0.044 A 
HETATM    9  C   UNL     1      40.848 -10.636  -1.972  1.00  0.00     0.005 A 
HETATM   10  C   UNL     1      41.876  -8.415  -2.174  1.00  0.00     0.030 A 
HETATM   11  C   UNL     1      41.559  -8.422  -3.535  1.00  0.00     0.002 A 
HETATM   12  C   UNL     1      40.900  -9.504  -4.115  1.00  0.00     0.001 A 
HETATM   13  C   UNL     1      40.538 -10.617  -3.346  1.00  0.00     0.014 A 
HETATM   14  C   UNL     1      41.133 -11.676   1.502  1.00  0.00     0.291 A 
HETATM   15  O   UNL     1      41.558 -11.159   2.529  1.00  0.00    -0.264 OA
ENDROOT
BRANCH   1  16
HETATM   16  C   UNL     1      40.358 -13.697   2.675  1.00  0.00     0.258 C 
BRANCH  16  17
HETATM   17  C   UNL     1      40.886 -15.146   2.723  1.00  0.00     0.244 C 
HETATM   18  N   UNL     1      42.253 -15.363   2.978  1.00  0.00    -0.321 N 
HETATM   19  C   UNL     1      43.218 -14.280   2.779  1.00  0.00     0.159 C 
HETATM   20  O   UNL     1      40.082 -16.037   2.427  1.00  0.00    -0.271 OA
BRANCH  18  21
HETATM   21  C   UNL     1      42.793 -16.652   3.367  1.00  0.00     0.037 A 
HETATM   22  C   UNL     1      42.877 -17.749   2.497  1.00  0.00     0.037 A 
HETATM   23  C   UNL     1      43.418 -18.994   2.888  1.00  0.00    -0.054 A 
HETATM   24  C   UNL     1      43.911 -19.156   4.192  1.00  0.00    -0.056 A 
HETATM   25  C   UNL     1      43.508 -20.096   1.867  1.00  0.00     0.049 C 
HETATM   26  C   UNL     1      44.508 -20.452   4.662  1.00  0.00     0.049 C 
HETATM   27  C   UNL     1      43.801 -18.086   5.084  1.00  0.00     0.009 A 
HETATM   28  C   UNL     1      43.255 -16.862   4.678  1.00  0.00     0.030 A 
ENDBRANCH  18  21
ENDBRANCH  16  17
ENDBRANCH   1  16
TORSDOF 3
ENDMDL
MODEL 6
REMARK VINA RESULT:      -8.4      2.665      9.571
REMARK  3 active torsions:
REMARK  status: ('A' for Active; 'I' for Inactive)
REMARK    1  A    between atoms: C_6  and  N_7 
REMARK       I    between atoms: N_7  and  C_8 
REMARK    2  A    between atoms: C_8  and  C_9 
REMARK    3  A    between atoms: C_9  and  N_10 
ROOT
HETATM    1  N   UNL     1      42.960 -10.216   7.539  1.00  0.00    -0.224 N 
HETATM    2  N   UNL     1      44.186 -10.182   8.240  1.00  0.00    -0.180 NA
HETATM    3  C   UNL     1      44.226  -9.678   9.441  1.00  0.00     0.153 A 
HETATM    4  C   UNL     1      43.046  -9.146  10.057  1.00  0.00     0.028 A 
HETATM    5  C   UNL     1      41.873  -9.146   9.347  1.00  0.00     0.116 A 
HETATM    6  N   UNL     1      40.900  -8.584  10.123  1.00  0.00    -0.350 N 
HETATM    7  H   UNL     1      39.937  -8.456   9.840  1.00  0.00     0.166 HD
HETATM    8  C   UNL     1      41.435  -8.223  11.344  1.00  0.00     0.044 A 
HETATM    9  C   UNL     1      42.793  -8.565  11.325  1.00  0.00     0.005 A 
HETATM   10  C   UNL     1      40.826  -7.621  12.450  1.00  0.00     0.030 A 
HETATM   11  C   UNL     1      41.624  -7.360  13.568  1.00  0.00     0.002 A 
HETATM   12  C   UNL     1      42.978  -7.688  13.578  1.00  0.00     0.001 A 
HETATM   13  C   UNL     1      43.576  -8.291  12.464  1.00  0.00     0.014 A 
HETATM   14  C   UNL     1      41.759  -9.653   8.012  1.00  0.00     0.291 A 
HETATM   15  O   UNL     1      40.717  -9.600   7.369  1.00  0.00    -0.264 OA
ENDROOT
BRANCH   1  16
HETATM   16  C   UNL     1      43.018 -10.660   6.152  1.00  0.00     0.258 C 
BRANCH  16  17
HETATM   17  C   UNL     1      43.413 -12.131   5.910  1.00  0.00     0.244 C 
HETATM   18  N   UNL     1      42.428 -13.037   5.475  1.00  0.00    -0.321 N 
HETATM   19  C   UNL     1      41.010 -12.721   5.653  1.00  0.00     0.159 C 
HETATM   20  O   UNL     1      44.566 -12.451   6.220  1.00  0.00    -0.271 OA
BRANCH  18  21
HETATM   21  C   UNL     1      42.739 -14.337   4.910  1.00  0.00     0.037 A 
HETATM   22  C   UNL     1      42.865 -14.571   3.533  1.00  0.00     0.037 A 
HETATM   23  C   UNL     1      43.183 -15.841   3.001  1.00  0.00    -0.054 A 
HETATM   24  C   UNL     1      43.397 -16.922   3.869  1.00  0.00    -0.056 A 
HETATM   25  C   UNL     1      43.343 -15.980   1.511  1.00  0.00     0.049 C 
HETATM   26  C   UNL     1      43.749 -18.292   3.362  1.00  0.00     0.049 C 
HETATM   27  C   UNL     1      43.239 -16.716   5.242  1.00  0.00     0.009 A 
HETATM   28  C   UNL     1      42.917 -15.451   5.748  1.00  0.00     0.030 A 
ENDBRANCH  18  21
ENDBRANCH  16  17
ENDBRANCH   1  16
TORSDOF 3
ENDMDL
MODEL 7
REMARK VINA RESULT:      -8.4      3.280      5.214
REMARK  3 active torsions:
REMARK  status: ('A' for Active; 'I' for Inactive)
REMARK    1  A    between atoms: C_6  and  N_7 
REMARK       I    between atoms: N_7  and  C_8 
REMARK    2  A    between atoms: C_8  and  C_9 
REMARK    3  A    between atoms: C_9  and  N_10 
ROOT
HETATM    1  N   UNL     1      43.582 -10.911   6.963  1.00  0.00    -0.224 N 
HETATM    2  N   UNL     1      44.277 -12.055   7.413  1.00  0.00    -0.180 NA
HETATM    3  C   UNL     1      44.082 -13.200   6.823  1.00  0.00     0.153 A 
HETATM    4  C   UNL     1      43.161 -13.319   5.731  1.00  0.00     0.028 A 
HETATM    5  C   UNL     1      42.460 -12.210   5.334  1.00  0.00     0.116 A 
HETATM    6  N   UNL     1      41.643 -12.564   4.298  1.00  0.00    -0.350 N 
HETATM    7  H   UNL     1      41.012 -11.934   3.819  1.00  0.00     0.166 HD
HETATM    8  C   UNL     1      41.815 -13.904   4.013  1.00  0.00     0.044 A 
HETATM    9  C   UNL     1      42.768 -14.406   4.908  1.00  0.00     0.005 A 
HETATM   10  C   UNL     1      41.201 -14.703   3.042  1.00  0.00     0.030 A 
HETATM   11  C   UNL     1      41.569 -16.050   2.983  1.00  0.00     0.002 A 
HETATM   12  C   UNL     1      42.513 -16.577   3.862  1.00  0.00     0.001 A 
HETATM   13  C   UNL     1      43.121 -15.767   4.829  1.00  0.00     0.014 A 
HETATM   14  C   UNL     1      42.598 -10.926   5.954  1.00  0.00     0.291 A 
HETATM   15  O   UNL     1      41.928  -9.954   5.624  1.00  0.00    -0.264 OA
ENDROOT
BRANCH   1  16
HETATM   16  C   UNL     1      43.740  -9.700   7.758  1.00  0.00     0.258 C 
BRANCH  16  17
HETATM   17  C   UNL     1      42.927  -9.619   9.067  1.00  0.00     0.244 C 
HETATM   18  N   UNL     1      43.602  -9.743  10.296  1.00  0.00    -0.321 N 
HETATM   19  C   UNL     1      44.933 -10.349  10.344  1.00  0.00     0.159 C 
HETATM   20  O   UNL     1      41.698  -9.554   8.950  1.00  0.00    -0.271 OA
BRANCH  18  21
HETATM   21  C   UNL     1      43.014  -9.363  11.566  1.00  0.00     0.037 A 
HETATM   22  C   UNL     1      43.485  -8.300  12.348  1.00  0.00     0.037 A 
HETATM   23  C   UNL     1      42.891  -7.934  13.578  1.00  0.00    -0.054 A 
HETATM   24  C   UNL     1      41.774  -8.643  14.045  1.00  0.00    -0.056 A 
HETATM   25  C   UNL     1      43.440  -6.746  14.321  1.00  0.00     0.049 C 
HETATM   26  C   UNL     1      41.093  -8.293  15.338  1.00  0.00     0.049 C 
HETATM   27  C   UNL     1      41.314  -9.730  13.297  1.00  0.00     0.009 A 
HETATM   28  C   UNL     1      41.921 -10.080  12.085  1.00  0.00     0.030 A 
ENDBRANCH  18  21
ENDBRANCH  16  17
ENDBRANCH   1  16
TORSDOF 3
ENDMDL
MODEL 8
REMARK VINA RESULT:      -8.4      3.522     10.053
REMARK  3 active torsions:
REMARK  status: ('A' for Active; 'I' for Inactive)
REMARK    1  A    between atoms: C_6  and  N_7 
REMARK       I    between atoms: N_7  and  C_8 
REMARK    2  A    between atoms: C_8  and  C_9 
REMARK    3  A    between atoms: C_9  and  N_10 
ROOT
HETATM    1  N   UNL     1      43.989 -10.072   8.965  1.00  0.00    -0.224 N 
HETATM    2  N   UNL     1      43.946 -10.987  10.040  1.00  0.00    -0.180 NA
HETATM    3  C   UNL     1      43.573 -10.577  11.219  1.00  0.00     0.153 A 
HETATM    4  C   UNL     1      43.217  -9.207  11.445  1.00  0.00     0.028 A 
HETATM    5  C   UNL     1      43.306  -8.321  10.402  1.00  0.00     0.116 A 
HETATM    6  N   UNL     1      42.934  -7.087  10.853  1.00  0.00    -0.350 N 
HETATM    7  H   UNL     1      42.913  -6.248  10.287  1.00  0.00     0.166 HD
HETATM    8  C   UNL     1      42.595  -7.166  12.188  1.00  0.00     0.044 A 
HETATM    9  C   UNL     1      42.769  -8.498  12.588  1.00  0.00     0.005 A 
HETATM   10  C   UNL     1      42.155  -6.169  13.066  1.00  0.00     0.030 A 
HETATM   11  C   UNL     1      41.887  -6.540  14.387  1.00  0.00     0.002 A 
HETATM   12  C   UNL     1      42.052  -7.856  14.813  1.00  0.00     0.001 A 
HETATM   13  C   UNL     1      42.492  -8.845  13.925  1.00  0.00     0.014 A 
HETATM   14  C   UNL     1      43.738  -8.691   9.087  1.00  0.00     0.291 A 
HETATM   15  O   UNL     1      43.863  -7.880   8.177  1.00  0.00    -0.264 OA
ENDROOT
BRANCH   1  16
HETATM   16  C   UNL     1      44.552 -10.566   7.714  1.00  0.00     0.258 C 
BRANCH  16  17
HETATM   17  C   UNL     1      43.873 -11.802   7.089  1.00  0.00     0.244 C 
HETATM   18  N   UNL     1      42.799 -11.610   6.199  1.00  0.00    -0.321 N 
HETATM   19  C   UNL     1      42.070 -10.340   6.192  1.00  0.00     0.159 C 
HETATM   20  O   UNL     1      44.253 -12.905   7.495  1.00  0.00    -0.271 OA
BRANCH  18  21
HETATM   21  C   UNL     1      42.306 -12.648   5.314  1.00  0.00     0.037 A 
HETATM   22  C   UNL     1      42.988 -13.070   4.164  1.00  0.00     0.037 A 
HETATM   23  C   UNL     1      42.501 -14.093   3.320  1.00  0.00    -0.054 A 
HETATM   24  C   UNL     1      41.294 -14.736   3.636  1.00  0.00    -0.056 A 
HETATM   25  C   UNL     1      43.330 -14.508   2.134  1.00  0.00     0.049 C 
HETATM   26  C   UNL     1      40.732 -15.838   2.783  1.00  0.00     0.049 C 
HETATM   27  C   UNL     1      40.582 -14.303   4.757  1.00  0.00     0.009 A 
HETATM   28  C   UNL     1      41.079 -13.282   5.577  1.00  0.00     0.030 A 
ENDBRANCH  18  21
ENDBRANCH  16  17
ENDBRANCH   1  16
TORSDOF 3
ENDMDL
MODEL 9
REMARK VINA RESULT:      -8.3      4.288      7.038
REMARK  3 active torsions:
REMARK  status: ('A' for Active; 'I' for Inactive)
REMARK    1  A    between atoms: C_6  and  N_7 
REMARK       I    between atoms: N_7  and  C_8 
REMARK    2  A    between atoms: C_8  and  C_9 
REMARK    3  A    between atoms: C_9  and  N_10 
ROOT
HETATM    1  N   UNL     1      42.197 -14.303   2.706  1.00  0.00    -0.224 N 
HETATM    2  N   UNL     1      42.249 -15.058   1.514  1.00  0.00    -0.180 NA
HETATM    3  C   UNL     1      42.606 -16.311   1.560  1.00  0.00     0.153 A 
HETATM    4  C   UNL     1      42.959 -16.931   2.804  1.00  0.00     0.028 A 
HETATM    5  C   UNL     1      42.946 -16.173   3.947  1.00  0.00     0.116 A 
HETATM    6  N   UNL     1      43.326 -16.965   4.992  1.00  0.00    -0.350 N 
HETATM    7  H   UNL     1      43.406 -16.655   5.953  1.00  0.00     0.166 HD
HETATM    8  C   UNL     1      43.581 -18.242   4.535  1.00  0.00     0.044 A 
HETATM    9  C   UNL     1      43.359 -18.246   3.152  1.00  0.00     0.005 A 
HETATM   10  C   UNL     1      43.992 -19.383   5.233  1.00  0.00     0.030 A 
HETATM   11  C   UNL     1      44.183 -20.559   4.501  1.00  0.00     0.002 A 
HETATM   12  C   UNL     1      43.971 -20.591   3.124  1.00  0.00     0.001 A 
HETATM   13  C   UNL     1      43.559 -19.443   2.437  1.00  0.00     0.014 A 
HETATM   14  C   UNL     1      42.595 -14.785   3.969  1.00  0.00     0.291 A 
HETATM   15  O   UNL     1      42.638 -14.106   4.989  1.00  0.00    -0.264 OA
ENDROOT
BRANCH   1  16
HETATM   16  C   UNL     1      41.930 -12.878   2.561  1.00  0.00     0.258 C 
BRANCH  16  17
HETATM   17  C   UNL     1      40.578 -12.486   1.930  1.00  0.00     0.244 C 
HETATM   18  N   UNL     1      40.550 -11.469   0.957  1.00  0.00    -0.321 N 
HETATM   19  C   UNL     1      41.664 -10.526   0.851  1.00  0.00     0.159 C 
HETATM   20  O   UNL     1      39.572 -13.027   2.403  1.00  0.00    -0.271 OA
BRANCH  18  21
HETATM   21  C   UNL     1      39.421 -11.246   0.075  1.00  0.00     0.037 A 
HETATM   22  C   UNL     1      38.933 -12.213  -0.816  1.00  0.00     0.037 A 
HETATM   23  C   UNL     1      37.822 -11.983  -1.658  1.00  0.00    -0.054 A 
HETATM   24  C   UNL     1      37.157 -10.749  -1.608  1.00  0.00    -0.056 A 
HETATM   25  C   UNL     1      37.345 -13.101  -2.546  1.00  0.00     0.049 C 
HETATM   26  C   UNL     1      35.964 -10.451  -2.471  1.00  0.00     0.049 C 
HETATM   27  C   UNL     1      37.652  -9.760  -0.753  1.00  0.00     0.009 A 
HETATM   28  C   UNL     1      38.759 -10.006   0.069  1.00  0.00     0.030 A 
ENDBRANCH  18  21
ENDBRANCH  16  17
ENDBRANCH   1  16
TORSDOF 3
ENDMDL
MODEL 10
REMARK VINA RESULT:      -8.3     15.949     18.211
REMARK  3 active torsions:
REMARK  status: ('A' for Active; 'I' for Inactive)
REMARK    1  A    between atoms: C_6  and  N_7 
REMARK       I    between atoms: N_7  and  C_8 
REMARK    2  A    between atoms: C_8  and  C_9 
REMARK    3  A    between atoms: C_9  and  N_10 
ROOT
HETATM    1  N   UNL     1      45.268 -29.135  -2.008  1.00  0.00    -0.224 N 
HETATM    2  N   UNL     1      45.081 -30.470  -1.584  1.00  0.00    -0.180 NA
HETATM    3  C   UNL     1      44.800 -31.390  -2.463  1.00  0.00     0.153 A 
HETATM    4  C   UNL     1      44.663 -31.065  -3.852  1.00  0.00     0.028 A 
HETATM    5  C   UNL     1      44.804 -29.758  -4.243  1.00  0.00     0.116 A 
HETATM    6  N   UNL     1      44.620 -29.690  -5.594  1.00  0.00    -0.350 N 
HETATM    7  H   UNL     1      44.665 -28.840  -6.141  1.00  0.00     0.166 HD
HETATM    8  C   UNL     1      44.367 -30.953  -6.090  1.00  0.00     0.044 A 
HETATM    9  C   UNL     1      44.386 -31.842  -5.006  1.00  0.00     0.005 A 
HETATM   10  C   UNL     1      44.121 -31.373  -7.402  1.00  0.00     0.030 A 
HETATM   11  C   UNL     1      43.887 -32.735  -7.614  1.00  0.00     0.002 A 
HETATM   12  C   UNL     1      43.898 -33.641  -6.556  1.00  0.00     0.001 A 
HETATM   13  C   UNL     1      44.146 -33.209  -5.247  1.00  0.00     0.014 A 
HETATM   14  C   UNL     1      45.082 -28.689  -3.331  1.00  0.00     0.291 A 
HETATM   15  O   UNL     1      45.153 -27.517  -3.685  1.00  0.00    -0.264 OA
ENDROOT
BRANCH   1  16
HETATM   16  C   UNL     1      45.437 -28.139  -0.958  1.00  0.00     0.258 C 
BRANCH  16  17
HETATM   17  C   UNL     1      46.697 -28.267  -0.076  1.00  0.00     0.244 C 
HETATM   18  N   UNL     1      46.599 -28.940   1.156  1.00  0.00    -0.321 N 
HETATM   19  C   UNL     1      45.291 -29.133   1.784  1.00  0.00     0.159 C 
HETATM   20  O   UNL     1      47.706 -27.671  -0.467  1.00  0.00    -0.271 OA
BRANCH  18  21
HETATM   21  C   UNL     1      47.754 -29.403   1.901  1.00  0.00     0.037 A 
HETATM   22  C   UNL     1      48.577 -30.455   1.475  1.00  0.00     0.037 A 
HETATM   23  C   UNL     1      49.707 -30.884   2.207  1.00  0.00    -0.054 A 
HETATM   24  C   UNL     1      50.044 -30.236   3.405  1.00  0.00    -0.056 A 
HETATM   25  C   UNL     1      50.556 -31.991   1.642  1.00  0.00     0.049 C 
HETATM   26  C   UNL     1      51.241 -30.640   4.220  1.00  0.00     0.049 C 
HETATM   27  C   UNL     1      49.214 -29.210   3.864  1.00  0.00     0.009 A 
HETATM   28  C   UNL     1      48.094 -28.804   3.127  1.00  0.00     0.030 A 
ENDBRANCH  18  21
ENDBRANCH  16  17
ENDBRANCH   1  16
TORSDOF 3
ENDMDL
