MODEL 1
REMARK VINA RESULT:     -10.3      0.000      0.000
REMARK  4 active torsions:
REMARK  status: ('A' for Active; 'I' for Inactive)
REMARK    1  A    between atoms: N_4  and  C_5 
REMARK    2  A    between atoms: C_15  and  N_16 
REMARK       I    between atoms: N_16  and  C_17 
REMARK    3  A    between atoms: C_17  and  C_18 
REMARK       I    between atoms: C_18  and  N_19 
REMARK    4  A    between atoms: N_19  and  C_20 
ROOT
HETATM    1  N   UNL     1      39.349 -10.419   8.726  1.00  0.00    -0.303 N 
HETATM    2  C   UNL     1      39.700 -10.267   7.397  1.00  0.00     0.315 C 
HETATM    3  O   UNL     1      40.154  -9.269   6.850  1.00  0.00    -0.262 OA
HETATM    4  H   UNL     1      39.328 -11.374   9.075  1.00  0.00     0.171 HD
ENDROOT
BRANCH   1   5
HETATM    5  C   UNL     1      39.385  -9.349   9.601  1.00  0.00     0.152 C 
HETATM    6  N   UNL     1      40.475  -8.943  10.369  1.00  0.00    -0.045 N 
HETATM    7  N   UNL     1      40.096  -8.005  11.302  1.00  0.00    -0.156 NA
HETATM    8  C   UNL     1      38.856  -7.660  10.936  1.00  0.00     0.055 C 
HETATM    9  C   UNL     1      38.125  -6.598  11.669  1.00  0.00     0.072 C 
HETATM   10  C   UNL     1      38.388  -8.434   9.851  1.00  0.00     0.079 C 
BRANCH   6  11
HETATM   11  C   UNL     1      41.856  -9.196  10.195  1.00  0.00     0.732 A 
HETATM   12  N   UNL     1      42.632  -8.525   9.395  1.00  0.00    -0.067 NA
HETATM   13  C   UNL     1      43.940  -8.913   9.419  1.00  0.00     0.065 A 
HETATM   14  C   UNL     1      44.462  -9.864  10.195  1.00  0.00     0.036 A 
HETATM   15  C   UNL     1      44.985  -8.275   8.567  1.00  0.00     0.061 C 
HETATM   16  C   UNL     1      45.921 -10.036  10.017  1.00  0.00     0.047 C 
HETATM   17  C   UNL     1      43.589 -10.590  11.114  1.00  0.00     0.268 A 
HETATM   18  C   UNL     1      46.175  -9.230   8.736  1.00  0.00     0.011 C 
HETATM   19  O   UNL     1      44.005 -11.449  11.879  1.00  0.00    -0.267 OA
HETATM   20  N   UNL     1      42.282 -10.202  11.037  1.00  0.00    -0.152 N 
HETATM   21  H   UNL     1      41.604 -10.626  11.663  1.00  0.00     0.188 HD
ENDBRANCH   6  11
ENDBRANCH   1   5
BRANCH   2  22
HETATM   22  C   UNL     1      39.553 -11.570   6.585  1.00  0.00     0.310 C 
HETATM   23  N   UNL     1      40.694 -12.342   6.597  1.00  0.00    -0.348 N 
HETATM   24  H   UNL     1      41.480 -11.888   7.060  1.00  0.00     0.163 HD
HETATM   25  O   UNL     1      38.501 -11.811   6.014  1.00  0.00    -0.262 OA
BRANCH  23  26
HETATM   26  C   UNL     1      40.971 -13.433   5.661  1.00  0.00     0.084 C 
HETATM   27  C   UNL     1      41.191 -12.811   4.258  1.00  0.00     0.025 C 
HETATM   28  C   UNL     1      41.111 -13.822   3.106  1.00  0.00     0.002 C 
HETATM   29  C   UNL     1      42.463 -14.052   2.420  1.00  0.00     0.000 C 
HETATM   30  C   UNL     1      42.507 -15.351   1.599  1.00  0.00     0.000 C 
HETATM   31  C   UNL     1      43.313 -16.462   2.289  1.00  0.00     0.000 C 
HETATM   32  C   UNL     1      42.659 -16.976   3.573  1.00  0.00     0.000 C 
HETATM   33  C   UNL     1      43.688 -17.462   4.593  1.00  0.00     0.000 C 
HETATM   34  C   UNL     1      43.073 -17.810   5.954  1.00  0.00     0.000 C 
HETATM   35  C   UNL     1      42.910 -16.626   6.922  1.00  0.00     0.000 C 
HETATM   36  C   UNL     1      41.728 -15.691   6.633  1.00  0.00     0.002 C 
HETATM   37  C   UNL     1      42.166 -14.308   6.113  1.00  0.00     0.025 C 
ENDBRANCH  23  26
ENDBRANCH   2  22
TORSDOF 4
ENDMDL
MODEL 2
REMARK VINA RESULT:      -9.7      2.947      4.201
REMARK  4 active torsions:
REMARK  status: ('A' for Active; 'I' for Inactive)
REMARK    1  A    between atoms: N_4  and  C_5 
REMARK    2  A    between atoms: C_15  and  N_16 
REMARK       I    between atoms: N_16  and  C_17 
REMARK    3  A    between atoms: C_17  and  C_18 
REMARK       I    between atoms: C_18  and  N_19 
REMARK    4  A    between atoms: N_19  and  C_20 
ROOT
HETATM    1  N   UNL     1      43.041 -10.364   8.826  1.00  0.00    -0.303 N 
HETATM    2  C   UNL     1      44.278 -10.899   8.517  1.00  0.00     0.315 C 
HETATM    3  O   UNL     1      45.316 -10.813   9.162  1.00  0.00    -0.262 OA
HETATM    4  H   UNL     1      42.240 -10.810   8.388  1.00  0.00     0.171 HD
ENDROOT
BRANCH   1   5
HETATM    5  C   UNL     1      42.876  -9.534   9.920  1.00  0.00     0.152 C 
HETATM    6  N   UNL     1      42.755  -8.146   9.897  1.00  0.00    -0.045 N 
HETATM    7  N   UNL     1      42.852  -7.623  11.166  1.00  0.00    -0.156 NA
HETATM    8  C   UNL     1      42.774  -8.691  11.968  1.00  0.00     0.055 C 
HETATM    9  C   UNL     1      42.767  -8.524  13.442  1.00  0.00     0.072 C 
HETATM   10  C   UNL     1      42.737  -9.900  11.239  1.00  0.00     0.079 C 
BRANCH   6  11
HETATM   11  C   UNL     1      42.370  -7.283   8.843  1.00  0.00     0.732 A 
HETATM   12  N   UNL     1      42.263  -7.645   7.599  1.00  0.00    -0.067 NA
HETATM   13  C   UNL     1      41.834  -6.658   6.758  1.00  0.00     0.065 A 
HETATM   14  C   UNL     1      41.500  -5.417   7.112  1.00  0.00     0.036 A 
HETATM   15  C   UNL     1      41.656  -6.870   5.293  1.00  0.00     0.061 C 
HETATM   16  C   UNL     1      41.042  -4.583   5.979  1.00  0.00     0.047 C 
HETATM   17  C   UNL     1      41.593  -5.029   8.518  1.00  0.00     0.268 A 
HETATM   18  C   UNL     1      41.459  -5.437   4.775  1.00  0.00     0.011 C 
HETATM   19  O   UNL     1      41.269  -3.920   8.919  1.00  0.00    -0.267 OA
HETATM   20  N   UNL     1      42.059  -6.028   9.324  1.00  0.00    -0.152 N 
HETATM   21  H   UNL     1      42.126  -5.864  10.324  1.00  0.00     0.188 HD
ENDBRANCH   6  11
ENDBRANCH   1   5
BRANCH   2  22
HETATM   22  C   UNL     1      44.255 -11.763   7.239  1.00  0.00     0.310 C 
HETATM   23  N   UNL     1      43.005 -12.265   6.952  1.00  0.00    -0.348 N 
HETATM   24  H   UNL     1      42.317 -12.064   7.676  1.00  0.00     0.163 HD
HETATM   25  O   UNL     1      45.286 -11.938   6.609  1.00  0.00    -0.262 OA
BRANCH  23  26
HETATM   26  C   UNL     1      42.743 -13.369   6.027  1.00  0.00     0.084 C 
HETATM   27  C   UNL     1      42.850 -12.815   4.583  1.00  0.00     0.025 C 
HETATM   28  C   UNL     1      42.236 -13.729   3.515  1.00  0.00     0.002 C 
HETATM   29  C   UNL     1      43.286 -14.346   2.582  1.00  0.00     0.000 C 
HETATM   30  C   UNL     1      42.768 -15.580   1.825  1.00  0.00     0.000 C 
HETATM   31  C   UNL     1      43.323 -16.897   2.388  1.00  0.00     0.000 C 
HETATM   32  C   UNL     1      42.821 -17.215   3.797  1.00  0.00     0.000 C 
HETATM   33  C   UNL     1      43.840 -18.011   4.610  1.00  0.00     0.000 C 
HETATM   34  C   UNL     1      43.439 -18.183   6.080  1.00  0.00     0.000 C 
HETATM   35  C   UNL     1      43.842 -17.026   7.010  1.00  0.00     0.000 C 
HETATM   36  C   UNL     1      42.964 -15.769   6.924  1.00  0.00     0.002 C 
HETATM   37  C   UNL     1      43.684 -14.576   6.268  1.00  0.00     0.025 C 
ENDBRANCH  23  26
ENDBRANCH   2  22
TORSDOF 4
ENDMDL
MODEL 3
REMARK VINA RESULT:      -9.6      2.762      9.156
REMARK  4 active torsions:
REMARK  status: ('A' for Active; 'I' for Inactive)
REMARK    1  A    between atoms: N_4  and  C_5 
REMARK    2  A    between atoms: C_15  and  N_16 
REMARK       I    between atoms: N_16  and  C_17 
REMARK    3  A    between atoms: C_17  and  C_18 
REMARK       I    between atoms: C_18  and  N_19 
REMARK    4  A    between atoms: N_19  and  C_20 
ROOT
HETATM    1  N   UNL     1      43.384 -13.122   7.448  1.00  0.00    -0.303 N 
HETATM    2  C   UNL     1      44.229 -12.087   7.088  1.00  0.00     0.315 C 
HETATM    3  O   UNL     1      44.684 -11.840   5.978  1.00  0.00    -0.262 OA
HETATM    4  H   UNL     1      42.841 -12.980   8.295  1.00  0.00     0.171 HD
ENDROOT
BRANCH   1   5
HETATM    5  C   UNL     1      43.033 -14.104   6.540  1.00  0.00     0.152 C 
HETATM    6  N   UNL     1      41.876 -14.139   5.764  1.00  0.00    -0.045 N 
HETATM    7  N   UNL     1      41.728 -15.367   5.159  1.00  0.00    -0.156 NA
HETATM    8  C   UNL     1      42.903 -15.974   5.358  1.00  0.00     0.055 C 
HETATM    9  C   UNL     1      43.162 -17.315   4.779  1.00  0.00     0.072 C 
HETATM   10  C   UNL     1      43.767 -15.208   6.170  1.00  0.00     0.079 C 
BRANCH   6  11
HETATM   11  C   UNL     1      41.005 -13.092   5.379  1.00  0.00     0.732 A 
HETATM   12  N   UNL     1      40.903 -11.955   6.002  1.00  0.00    -0.067 NA
HETATM   13  C   UNL     1      40.031 -11.074   5.430  1.00  0.00     0.065 A 
HETATM   14  C   UNL     1      39.335 -11.274   4.310  1.00  0.00     0.036 A 
HETATM   15  C   UNL     1      39.765  -9.721   5.998  1.00  0.00     0.061 C 
HETATM   16  C   UNL     1      38.496 -10.120   3.922  1.00  0.00     0.047 C 
HETATM   17  C   UNL     1      39.482 -12.543   3.600  1.00  0.00     0.268 A 
HETATM   18  C   UNL     1      38.540  -9.261   5.193  1.00  0.00     0.011 C 
HETATM   19  O   UNL     1      38.903 -12.781   2.549  1.00  0.00    -0.267 OA
HETATM   20  N   UNL     1      40.333 -13.413   4.219  1.00  0.00    -0.152 N 
HETATM   21  H   UNL     1      40.525 -14.309   3.781  1.00  0.00     0.188 HD
ENDBRANCH   6  11
ENDBRANCH   1   5
BRANCH   2  22
HETATM   22  C   UNL     1      44.526 -11.123   8.255  1.00  0.00     0.310 C 
HETATM   23  N   UNL     1      43.392 -10.530   8.765  1.00  0.00    -0.348 N 
HETATM   24  H   UNL     1      42.551 -10.750   8.232  1.00  0.00     0.163 HD
HETATM   25  O   UNL     1      45.679 -10.955   8.622  1.00  0.00    -0.262 OA
BRANCH  23  26
HETATM   26  C   UNL     1      43.386  -9.342   9.619  1.00  0.00     0.084 C 
HETATM   27  C   UNL     1      43.082  -8.114   8.723  1.00  0.00     0.025 C 
HETATM   28  C   UNL     1      43.413  -6.765   9.376  1.00  0.00     0.002 C 
HETATM   29  C   UNL     1      42.165  -5.933   9.693  1.00  0.00     0.000 C 
HETATM   30  C   UNL     1      42.427  -4.826  10.727  1.00  0.00     0.000 C 
HETATM   31  C   UNL     1      41.857  -5.162  12.114  1.00  0.00     0.000 C 
HETATM   32  C   UNL     1      42.565  -6.337  12.792  1.00  0.00     0.000 C 
HETATM   33  C   UNL     1      41.633  -7.121  13.713  1.00  0.00     0.000 C 
HETATM   34  C   UNL     1      42.265  -8.407  14.260  1.00  0.00     0.000 C 
HETATM   35  C   UNL     1      42.139  -9.640  13.349  1.00  0.00     0.000 C 
HETATM   36  C   UNL     1      43.101  -9.681  12.153  1.00  0.00     0.002 C 
HETATM   37  C   UNL     1      42.393  -9.470  10.801  1.00  0.00     0.025 C 
ENDBRANCH  23  26
ENDBRANCH   2  22
TORSDOF 4
ENDMDL
MODEL 4
REMARK VINA RESULT:      -9.5      1.984      2.680
REMARK  4 active torsions:
REMARK  status: ('A' for Active; 'I' for Inactive)
REMARK    1  A    between atoms: N_4  and  C_5 
REMARK    2  A    between atoms: C_15  and  N_16 
REMARK       I    between atoms: N_16  and  C_17 
REMARK    3  A    between atoms: C_17  and  C_18 
REMARK       I    between atoms: C_18  and  N_19 
REMARK    4  A    between atoms: N_19  and  C_20 
ROOT
HETATM    1  N   UNL     1      39.883  -9.577   6.049  1.00  0.00    -0.303 N 
HETATM    2  C   UNL     1      39.315 -10.835   6.138  1.00  0.00     0.315 C 
HETATM    3  O   UNL     1      38.264 -11.147   6.685  1.00  0.00    -0.262 OA
HETATM    4  H   UNL     1      40.544  -9.439   5.289  1.00  0.00     0.171 HD
ENDROOT
BRANCH   1   5
HETATM    5  C   UNL     1      39.326  -8.495   6.704  1.00  0.00     0.152 C 
HETATM    6  N   UNL     1      39.339  -8.261   8.078  1.00  0.00    -0.045 N 
HETATM    7  N   UNL     1      38.490  -7.230   8.410  1.00  0.00    -0.156 NA
HETATM    8  C   UNL     1      38.165  -6.681   7.234  1.00  0.00     0.055 C 
HETATM    9  C   UNL     1      37.307  -5.473   7.181  1.00  0.00     0.072 C 
HETATM   10  C   UNL     1      38.701  -7.403   6.145  1.00  0.00     0.079 C 
BRANCH   6  11
HETATM   11  C   UNL     1      40.201  -8.769   9.079  1.00  0.00     0.732 A 
HETATM   12  N   UNL     1      41.496  -8.819   8.979  1.00  0.00    -0.067 NA
HETATM   13  C   UNL     1      42.131  -9.308  10.084  1.00  0.00     0.065 A 
HETATM   14  C   UNL     1      41.546  -9.688  11.221  1.00  0.00     0.036 A 
HETATM   15  C   UNL     1      43.613  -9.455  10.163  1.00  0.00     0.061 C 
HETATM   16  C   UNL     1      42.502 -10.145  12.253  1.00  0.00     0.047 C 
HETATM   17  C   UNL     1      40.092  -9.597  11.336  1.00  0.00     0.268 A 
HETATM   18  C   UNL     1      43.793 -10.292  11.437  1.00  0.00     0.011 C 
HETATM   19  O   UNL     1      39.492  -9.893  12.360  1.00  0.00    -0.267 OA
HETATM   20  N   UNL     1      39.487  -9.139  10.201  1.00  0.00    -0.152 N 
HETATM   21  H   UNL     1      38.480  -9.009  10.196  1.00  0.00     0.188 HD
ENDBRANCH   6  11
ENDBRANCH   1   5
BRANCH   2  22
HETATM   22  C   UNL     1      40.111 -11.908   5.367  1.00  0.00     0.310 C 
HETATM   23  N   UNL     1      39.579 -13.171   5.500  1.00  0.00    -0.348 N 
HETATM   24  H   UNL     1      38.802 -13.211   6.159  1.00  0.00     0.163 HD
HETATM   25  O   UNL     1      41.104 -11.586   4.735  1.00  0.00    -0.262 OA
BRANCH  23  26
HETATM   26  C   UNL     1      40.287 -14.411   5.181  1.00  0.00     0.084 C 
HETATM   27  C   UNL     1      40.346 -14.541   3.638  1.00  0.00     0.025 C 
HETATM   28  C   UNL     1      40.706 -15.948   3.141  1.00  0.00     0.002 C 
HETATM   29  C   UNL     1      42.087 -16.011   2.476  1.00  0.00     0.000 C 
HETATM   30  C   UNL     1      42.648 -17.439   2.388  1.00  0.00     0.000 C 
HETATM   31  C   UNL     1      43.761 -17.703   3.413  1.00  0.00     0.000 C 
HETATM   32  C   UNL     1      43.266 -17.696   4.861  1.00  0.00     0.000 C 
HETATM   33  C   UNL     1      44.340 -17.221   5.838  1.00  0.00     0.000 C 
HETATM   34  C   UNL     1      43.817 -17.030   7.266  1.00  0.00     0.000 C 
HETATM   35  C   UNL     1      43.179 -15.660   7.553  1.00  0.00     0.000 C 
HETATM   36  C   UNL     1      41.756 -15.465   7.011  1.00  0.00     0.002 C 
HETATM   37  C   UNL     1      41.691 -14.474   5.833  1.00  0.00     0.025 C 
ENDBRANCH  23  26
ENDBRANCH   2  22
TORSDOF 4
ENDMDL
MODEL 5
REMARK VINA RESULT:      -9.5      3.247      8.690
REMARK  4 active torsions:
REMARK  status: ('A' for Active; 'I' for Inactive)
REMARK    1  A    between atoms: N_4  and  C_5 
REMARK    2  A    between atoms: C_15  and  N_16 
REMARK       I    between atoms: N_16  and  C_17 
REMARK    3  A    between atoms: C_17  and  C_18 
REMARK       I    between atoms: C_18  and  N_19 
REMARK    4  A    between atoms: N_19  and  C_20 
ROOT
HETATM    1  N   UNL     1      40.833 -11.913   2.939  1.00  0.00    -0.303 N 
HETATM    2  C   UNL     1      41.753 -10.898   2.746  1.00  0.00     0.315 C 
HETATM    3  O   UNL     1      42.434 -10.681   1.751  1.00  0.00    -0.262 OA
HETATM    4  H   UNL     1      40.127 -11.746   3.651  1.00  0.00     0.171 HD
ENDROOT
BRANCH   1   5
HETATM    5  C   UNL     1      40.662 -12.909   1.995  1.00  0.00     0.152 C 
HETATM    6  N   UNL     1      41.384 -14.097   1.904  1.00  0.00    -0.045 N 
HETATM    7  N   UNL     1      41.124 -14.739   0.714  1.00  0.00    -0.156 NA
HETATM    8  C   UNL     1      40.072 -14.085   0.211  1.00  0.00     0.055 C 
HETATM    9  C   UNL     1      39.441 -14.537  -1.053  1.00  0.00     0.072 C 
HETATM   10  C   UNL     1      39.715 -12.967   0.997  1.00  0.00     0.079 C 
BRANCH   6  11
HETATM   11  C   UNL     1      42.137 -14.783   2.886  1.00  0.00     0.732 A 
HETATM   12  N   UNL     1      42.375 -14.328   4.081  1.00  0.00    -0.067 NA
HETATM   13  C   UNL     1      43.086 -15.176   4.878  1.00  0.00     0.065 A 
HETATM   14  C   UNL     1      43.505 -16.398   4.546  1.00  0.00     0.036 A 
HETATM   15  C   UNL     1      43.469 -14.835   6.278  1.00  0.00     0.061 C 
HETATM   16  C   UNL     1      44.227 -17.091   5.636  1.00  0.00     0.047 C 
HETATM   17  C   UNL     1      43.205 -16.914   3.213  1.00  0.00     0.268 A 
HETATM   18  C   UNL     1      44.472 -15.945   6.625  1.00  0.00     0.011 C 
HETATM   19  O   UNL     1      43.527 -18.038   2.852  1.00  0.00    -0.267 OA
HETATM   20  N   UNL     1      42.525 -16.025   2.430  1.00  0.00    -0.152 N 
HETATM   21  H   UNL     1      42.241 -16.307   1.497  1.00  0.00     0.188 HD
ENDBRANCH   6  11
ENDBRANCH   1   5
BRANCH   2  22
HETATM   22  C   UNL     1      41.816  -9.913   3.932  1.00  0.00     0.310 C 
HETATM   23  N   UNL     1      42.431 -10.449   5.043  1.00  0.00    -0.348 N 
HETATM   24  H   UNL     1      42.661 -11.436   4.936  1.00  0.00     0.163 HD
HETATM   25  O   UNL     1      41.341  -8.795   3.815  1.00  0.00    -0.262 OA
BRANCH  23  26
HETATM   26  C   UNL     1      42.335  -9.896   6.394  1.00  0.00     0.084 C 
HETATM   27  C   UNL     1      40.843  -9.920   6.813  1.00  0.00     0.025 C 
HETATM   28  C   UNL     1      40.519  -9.037   8.026  1.00  0.00     0.002 C 
HETATM   29  C   UNL     1      40.131  -9.849   9.268  1.00  0.00     0.000 C 
HETATM   30  C   UNL     1      40.247  -9.044  10.573  1.00  0.00     0.000 C 
HETATM   31  C   UNL     1      41.480  -9.434  11.403  1.00  0.00     0.000 C 
HETATM   32  C   UNL     1      42.804  -9.059  10.736  1.00  0.00     0.000 C 
HETATM   33  C   UNL     1      43.932 -10.020  11.106  1.00  0.00     0.000 C 
HETATM   34  C   UNL     1      45.220  -9.776  10.310  1.00  0.00     0.000 C 
HETATM   35  C   UNL     1      45.289 -10.477   8.942  1.00  0.00     0.000 C 
HETATM   36  C   UNL     1      44.476  -9.818   7.818  1.00  0.00     0.002 C 
HETATM   37  C   UNL     1      43.243 -10.644   7.403  1.00  0.00     0.025 C 
ENDBRANCH  23  26
ENDBRANCH   2  22
TORSDOF 4
ENDMDL
MODEL 6
REMARK VINA RESULT:      -9.5      6.364     10.074
REMARK  4 active torsions:
REMARK  status: ('A' for Active; 'I' for Inactive)
REMARK    1  A    between atoms: N_4  and  C_5 
REMARK    2  A    between atoms: C_15  and  N_16 
REMARK       I    between atoms: N_16  and  C_17 
REMARK    3  A    between atoms: C_17  and  C_18 
REMARK       I    between atoms: C_18  and  N_19 
REMARK    4  A    between atoms: N_19  and  C_20 
ROOT
HETATM    1  N   UNL     1      39.968 -12.672  -0.595  1.00  0.00    -0.303 N 
HETATM    2  C   UNL     1      39.816 -12.441   0.760  1.00  0.00     0.315 C 
HETATM    3  O   UNL     1      38.823 -12.022   1.343  1.00  0.00    -0.262 OA
HETATM    4  H   UNL     1      40.699 -13.328  -0.856  1.00  0.00     0.171 HD
ENDROOT
BRANCH   1   5
HETATM    5  C   UNL     1      38.975 -12.329  -1.494  1.00  0.00     0.152 C 
HETATM    6  N   UNL     1      38.855 -11.119  -2.175  1.00  0.00    -0.045 N 
HETATM    7  N   UNL     1      37.630 -11.022  -2.793  1.00  0.00    -0.156 NA
HETATM    8  C   UNL     1      37.119 -12.254  -2.704  1.00  0.00     0.055 C 
HETATM    9  C   UNL     1      35.813 -12.574  -3.332  1.00  0.00     0.072 C 
HETATM   10  C   UNL     1      37.942 -13.117  -1.947  1.00  0.00     0.079 C 
BRANCH   6  11
HETATM   11  C   UNL     1      39.832 -10.137  -2.465  1.00  0.00     0.732 A 
HETATM   12  N   UNL     1      40.764  -9.760  -1.639  1.00  0.00    -0.067 NA
HETATM   13  C   UNL     1      41.625  -8.830  -2.144  1.00  0.00     0.065 A 
HETATM   14  C   UNL     1      41.602  -8.329  -3.380  1.00  0.00     0.036 A 
HETATM   15  C   UNL     1      42.755  -8.264  -1.352  1.00  0.00     0.061 C 
HETATM   16  C   UNL     1      42.688  -7.359  -3.644  1.00  0.00     0.047 C 
HETATM   17  C   UNL     1      40.572  -8.783  -4.311  1.00  0.00     0.268 A 
HETATM   18  C   UNL     1      43.217  -7.092  -2.229  1.00  0.00     0.011 C 
HETATM   19  O   UNL     1      40.512  -8.393  -5.469  1.00  0.00    -0.267 OA
HETATM   20  N   UNL     1      39.706  -9.684  -3.761  1.00  0.00    -0.152 N 
HETATM   21  H   UNL     1      38.975 -10.083  -4.343  1.00  0.00     0.188 HD
ENDBRANCH   6  11
ENDBRANCH   1   5
BRANCH   2  22
HETATM   22  C   UNL     1      41.052 -12.859   1.582  1.00  0.00     0.310 C 
HETATM   23  N   UNL     1      40.994 -14.166   2.013  1.00  0.00    -0.348 N 
HETATM   24  H   UNL     1      40.106 -14.619   1.801  1.00  0.00     0.163 HD
HETATM   25  O   UNL     1      41.943 -12.050   1.788  1.00  0.00    -0.262 OA
BRANCH  23  26
HETATM   26  C   UNL     1      41.829 -14.731   3.074  1.00  0.00     0.084 C 
HETATM   27  C   UNL     1      41.279 -14.224   4.432  1.00  0.00     0.025 C 
HETATM   28  C   UNL     1      42.251 -14.402   5.606  1.00  0.00     0.002 C 
HETATM   29  C   UNL     1      41.771 -15.444   6.624  1.00  0.00     0.000 C 
HETATM   30  C   UNL     1      42.898 -15.960   7.534  1.00  0.00     0.000 C 
HETATM   31  C   UNL     1      43.362 -17.376   7.159  1.00  0.00     0.000 C 
HETATM   32  C   UNL     1      44.059 -17.445   5.799  1.00  0.00     0.000 C 
HETATM   33  C   UNL     1      43.855 -18.794   5.111  1.00  0.00     0.000 C 
HETATM   34  C   UNL     1      44.386 -18.826   3.673  1.00  0.00     0.000 C 
HETATM   35  C   UNL     1      43.410 -18.313   2.601  1.00  0.00     0.000 C 
HETATM   36  C   UNL     1      43.268 -16.786   2.509  1.00  0.00     0.002 C 
HETATM   37  C   UNL     1      41.902 -16.277   3.007  1.00  0.00     0.025 C 
ENDBRANCH  23  26
ENDBRANCH   2  22
TORSDOF 4
ENDMDL
MODEL 7
REMARK VINA RESULT:      -9.5      4.276      7.494
REMARK  4 active torsions:
REMARK  status: ('A' for Active; 'I' for Inactive)
REMARK    1  A    between atoms: N_4  and  C_5 
REMARK    2  A    between atoms: C_15  and  N_16 
REMARK       I    between atoms: N_16  and  C_17 
REMARK    3  A    between atoms: C_17  and  C_18 
REMARK       I    between atoms: C_18  and  N_19 
REMARK    4  A    between atoms: N_19  and  C_20 
ROOT
HETATM    1  N   UNL     1      42.141 -11.391   4.639  1.00  0.00    -0.303 N 
HETATM    2  C   UNL     1      42.763 -11.188   3.421  1.00  0.00     0.315 C 
HETATM    3  O   UNL     1      43.961 -11.250   3.170  1.00  0.00    -0.262 OA
HETATM    4  H   UNL     1      41.157 -11.643   4.600  1.00  0.00     0.171 HD
ENDROOT
BRANCH   1   5
HETATM    5  C   UNL     1      42.877 -11.596   5.791  1.00  0.00     0.152 C 
HETATM    6  N   UNL     1      43.208 -12.827   6.355  1.00  0.00    -0.045 N 
HETATM    7  N   UNL     1      43.731 -12.664   7.617  1.00  0.00    -0.156 NA
HETATM    8  C   UNL     1      43.952 -11.349   7.714  1.00  0.00     0.055 C 
HETATM    9  C   UNL     1      44.593 -10.782   8.926  1.00  0.00     0.072 C 
HETATM   10  C   UNL     1      43.483 -10.647   6.582  1.00  0.00     0.079 C 
BRANCH   6  11
HETATM   11  C   UNL     1      43.264 -14.113   5.766  1.00  0.00     0.732 A 
HETATM   12  N   UNL     1      43.105 -14.348   4.497  1.00  0.00    -0.067 NA
HETATM   13  C   UNL     1      43.244 -15.659   4.143  1.00  0.00     0.065 A 
HETATM   14  C   UNL     1      43.549 -16.665   4.964  1.00  0.00     0.036 A 
HETATM   15  C   UNL     1      43.089 -16.134   2.738  1.00  0.00     0.061 C 
HETATM   16  C   UNL     1      43.660 -17.972   4.280  1.00  0.00     0.047 C 
HETATM   17  C   UNL     1      43.757 -16.386   6.383  1.00  0.00     0.268 A 
HETATM   18  C   UNL     1      43.043 -17.660   2.910  1.00  0.00     0.011 C 
HETATM   19  O   UNL     1      44.074 -17.252   7.185  1.00  0.00    -0.267 OA
HETATM   20  N   UNL     1      43.575 -15.072   6.708  1.00  0.00    -0.152 N 
HETATM   21  H   UNL     1      43.732 -14.774   7.666  1.00  0.00     0.188 HD
ENDBRANCH   6  11
ENDBRANCH   1   5
BRANCH   2  22
HETATM   22  C   UNL     1      41.764 -10.939   2.271  1.00  0.00     0.310 C 
HETATM   23  N   UNL     1      40.522 -11.482   2.512  1.00  0.00    -0.348 N 
HETATM   24  H   UNL     1      40.486 -12.039   3.364  1.00  0.00     0.163 HD
HETATM   25  O   UNL     1      42.124 -10.320   1.282  1.00  0.00    -0.262 OA
BRANCH  23  26
HETATM   26  C   UNL     1      39.499 -11.705   1.490  1.00  0.00     0.084 C 
HETATM   27  C   UNL     1      38.796 -10.351   1.217  1.00  0.00     0.025 C 
HETATM   28  C   UNL     1      37.462 -10.477   0.468  1.00  0.00     0.002 C 
HETATM   29  C   UNL     1      37.521  -9.908  -0.955  1.00  0.00     0.000 C 
HETATM   30  C   UNL     1      36.383 -10.419  -1.854  1.00  0.00     0.000 C 
HETATM   31  C   UNL     1      36.855 -11.472  -2.868  1.00  0.00     0.000 C 
HETATM   32  C   UNL     1      37.295 -12.785  -2.218  1.00  0.00     0.000 C 
HETATM   33  C   UNL     1      38.387 -13.491  -3.020  1.00  0.00     0.000 C 
HETATM   34  C   UNL     1      38.973 -14.711  -2.299  1.00  0.00     0.000 C 
HETATM   35  C   UNL     1      40.116 -14.406  -1.317  1.00  0.00     0.000 C 
HETATM   36  C   UNL     1      39.689 -13.819   0.036  1.00  0.00     0.002 C 
HETATM   37  C   UNL     1      40.081 -12.338   0.201  1.00  0.00     0.025 C 
ENDBRANCH  23  26
ENDBRANCH   2  22
TORSDOF 4
ENDMDL
MODEL 8
REMARK VINA RESULT:      -9.3      3.180      9.199
REMARK  4 active torsions:
REMARK  status: ('A' for Active; 'I' for Inactive)
REMARK    1  A    between atoms: N_4  and  C_5 
REMARK    2  A    between atoms: C_15  and  N_16 
REMARK       I    between atoms: N_16  and  C_17 
REMARK    3  A    between atoms: C_17  and  C_18 
REMARK       I    between atoms: C_18  and  N_19 
REMARK    4  A    between atoms: N_19  and  C_20 
ROOT
HETATM    1  N   UNL     1      42.522 -11.490   5.373  1.00  0.00    -0.303 N 
HETATM    2  C   UNL     1      43.817 -11.215   5.775  1.00  0.00     0.315 C 
HETATM    3  O   UNL     1      44.832 -11.216   5.089  1.00  0.00    -0.262 OA
HETATM    4  H   UNL     1      41.784 -11.112   5.960  1.00  0.00     0.171 HD
ENDROOT
BRANCH   1   5
HETATM    5  C   UNL     1      42.251 -11.922   4.088  1.00  0.00     0.152 C 
HETATM    6  N   UNL     1      42.557 -13.172   3.552  1.00  0.00    -0.045 N 
HETATM    7  N   UNL     1      42.371 -13.180   2.189  1.00  0.00    -0.156 NA
HETATM    8  C   UNL     1      41.720 -12.039   1.939  1.00  0.00     0.055 C 
HETATM    9  C   UNL     1      41.268 -11.718   0.563  1.00  0.00     0.072 C 
HETATM   10  C   UNL     1      41.577 -11.245   3.098  1.00  0.00     0.079 C 
BRANCH   6  11
HETATM   11  C   UNL     1      42.818 -14.401   4.201  1.00  0.00     0.732 A 
HETATM   12  N   UNL     1      42.702 -14.596   5.482  1.00  0.00    -0.067 NA
HETATM   13  C   UNL     1      42.962 -15.874   5.886  1.00  0.00     0.065 A 
HETATM   14  C   UNL     1      43.280 -16.898   5.092  1.00  0.00     0.036 A 
HETATM   15  C   UNL     1      42.893 -16.297   7.314  1.00  0.00     0.061 C 
HETATM   16  C   UNL     1      43.475 -18.171   5.821  1.00  0.00     0.047 C 
HETATM   17  C   UNL     1      43.377 -16.676   3.651  1.00  0.00     0.268 A 
HETATM   18  C   UNL     1      43.539 -17.690   7.276  1.00  0.00     0.011 C 
HETATM   19  O   UNL     1      43.629 -17.576   2.862  1.00  0.00    -0.267 OA
HETATM   20  N   UNL     1      43.146 -15.381   3.287  1.00  0.00    -0.152 N 
HETATM   21  H   UNL     1      43.157 -15.136   2.301  1.00  0.00     0.188 HD
ENDBRANCH   6  11
ENDBRANCH   1   5
BRANCH   2  22
HETATM   22  C   UNL     1      43.907 -10.785   7.254  1.00  0.00     0.310 C 
HETATM   23  N   UNL     1      43.079  -9.728   7.558  1.00  0.00    -0.348 N 
HETATM   24  H   UNL     1      42.610  -9.339   6.741  1.00  0.00     0.163 HD
HETATM   25  O   UNL     1      44.666 -11.373   8.009  1.00  0.00    -0.262 OA
BRANCH  23  26
HETATM   26  C   UNL     1      43.195  -8.897   8.757  1.00  0.00     0.084 C 
HETATM   27  C   UNL     1      42.887  -7.433   8.352  1.00  0.00     0.025 C 
HETATM   28  C   UNL     1      43.333  -6.390   9.386  1.00  0.00     0.002 C 
HETATM   29  C   UNL     1      42.154  -5.686  10.070  1.00  0.00     0.000 C 
HETATM   30  C   UNL     1      42.547  -4.998  11.388  1.00  0.00     0.000 C 
HETATM   31  C   UNL     1      42.067  -5.769  12.626  1.00  0.00     0.000 C 
HETATM   32  C   UNL     1      42.764  -7.118  12.809  1.00  0.00     0.000 C 
HETATM   33  C   UNL     1      41.865  -8.147  13.492  1.00  0.00     0.000 C 
HETATM   34  C   UNL     1      42.471  -9.555  13.522  1.00  0.00     0.000 C 
HETATM   35  C   UNL     1      42.216 -10.406  12.266  1.00  0.00     0.000 C 
HETATM   36  C   UNL     1      43.084 -10.063  11.046  1.00  0.00     0.002 C 
HETATM   37  C   UNL     1      42.288  -9.394   9.910  1.00  0.00     0.025 C 
ENDBRANCH  23  26
ENDBRANCH   2  22
TORSDOF 4
ENDMDL
MODEL 9
REMARK VINA RESULT:      -9.1      2.252      4.302
REMARK  4 active torsions:
REMARK  status: ('A' for Active; 'I' for Inactive)
REMARK    1  A    between atoms: N_4  and  C_5 
REMARK    2  A    between atoms: C_15  and  N_16 
REMARK       I    between atoms: N_16  and  C_17 
REMARK    3  A    between atoms: C_17  and  C_18 
REMARK       I    between atoms: C_18  and  N_19 
REMARK    4  A    between atoms: N_19  and  C_20 
ROOT
HETATM    1  N   UNL     1      41.120 -12.018   5.352  1.00  0.00    -0.303 N 
HETATM    2  C   UNL     1      40.286 -12.822   6.107  1.00  0.00     0.315 C 
HETATM    3  O   UNL     1      39.215 -12.521   6.621  1.00  0.00    -0.262 OA
HETATM    4  H   UNL     1      41.762 -12.502   4.730  1.00  0.00     0.171 HD
ENDROOT
BRANCH   1   5
HETATM    5  C   UNL     1      40.851 -10.673   5.181  1.00  0.00     0.152 C 
HETATM    6  N   UNL     1      41.036  -9.665   6.125  1.00  0.00    -0.045 N 
HETATM    7  N   UNL     1      40.443  -8.493   5.714  1.00  0.00    -0.156 NA
HETATM    8  C   UNL     1      40.128  -8.715   4.434  1.00  0.00     0.055 C 
HETATM    9  C   UNL     1      39.526  -7.638   3.610  1.00  0.00     0.072 C 
HETATM   10  C   UNL     1      40.408 -10.042   4.040  1.00  0.00     0.079 C 
BRANCH   6  11
HETATM   11  C   UNL     1      41.866  -9.631   7.270  1.00  0.00     0.732 A 
HETATM   12  N   UNL     1      43.118  -9.982   7.281  1.00  0.00    -0.067 NA
HETATM   13  C   UNL     1      43.739  -9.827   8.487  1.00  0.00     0.065 A 
HETATM   14  C   UNL     1      43.186  -9.331   9.595  1.00  0.00     0.036 A 
HETATM   15  C   UNL     1      45.170 -10.182   8.708  1.00  0.00     0.061 C 
HETATM   16  C   UNL     1      44.122  -9.258  10.739  1.00  0.00     0.047 C 
HETATM   17  C   UNL     1      41.788  -8.909   9.564  1.00  0.00     0.268 A 
HETATM   18  C   UNL     1      45.295 -10.109  10.237  1.00  0.00     0.011 C 
HETATM   19  O   UNL     1      41.227  -8.413  10.531  1.00  0.00    -0.267 OA
HETATM   20  N   UNL     1      41.189  -9.112   8.354  1.00  0.00    -0.152 N 
HETATM   21  H   UNL     1      40.226  -8.818   8.225  1.00  0.00     0.188 HD
ENDBRANCH   6  11
ENDBRANCH   1   5
BRANCH   2  22
HETATM   22  C   UNL     1      40.784 -14.279   6.205  1.00  0.00     0.310 C 
HETATM   23  N   UNL     1      42.142 -14.397   6.008  1.00  0.00    -0.348 N 
HETATM   24  H   UNL     1      42.585 -13.520   5.738  1.00  0.00     0.163 HD
HETATM   25  O   UNL     1      39.987 -15.176   6.432  1.00  0.00    -0.262 OA
BRANCH  23  26
HETATM   26  C   UNL     1      42.833 -15.651   5.705  1.00  0.00     0.084 C 
HETATM   27  C   UNL     1      42.740 -16.560   6.957  1.00  0.00     0.025 C 
HETATM   28  C   UNL     1      43.726 -17.736   6.951  1.00  0.00     0.002 C 
HETATM   29  C   UNL     1      43.031 -19.096   6.805  1.00  0.00     0.000 C 
HETATM   30  C   UNL     1      43.983 -20.212   6.348  1.00  0.00     0.000 C 
HETATM   31  C   UNL     1      43.785 -20.594   4.873  1.00  0.00     0.000 C 
HETATM   32  C   UNL     1      44.186 -19.483   3.900  1.00  0.00     0.000 C 
HETATM   33  C   UNL     1      43.362 -19.514   2.614  1.00  0.00     0.000 C 
HETATM   34  C   UNL     1      43.615 -18.306   1.704  1.00  0.00     0.000 C 
HETATM   35  C   UNL     1      42.774 -17.058   2.021  1.00  0.00     0.000 C 
HETATM   36  C   UNL     1      43.237 -16.237   3.233  1.00  0.00     0.002 C 
HETATM   37  C   UNL     1      42.277 -16.339   4.434  1.00  0.00     0.025 C 
ENDBRANCH  23  26
ENDBRANCH   2  22
TORSDOF 4
ENDMDL
MODEL 10
REMARK VINA RESULT:      -9.1      4.019      7.325
REMARK  4 active torsions:
REMARK  status: ('A' for Active; 'I' for Inactive)
REMARK    1  A    between atoms: N_4  and  C_5 
REMARK    2  A    between atoms: C_15  and  N_16 
REMARK       I    between atoms: N_16  and  C_17 
REMARK    3  A    between atoms: C_17  and  C_18 
REMARK       I    between atoms: C_18  and  N_19 
REMARK    4  A    between atoms: N_19  and  C_20 
ROOT
HETATM    1  N   UNL     1      42.563 -11.054   4.752  1.00  0.00    -0.303 N 
HETATM    2  C   UNL     1      41.197 -10.840   4.732  1.00  0.00     0.315 C 
HETATM    3  O   UNL     1      40.441 -10.726   5.689  1.00  0.00    -0.262 OA
HETATM    4  H   UNL     1      43.070 -10.778   3.915  1.00  0.00     0.171 HD
ENDROOT
BRANCH   1   5
HETATM    5  C   UNL     1      43.233 -11.279   5.941  1.00  0.00     0.152 C 
HETATM    6  N   UNL     1      43.440 -12.513   6.554  1.00  0.00    -0.045 N 
HETATM    7  N   UNL     1      43.923 -12.350   7.833  1.00  0.00    -0.156 NA
HETATM    8  C   UNL     1      44.245 -11.054   7.900  1.00  0.00     0.055 C 
HETATM    9  C   UNL     1      44.878 -10.500   9.122  1.00  0.00     0.072 C 
HETATM   10  C   UNL     1      43.880 -10.354   6.729  1.00  0.00     0.079 C 
BRANCH   6  11
HETATM   11  C   UNL     1      43.417 -13.817   6.007  1.00  0.00     0.732 A 
HETATM   12  N   UNL     1      43.216 -14.084   4.750  1.00  0.00    -0.067 NA
HETATM   13  C   UNL     1      43.279 -15.410   4.436  1.00  0.00     0.065 A 
HETATM   14  C   UNL     1      43.555 -16.404   5.281  1.00  0.00     0.036 A 
HETATM   15  C   UNL     1      43.066 -15.921   3.051  1.00  0.00     0.061 C 
HETATM   16  C   UNL     1      43.583 -17.736   4.638  1.00  0.00     0.047 C 
HETATM   17  C   UNL     1      43.812 -16.092   6.685  1.00  0.00     0.268 A 
HETATM   18  C   UNL     1      42.948 -17.436   3.274  1.00  0.00     0.011 C 
HETATM   19  O   UNL     1      44.106 -16.948   7.508  1.00  0.00    -0.267 OA
HETATM   20  N   UNL     1      43.704 -14.761   6.971  1.00  0.00    -0.152 N 
HETATM   21  H   UNL     1      43.899 -14.442   7.915  1.00  0.00     0.188 HD
ENDBRANCH   6  11
ENDBRANCH   1   5
BRANCH   2  22
HETATM   22  C   UNL     1      40.640 -10.649   3.306  1.00  0.00     0.310 C 
HETATM   23  N   UNL     1      40.214 -11.827   2.734  1.00  0.00    -0.348 N 
HETATM   24  H   UNL     1      40.418 -12.647   3.304  1.00  0.00     0.163 HD
HETATM   25  O   UNL     1      40.623  -9.535   2.808  1.00  0.00    -0.262 OA
BRANCH  23  26
HETATM   26  C   UNL     1      39.966 -12.016   1.304  1.00  0.00     0.084 C 
HETATM   27  C   UNL     1      40.328 -13.482   0.949  1.00  0.00     0.025 C 
HETATM   28  C   UNL     1      40.494 -13.738  -0.555  1.00  0.00     0.002 C 
HETATM   29  C   UNL     1      39.390 -14.634  -1.132  1.00  0.00     0.000 C 
HETATM   30  C   UNL     1      39.273 -14.534  -2.662  1.00  0.00     0.000 C 
HETATM   31  C   UNL     1      38.053 -13.715  -3.111  1.00  0.00     0.000 C 
HETATM   32  C   UNL     1      38.153 -12.231  -2.750  1.00  0.00     0.000 C 
HETATM   33  C   UNL     1      36.783 -11.603  -2.499  1.00  0.00     0.000 C 
HETATM   34  C   UNL     1      36.865 -10.170  -1.958  1.00  0.00     0.000 C 
HETATM   35  C   UNL     1      37.020 -10.052  -0.433  1.00  0.00     0.000 C 
HETATM   36  C   UNL     1      38.427 -10.333   0.115  1.00  0.00     0.002 C 
HETATM   37  C   UNL     1      38.514 -11.654   0.904  1.00  0.00     0.025 C 
ENDBRANCH  23  26
ENDBRANCH   2  22
TORSDOF 4
ENDMDL
