MODEL 1
REMARK VINA RESULT:      -8.6      0.000      0.000
REMARK  5 active torsions:
REMARK  status: ('A' for Active; 'I' for Inactive)
REMARK    1  A    between atoms: C_2  and  N_3 
REMARK       I    between atoms: N_3  and  C_4 
REMARK       I    between atoms: C_4  and  N_5 
REMARK    2  A    between atoms: N_5  and  C_6 
REMARK    3  A    between atoms: C_9  and  C_10 
REMARK    4  A    between atoms: C_10  and  N_11 
REMARK       I    between atoms: N_11  and  C_12 
REMARK    5  A    between atoms: C_12  and  C_13 
ROOT
HETATM    1  N   UNL     1      43.207 -15.041   2.216  1.00  0.00    -0.353 N 
HETATM    2  C   UNL     1      42.339 -16.114   2.262  1.00  0.00     0.254 C 
HETATM    3  O   UNL     1      41.148 -16.001   1.978  1.00  0.00    -0.268 OA
HETATM    4  H   UNL     1      44.130 -15.089   2.621  1.00  0.00     0.163 HD
ENDROOT
BRANCH   1   5
HETATM    5  C   UNL     1      42.668 -13.728   1.954  1.00  0.00     0.161 C 
BRANCH   5   6
HETATM    6  C   UNL     1      42.509 -12.900   3.198  1.00  0.00    -0.040 A 
HETATM    7  C   UNL     1      41.510 -13.209   4.129  1.00  0.00     0.011 A 
HETATM    8  C   UNL     1      41.450 -12.545   5.360  1.00  0.00     0.030 A 
HETATM    9  C   UNL     1      42.383 -11.557   5.678  1.00  0.00     0.036 A 
HETATM   10  C   UNL     1      43.323 -11.183   4.709  1.00  0.00     0.030 A 
HETATM   11  C   UNL     1      43.389 -11.849   3.481  1.00  0.00     0.011 A 
BRANCH   9  12
HETATM   12  N   UNL     1      42.481 -10.943   6.944  1.00  0.00    -0.309 N 
HETATM   13  C   UNL     1      43.443 -11.174   7.908  1.00  0.00     0.321 C 
HETATM   14  N   UNL     1      43.338 -10.242   8.923  1.00  0.00    -0.339 N 
HETATM   15  O   UNL     1      44.319 -12.027   7.875  1.00  0.00    -0.247 OA
HETATM   16  H   UNL     1      42.410  -9.893   9.108  1.00  0.00     0.164 HD
HETATM   17  H   UNL     1      41.950 -10.095   7.066  1.00  0.00     0.170 HD
BRANCH  14  18
HETATM   18  C   UNL     1      44.293 -10.135  10.022  1.00  0.00     0.078 C 
HETATM   19  C   UNL     1      43.682  -9.511  11.276  1.00  0.00     0.032 C 
HETATM   20  C   UNL     1      45.578  -9.425   9.608  1.00  0.00     0.032 C 
ENDBRANCH  14  18
ENDBRANCH   9  12
ENDBRANCH   5   6
ENDBRANCH   1   5
BRANCH   2  21
HETATM   21  C   UNL     1      42.867 -17.433   2.703  1.00  0.00     0.064 A 
HETATM   22  C   UNL     1      43.229 -17.614   4.030  1.00  0.00     0.077 A 
HETATM   23  C   UNL     1      43.743 -18.822   4.508  1.00  0.00     0.065 A 
HETATM   24  N   UNL     1      43.173 -16.728   5.111  1.00  0.00    -0.330 N 
HETATM   25  N   UNL     1      44.002 -18.678   5.870  1.00  0.00    -0.331 N 
HETATM   26  C   UNL     1      43.922 -19.913   3.697  1.00  0.00     0.074 A 
HETATM   27  C   UNL     1      43.643 -17.378   6.254  1.00  0.00     0.176 A 
HETATM   28  H   UNL     1      44.370 -19.378   6.497  1.00  0.00     0.168 HD
HETATM   29  S   UNL     1      43.756 -16.746   7.770  1.00  0.00    -0.041 SA
HETATM   30  C   UNL     1      43.554 -19.750   2.362  1.00  0.00     0.119 A 
HETATM   31  F   UNL     1      43.699 -20.783   1.521  1.00  0.00    -0.206 F 
HETATM   32  C   UNL     1      43.030 -18.540   1.859  1.00  0.00     0.061 A 
HETATM   33  H   UNL     1      42.818 -15.779   5.048  1.00  0.00     0.168 HD
ENDBRANCH   2  21
TORSDOF 5
ENDMDL
MODEL 2
REMARK VINA RESULT:      -8.4      4.395      6.015
REMARK  5 active torsions:
REMARK  status: ('A' for Active; 'I' for Inactive)
REMARK    1  A    between atoms: C_2  and  N_3 
REMARK       I    between atoms: N_3  and  C_4 
REMARK       I    between atoms: C_4  and  N_5 
REMARK    2  A    between atoms: N_5  and  C_6 
REMARK    3  A    between atoms: C_9  and  C_10 
REMARK    4  A    between atoms: C_10  and  N_11 
REMARK       I    between atoms: N_11  and  C_12 
REMARK    5  A    between atoms: C_12  and  C_13 
ROOT
HETATM    1  N   UNL     1      41.674 -14.585   0.662  1.00  0.00    -0.353 N 
HETATM    2  C   UNL     1      40.363 -14.989   0.495  1.00  0.00     0.254 C 
HETATM    3  O   UNL     1      39.864 -15.880   1.178  1.00  0.00    -0.268 OA
HETATM    4  H   UNL     1      42.135 -13.991  -0.010  1.00  0.00     0.163 HD
ENDROOT
BRANCH   1   5
HETATM    5  C   UNL     1      42.512 -15.324   1.576  1.00  0.00     0.161 C 
BRANCH   5   6
HETATM    6  C   UNL     1      42.786 -14.580   2.853  1.00  0.00    -0.040 A 
HETATM    7  C   UNL     1      42.925 -13.187   2.843  1.00  0.00     0.011 A 
HETATM    8  C   UNL     1      43.026 -12.471   4.042  1.00  0.00     0.030 A 
HETATM    9  C   UNL     1      42.994 -13.136   5.269  1.00  0.00     0.036 A 
HETATM   10  C   UNL     1      42.950 -14.536   5.274  1.00  0.00     0.030 A 
HETATM   11  C   UNL     1      42.844 -15.253   4.078  1.00  0.00     0.011 A 
BRANCH   9  12
HETATM   12  N   UNL     1      42.946 -12.483   6.519  1.00  0.00    -0.309 N 
HETATM   13  C   UNL     1      44.011 -11.948   7.218  1.00  0.00     0.321 C 
HETATM   14  N   UNL     1      43.554 -11.208   8.293  1.00  0.00    -0.339 N 
HETATM   15  O   UNL     1      45.195 -12.036   6.925  1.00  0.00    -0.247 OA
HETATM   16  H   UNL     1      42.692 -11.521   8.709  1.00  0.00     0.164 HD
HETATM   17  H   UNL     1      42.038 -12.168   6.819  1.00  0.00     0.170 HD
BRANCH  14  18
HETATM   18  C   UNL     1      44.425 -10.406   9.148  1.00  0.00     0.078 C 
HETATM   19  C   UNL     1      43.965 -10.388  10.605  1.00  0.00     0.032 C 
HETATM   20  C   UNL     1      44.635  -8.996   8.605  1.00  0.00     0.032 C 
ENDBRANCH  14  18
ENDBRANCH   9  12
ENDBRANCH   5   6
ENDBRANCH   1   5
BRANCH   2  21
HETATM   21  C   UNL     1      39.554 -14.339  -0.571  1.00  0.00     0.064 A 
HETATM   22  C   UNL     1      38.936 -13.124  -0.313  1.00  0.00     0.077 A 
HETATM   23  C   UNL     1      38.153 -12.466  -1.265  1.00  0.00     0.065 A 
HETATM   24  N   UNL     1      38.942 -12.333   0.840  1.00  0.00    -0.330 N 
HETATM   25  N   UNL     1      37.681 -11.282  -0.699  1.00  0.00    -0.331 N 
HETATM   26  C   UNL     1      37.944 -12.976  -2.521  1.00  0.00     0.074 A 
HETATM   27  C   UNL     1      38.174 -11.190   0.609  1.00  0.00     0.176 A 
HETATM   28  H   UNL     1      37.096 -10.588  -1.140  1.00  0.00     0.168 HD
HETATM   29  S   UNL     1      37.897  -9.959   1.668  1.00  0.00    -0.041 SA
HETATM   30  C   UNL     1      38.567 -14.192  -2.799  1.00  0.00     0.119 A 
HETATM   31  F   UNL     1      38.408 -14.738  -4.011  1.00  0.00    -0.206 F 
HETATM   32  C   UNL     1      39.365 -14.871  -1.854  1.00  0.00     0.061 A 
HETATM   33  H   UNL     1      39.454 -12.567   1.685  1.00  0.00     0.168 HD
ENDBRANCH   2  21
TORSDOF 5
ENDMDL
MODEL 3
REMARK VINA RESULT:      -8.3      5.790      9.689
REMARK  5 active torsions:
REMARK  status: ('A' for Active; 'I' for Inactive)
REMARK    1  A    between atoms: C_2  and  N_3 
REMARK       I    between atoms: N_3  and  C_4 
REMARK       I    between atoms: C_4  and  N_5 
REMARK    2  A    between atoms: N_5  and  C_6 
REMARK    3  A    between atoms: C_9  and  C_10 
REMARK    4  A    between atoms: C_10  and  N_11 
REMARK       I    between atoms: N_11  and  C_12 
REMARK    5  A    between atoms: C_12  and  C_13 
ROOT
HETATM    1  N   UNL     1      42.694 -10.081  10.511  1.00  0.00    -0.353 N 
HETATM    2  C   UNL     1      42.658  -9.728   9.176  1.00  0.00     0.254 C 
HETATM    3  O   UNL     1      41.751  -9.042   8.709  1.00  0.00    -0.268 OA
HETATM    4  H   UNL     1      43.327 -10.787  10.854  1.00  0.00     0.163 HD
ENDROOT
BRANCH   1   5
HETATM    5  C   UNL     1      41.567  -9.742  11.346  1.00  0.00     0.161 C 
BRANCH   5   6
HETATM    6  C   UNL     1      41.964  -9.033  12.610  1.00  0.00    -0.040 A 
HETATM    7  C   UNL     1      43.024  -8.117  12.602  1.00  0.00     0.011 A 
HETATM    8  C   UNL     1      43.303  -7.339  13.732  1.00  0.00     0.030 A 
HETATM    9  C   UNL     1      42.532  -7.466  14.888  1.00  0.00     0.036 A 
HETATM   10  C   UNL     1      41.534  -8.448  14.926  1.00  0.00     0.030 A 
HETATM   11  C   UNL     1      41.249  -9.223  13.797  1.00  0.00     0.011 A 
BRANCH   9  12
HETATM   12  N   UNL     1      42.654  -6.625  16.014  1.00  0.00    -0.309 N 
HETATM   13  C   UNL     1      41.810  -5.594  16.377  1.00  0.00     0.321 C 
HETATM   14  N   UNL     1      42.127  -5.137  17.642  1.00  0.00    -0.339 N 
HETATM   15  O   UNL     1      40.866  -5.162  15.730  1.00  0.00    -0.247 OA
HETATM   16  H   UNL     1      43.098  -5.205  17.905  1.00  0.00     0.164 HD
HETATM   17  H   UNL     1      43.269  -6.950  16.743  1.00  0.00     0.170 HD
BRANCH  14  18
HETATM   18  C   UNL     1      41.336  -4.144  18.363  1.00  0.00     0.078 C 
HETATM   19  C   UNL     1      42.151  -2.910  18.751  1.00  0.00     0.032 C 
HETATM   20  C   UNL     1      40.610  -4.740  19.565  1.00  0.00     0.032 C 
ENDBRANCH  14  18
ENDBRANCH   9  12
ENDBRANCH   5   6
ENDBRANCH   1   5
BRANCH   2  21
HETATM   21  C   UNL     1      43.736 -10.228   8.282  1.00  0.00     0.064 A 
HETATM   22  C   UNL     1      43.407 -11.034   7.202  1.00  0.00     0.077 A 
HETATM   23  C   UNL     1      44.371 -11.547   6.330  1.00  0.00     0.065 A 
HETATM   24  N   UNL     1      42.161 -11.485   6.756  1.00  0.00    -0.330 N 
HETATM   25  N   UNL     1      43.721 -12.309   5.359  1.00  0.00    -0.331 N 
HETATM   26  C   UNL     1      45.709 -11.287   6.483  1.00  0.00     0.074 A 
HETATM   27  C   UNL     1      42.344 -12.269   5.615  1.00  0.00     0.176 A 
HETATM   28  H   UNL     1      44.145 -12.801   4.587  1.00  0.00     0.168 HD
HETATM   29  S   UNL     1      41.169 -13.008   4.729  1.00  0.00    -0.041 SA
HETATM   30  C   UNL     1      46.054 -10.471   7.558  1.00  0.00     0.119 A 
HETATM   31  F   UNL     1      47.346 -10.174   7.756  1.00  0.00    -0.206 F 
HETATM   32  C   UNL     1      45.097  -9.939   8.448  1.00  0.00     0.061 A 
HETATM   33  H   UNL     1      41.280 -11.242   7.198  1.00  0.00     0.168 HD
ENDBRANCH   2  21
TORSDOF 5
ENDMDL
MODEL 4
REMARK VINA RESULT:      -8.1      3.451      8.531
REMARK  5 active torsions:
REMARK  status: ('A' for Active; 'I' for Inactive)
REMARK    1  A    between atoms: C_2  and  N_3 
REMARK       I    between atoms: N_3  and  C_4 
REMARK       I    between atoms: C_4  and  N_5 
REMARK    2  A    between atoms: N_5  and  C_6 
REMARK    3  A    between atoms: C_9  and  C_10 
REMARK    4  A    between atoms: C_10  and  N_11 
REMARK       I    between atoms: N_11  and  C_12 
REMARK    5  A    between atoms: C_12  and  C_13 
ROOT
HETATM    1  N   UNL     1      41.151 -11.336   6.795  1.00  0.00    -0.353 N 
HETATM    2  C   UNL     1      42.250 -10.629   6.345  1.00  0.00     0.254 C 
HETATM    3  O   UNL     1      42.294 -10.140   5.218  1.00  0.00    -0.268 OA
HETATM    4  H   UNL     1      41.186 -11.888   7.637  1.00  0.00     0.163 HD
ENDROOT
BRANCH   1   5
HETATM    5  C   UNL     1      40.082 -11.614   5.865  1.00  0.00     0.161 C 
BRANCH   5   6
HETATM    6  C   UNL     1      40.245 -12.933   5.163  1.00  0.00    -0.040 A 
HETATM    7  C   UNL     1      40.275 -12.990   3.764  1.00  0.00     0.011 A 
HETATM    8  C   UNL     1      40.579 -14.186   3.104  1.00  0.00     0.030 A 
HETATM    9  C   UNL     1      40.852 -15.346   3.831  1.00  0.00     0.036 A 
HETATM   10  C   UNL     1      40.729 -15.311   5.225  1.00  0.00     0.030 A 
HETATM   11  C   UNL     1      40.431 -14.116   5.887  1.00  0.00     0.011 A 
BRANCH   9  12
HETATM   12  N   UNL     1      41.304 -16.551   3.252  1.00  0.00    -0.309 N 
HETATM   13  C   UNL     1      42.597 -17.037   3.247  1.00  0.00     0.321 C 
HETATM   14  N   UNL     1      42.619 -18.336   2.776  1.00  0.00    -0.339 N 
HETATM   15  O   UNL     1      43.595 -16.459   3.654  1.00  0.00    -0.247 OA
HETATM   16  H   UNL     1      41.913 -18.570   2.094  1.00  0.00     0.164 HD
HETATM   17  H   UNL     1      40.592 -17.230   3.032  1.00  0.00     0.170 HD
BRANCH  14  18
HETATM   18  C   UNL     1      43.815 -19.173   2.773  1.00  0.00     0.078 C 
HETATM   19  C   UNL     1      43.725 -20.326   1.773  1.00  0.00     0.032 C 
HETATM   20  C   UNL     1      44.183 -19.665   4.169  1.00  0.00     0.032 C 
ENDBRANCH  14  18
ENDBRANCH   9  12
ENDBRANCH   5   6
ENDBRANCH   1   5
BRANCH   2  21
HETATM   21  C   UNL     1      43.422 -10.494   7.250  1.00  0.00     0.064 A 
HETATM   22  C   UNL     1      43.233 -10.048   8.550  1.00  0.00     0.077 A 
HETATM   23  C   UNL     1      44.291  -9.887   9.448  1.00  0.00     0.065 A 
HETATM   24  N   UNL     1      42.060  -9.686   9.220  1.00  0.00    -0.330 N 
HETATM   25  N   UNL     1      43.771  -9.429  10.658  1.00  0.00    -0.331 N 
HETATM   26  C   UNL     1      45.590 -10.164   9.106  1.00  0.00     0.074 A 
HETATM   27  C   UNL     1      42.381  -9.308  10.525  1.00  0.00     0.176 A 
HETATM   28  H   UNL     1      44.284  -9.228  11.503  1.00  0.00     0.168 HD
HETATM   29  S   UNL     1      41.332  -8.815  11.694  1.00  0.00    -0.041 SA
HETATM   30  C   UNL     1      45.796 -10.624   7.807  1.00  0.00     0.119 A 
HETATM   31  F   UNL     1      47.043 -10.918   7.414  1.00  0.00    -0.206 F 
HETATM   32  C   UNL     1      44.742 -10.796   6.884  1.00  0.00     0.061 A 
HETATM   33  H   UNL     1      41.134  -9.729   8.804  1.00  0.00     0.168 HD
ENDBRANCH   2  21
TORSDOF 5
ENDMDL
MODEL 5
REMARK VINA RESULT:      -8.1      4.508      6.068
REMARK  5 active torsions:
REMARK  status: ('A' for Active; 'I' for Inactive)
REMARK    1  A    between atoms: C_2  and  N_3 
REMARK       I    between atoms: N_3  and  C_4 
REMARK       I    between atoms: C_4  and  N_5 
REMARK    2  A    between atoms: N_5  and  C_6 
REMARK    3  A    between atoms: C_9  and  C_10 
REMARK    4  A    between atoms: C_10  and  N_11 
REMARK       I    between atoms: N_11  and  C_12 
REMARK    5  A    between atoms: C_12  and  C_13 
ROOT
HETATM    1  N   UNL     1      41.384 -15.048   0.890  1.00  0.00    -0.353 N 
HETATM    2  C   UNL     1      41.039 -15.831   1.975  1.00  0.00     0.254 C 
HETATM    3  O   UNL     1      39.897 -15.847   2.429  1.00  0.00    -0.268 OA
HETATM    4  H   UNL     1      42.347 -14.893   0.635  1.00  0.00     0.163 HD
ENDROOT
BRANCH   1   5
HETATM    5  C   UNL     1      40.404 -14.128   0.363  1.00  0.00     0.161 C 
BRANCH   5   6
HETATM    6  C   UNL     1      40.924 -12.724   0.240  1.00  0.00    -0.040 A 
HETATM    7  C   UNL     1      40.933 -12.081  -1.004  1.00  0.00     0.011 A 
HETATM    8  C   UNL     1      41.268 -10.725  -1.105  1.00  0.00     0.030 A 
HETATM    9  C   UNL     1      41.606  -9.993   0.034  1.00  0.00     0.036 A 
HETATM   10  C   UNL     1      41.689 -10.659   1.262  1.00  0.00     0.030 A 
HETATM   11  C   UNL     1      41.349 -12.012   1.367  1.00  0.00     0.011 A 
BRANCH   9  12
HETATM   12  N   UNL     1      41.818  -8.598   0.040  1.00  0.00    -0.309 N 
HETATM   13  C   UNL     1      42.716  -7.890  -0.735  1.00  0.00     0.321 C 
HETATM   14  N   UNL     1      42.492  -6.531  -0.608  1.00  0.00    -0.339 N 
HETATM   15  O   UNL     1      43.556  -8.358  -1.490  1.00  0.00    -0.247 OA
HETATM   16  H   UNL     1      42.136  -6.226   0.285  1.00  0.00     0.164 HD
HETATM   17  H   UNL     1      41.095  -8.043   0.470  1.00  0.00     0.170 HD
BRANCH  14  18
HETATM   18  C   UNL     1      43.187  -5.522  -1.401  1.00  0.00     0.078 C 
HETATM   19  C   UNL     1      44.366  -4.896  -0.657  1.00  0.00     0.032 C 
HETATM   20  C   UNL     1      42.238  -4.459  -1.948  1.00  0.00     0.032 C 
ENDBRANCH  14  18
ENDBRANCH   9  12
ENDBRANCH   5   6
ENDBRANCH   1   5
BRANCH   2  21
HETATM   21  C   UNL     1      42.100 -16.646   2.624  1.00  0.00     0.064 A 
HETATM   22  C   UNL     1      42.651 -16.220   3.824  1.00  0.00     0.077 A 
HETATM   23  C   UNL     1      43.658 -16.932   4.480  1.00  0.00     0.065 A 
HETATM   24  N   UNL     1      42.366 -15.091   4.599  1.00  0.00    -0.330 N 
HETATM   25  N   UNL     1      43.990 -16.244   5.647  1.00  0.00    -0.331 N 
HETATM   26  C   UNL     1      44.169 -18.104   3.983  1.00  0.00     0.074 A 
HETATM   27  C   UNL     1      43.184 -15.100   5.730  1.00  0.00     0.176 A 
HETATM   28  H   UNL     1      44.676 -16.511   6.336  1.00  0.00     0.168 HD
HETATM   29  S   UNL     1      43.203 -13.984   6.941  1.00  0.00    -0.041 SA
HETATM   30  C   UNL     1      43.618 -18.551   2.784  1.00  0.00     0.119 A 
HETATM   31  F   UNL     1      44.070 -19.694   2.251  1.00  0.00    -0.206 F 
HETATM   32  C   UNL     1      42.599 -17.850   2.106  1.00  0.00     0.061 A 
HETATM   33  H   UNL     1      41.654 -14.407   4.363  1.00  0.00     0.168 HD
ENDBRANCH   2  21
TORSDOF 5
ENDMDL
MODEL 6
REMARK VINA RESULT:      -8.0      4.840      7.624
REMARK  5 active torsions:
REMARK  status: ('A' for Active; 'I' for Inactive)
REMARK    1  A    between atoms: C_2  and  N_3 
REMARK       I    between atoms: N_3  and  C_4 
REMARK       I    between atoms: C_4  and  N_5 
REMARK    2  A    between atoms: N_5  and  C_6 
REMARK    3  A    between atoms: C_9  and  C_10 
REMARK    4  A    between atoms: C_10  and  N_11 
REMARK       I    between atoms: N_11  and  C_12 
REMARK    5  A    between atoms: C_12  and  C_13 
ROOT
HETATM    1  N   UNL     1      40.745 -15.834   1.376  1.00  0.00    -0.353 N 
HETATM    2  C   UNL     1      40.991 -16.029   2.722  1.00  0.00     0.254 C 
HETATM    3  O   UNL     1      40.353 -15.442   3.592  1.00  0.00    -0.268 OA
HETATM    4  H   UNL     1      41.380 -16.168   0.668  1.00  0.00     0.163 HD
ENDROOT
BRANCH   1   5
HETATM    5  C   UNL     1      39.800 -14.815   0.988  1.00  0.00     0.161 C 
BRANCH   5   6
HETATM    6  C   UNL     1      40.262 -14.005  -0.191  1.00  0.00    -0.040 A 
HETATM    7  C   UNL     1      39.935 -14.402  -1.493  1.00  0.00     0.011 A 
HETATM    8  C   UNL     1      40.225 -13.578  -2.586  1.00  0.00     0.030 A 
HETATM    9  C   UNL     1      40.852 -12.345  -2.396  1.00  0.00     0.036 A 
HETATM   10  C   UNL     1      41.263 -11.991  -1.105  1.00  0.00     0.030 A 
HETATM   11  C   UNL     1      40.969 -12.811  -0.011  1.00  0.00     0.011 A 
BRANCH   9  12
HETATM   12  N   UNL     1      41.052 -11.396  -3.421  1.00  0.00    -0.309 N 
HETATM   13  C   UNL     1      40.536 -10.116  -3.479  1.00  0.00     0.321 C 
HETATM   14  N   UNL     1      41.115  -9.413  -4.520  1.00  0.00    -0.339 N 
HETATM   15  O   UNL     1      39.734  -9.616  -2.703  1.00  0.00    -0.247 OA
HETATM   16  H   UNL     1      41.391  -9.959  -5.321  1.00  0.00     0.164 HD
HETATM   17  H   UNL     1      41.822 -11.575  -4.045  1.00  0.00     0.170 HD
BRANCH  14  18
HETATM   18  C   UNL     1      40.881  -7.992  -4.762  1.00  0.00     0.078 C 
HETATM   19  C   UNL     1      40.232  -7.726  -6.120  1.00  0.00     0.032 C 
HETATM   20  C   UNL     1      42.141  -7.154  -4.565  1.00  0.00     0.032 C 
ENDBRANCH  14  18
ENDBRANCH   9  12
ENDBRANCH   5   6
ENDBRANCH   1   5
BRANCH   2  21
HETATM   21  C   UNL     1      42.088 -16.954   3.113  1.00  0.00     0.064 A 
HETATM   22  C   UNL     1      42.641 -16.859   4.381  1.00  0.00     0.077 A 
HETATM   23  C   UNL     1      43.681 -17.688   4.809  1.00  0.00     0.065 A 
HETATM   24  N   UNL     1      42.329 -16.002   5.442  1.00  0.00    -0.330 N 
HETATM   25  N   UNL     1      44.005 -17.341   6.120  1.00  0.00    -0.331 N 
HETATM   26  C   UNL     1      44.224 -18.656   4.003  1.00  0.00     0.074 A 
HETATM   27  C   UNL     1      43.162 -16.296   6.523  1.00  0.00     0.176 A 
HETATM   28  H   UNL     1      44.710 -17.765   6.705  1.00  0.00     0.168 HD
HETATM   29  S   UNL     1      43.161 -15.562   7.997  1.00  0.00    -0.041 SA
HETATM   30  C   UNL     1      43.672 -18.771   2.729  1.00  0.00     0.119 A 
HETATM   31  F   UNL     1      44.155 -19.703   1.896  1.00  0.00    -0.206 F 
HETATM   32  C   UNL     1      42.620 -17.946   2.278  1.00  0.00     0.061 A 
HETATM   33  H   UNL     1      41.591 -15.306   5.409  1.00  0.00     0.168 HD
ENDBRANCH   2  21
TORSDOF 5
ENDMDL
MODEL 7
REMARK VINA RESULT:      -7.8     15.540     19.248
REMARK  5 active torsions:
REMARK  status: ('A' for Active; 'I' for Inactive)
REMARK    1  A    between atoms: C_2  and  N_3 
REMARK       I    between atoms: N_3  and  C_4 
REMARK       I    between atoms: C_4  and  N_5 
REMARK    2  A    between atoms: N_5  and  C_6 
REMARK    3  A    between atoms: C_9  and  C_10 
REMARK    4  A    between atoms: C_10  and  N_11 
REMARK       I    between atoms: N_11  and  C_12 
REMARK    5  A    between atoms: C_12  and  C_13 
ROOT
HETATM    1  N   UNL     1      45.847 -28.400   0.222  1.00  0.00    -0.353 N 
HETATM    2  C   UNL     1      47.208 -28.203   0.087  1.00  0.00     0.254 C 
HETATM    3  O   UNL     1      47.676 -27.454  -0.768  1.00  0.00    -0.268 OA
HETATM    4  H   UNL     1      45.474 -29.144   0.791  1.00  0.00     0.163 HD
ENDROOT
BRANCH   1   5
HETATM    5  C   UNL     1      44.964 -27.808  -0.754  1.00  0.00     0.161 C 
BRANCH   5   6
HETATM    6  C   UNL     1      44.851 -28.622  -2.013  1.00  0.00    -0.040 A 
HETATM    7  C   UNL     1      44.383 -29.941  -1.961  1.00  0.00     0.011 A 
HETATM    8  C   UNL     1      44.128 -30.654  -3.138  1.00  0.00     0.030 A 
HETATM    9  C   UNL     1      44.342 -30.064  -4.385  1.00  0.00     0.036 A 
HETATM   10  C   UNL     1      44.899 -28.781  -4.435  1.00  0.00     0.030 A 
HETATM   11  C   UNL     1      45.149 -28.063  -3.260  1.00  0.00     0.011 A 
BRANCH   9  12
HETATM   12  N   UNL     1      43.978 -30.659  -5.611  1.00  0.00    -0.309 N 
HETATM   13  C   UNL     1      44.811 -31.316  -6.496  1.00  0.00     0.321 C 
HETATM   14  N   UNL     1      44.068 -31.945  -7.477  1.00  0.00    -0.339 N 
HETATM   15  O   UNL     1      46.029 -31.410  -6.419  1.00  0.00    -0.247 OA
HETATM   16  H   UNL     1      43.201 -31.495  -7.729  1.00  0.00     0.164 HD
HETATM   17  H   UNL     1      42.994 -30.828  -5.746  1.00  0.00     0.170 HD
BRANCH  14  18
HETATM   18  C   UNL     1      44.646 -32.832  -8.482  1.00  0.00     0.078 C 
HETATM   19  C   UNL     1      44.008 -32.657  -9.860  1.00  0.00     0.032 C 
HETATM   20  C   UNL     1      44.640 -34.292  -8.040  1.00  0.00     0.032 C 
ENDBRANCH  14  18
ENDBRANCH   9  12
ENDBRANCH   5   6
ENDBRANCH   1   5
BRANCH   2  21
HETATM   21  C   UNL     1      48.123 -28.953   0.987  1.00  0.00     0.064 A 
HETATM   22  C   UNL     1      49.186 -29.661   0.444  1.00  0.00     0.077 A 
HETATM   23  C   UNL     1      50.076 -30.396   1.232  1.00  0.00     0.065 A 
HETATM   24  N   UNL     1      49.593 -29.801  -0.886  1.00  0.00    -0.330 N 
HETATM   25  N   UNL     1      51.020 -30.983   0.390  1.00  0.00    -0.331 N 
HETATM   26  C   UNL     1      49.961 -30.466   2.597  1.00  0.00     0.074 A 
HETATM   27  C   UNL     1      50.729 -30.611  -0.929  1.00  0.00     0.176 A 
HETATM   28  H   UNL     1      51.797 -31.567   0.662  1.00  0.00     0.168 HD
HETATM   29  S   UNL     1      51.576 -31.050  -2.272  1.00  0.00    -0.041 SA
HETATM   30  C   UNL     1      48.904 -29.751   3.158  1.00  0.00     0.119 A 
HETATM   31  F   UNL     1      48.743 -29.773   4.488  1.00  0.00    -0.206 F 
HETATM   32  C   UNL     1      47.996 -29.000   2.383  1.00  0.00     0.061 A 
HETATM   33  H   UNL     1      49.131 -29.350  -1.670  1.00  0.00     0.168 HD
ENDBRANCH   2  21
TORSDOF 5
ENDMDL
MODEL 8
REMARK VINA RESULT:      -7.7      1.948      2.181
REMARK  5 active torsions:
REMARK  status: ('A' for Active; 'I' for Inactive)
REMARK    1  A    between atoms: C_2  and  N_3 
REMARK       I    between atoms: N_3  and  C_4 
REMARK       I    between atoms: C_4  and  N_5 
REMARK    2  A    between atoms: N_5  and  C_6 
REMARK    3  A    between atoms: C_9  and  C_10 
REMARK    4  A    between atoms: C_10  and  N_11 
REMARK       I    between atoms: N_11  and  C_12 
REMARK    5  A    between atoms: C_12  and  C_13 
ROOT
HETATM    1  N   UNL     1      41.649 -15.434   1.365  1.00  0.00    -0.353 N 
HETATM    2  C   UNL     1      41.338 -16.181   2.484  1.00  0.00     0.254 C 
HETATM    3  O   UNL     1      40.264 -16.060   3.071  1.00  0.00    -0.268 OA
HETATM    4  H   UNL     1      42.587 -15.398   0.997  1.00  0.00     0.163 HD
ENDROOT
BRANCH   1   5
HETATM    5  C   UNL     1      40.738 -14.391   0.956  1.00  0.00     0.161 C 
BRANCH   5   6
HETATM    6  C   UNL     1      40.912 -13.120   1.739  1.00  0.00    -0.040 A 
HETATM    7  C   UNL     1      39.812 -12.521   2.364  1.00  0.00     0.011 A 
HETATM    8  C   UNL     1      39.986 -11.428   3.221  1.00  0.00     0.030 A 
HETATM    9  C   UNL     1      41.260 -10.912   3.462  1.00  0.00     0.036 A 
HETATM   10  C   UNL     1      42.347 -11.452   2.763  1.00  0.00     0.030 A 
HETATM   11  C   UNL     1      42.176 -12.548   1.911  1.00  0.00     0.011 A 
BRANCH   9  12
HETATM   12  N   UNL     1      41.538  -9.910   4.415  1.00  0.00    -0.309 N 
HETATM   13  C   UNL     1      41.475 -10.030   5.789  1.00  0.00     0.321 C 
HETATM   14  N   UNL     1      42.018  -8.911   6.393  1.00  0.00    -0.339 N 
HETATM   15  O   UNL     1      41.069 -10.996   6.420  1.00  0.00    -0.247 OA
HETATM   16  H   UNL     1      41.920  -8.045   5.886  1.00  0.00     0.164 HD
HETATM   17  H   UNL     1      42.054  -9.112   4.079  1.00  0.00     0.170 HD
BRANCH  14  18
HETATM   18  C   UNL     1      42.221  -8.790   7.834  1.00  0.00     0.078 C 
HETATM   19  C   UNL     1      41.532  -7.560   8.425  1.00  0.00     0.032 C 
HETATM   20  C   UNL     1      43.695  -8.851   8.220  1.00  0.00     0.032 C 
ENDBRANCH  14  18
ENDBRANCH   9  12
ENDBRANCH   5   6
ENDBRANCH   1   5
BRANCH   2  21
HETATM   21  C   UNL     1      42.355 -17.133   3.005  1.00  0.00     0.064 A 
HETATM   22  C   UNL     1      42.799 -17.010   4.313  1.00  0.00     0.077 A 
HETATM   23  C   UNL     1      43.761 -17.862   4.862  1.00  0.00     0.065 A 
HETATM   24  N   UNL     1      42.432 -16.100   5.311  1.00  0.00    -0.330 N 
HETATM   25  N   UNL     1      43.983 -17.477   6.183  1.00  0.00    -0.331 N 
HETATM   26  C   UNL     1      44.331 -18.881   4.142  1.00  0.00     0.074 A 
HETATM   27  C   UNL     1      43.154 -16.384   6.471  1.00  0.00     0.176 A 
HETATM   28  H   UNL     1      44.616 -17.905   6.843  1.00  0.00     0.168 HD
HETATM   29  S   UNL     1      43.055 -15.593   7.912  1.00  0.00    -0.041 SA
HETATM   30  C   UNL     1      43.888 -19.025   2.828  1.00  0.00     0.119 A 
HETATM   31  F   UNL     1      44.402 -20.007   2.076  1.00  0.00    -0.206 F 
HETATM   32  C   UNL     1      42.916 -18.177   2.256  1.00  0.00     0.061 A 
HETATM   33  H   UNL     1      41.730 -15.377   5.187  1.00  0.00     0.168 HD
ENDBRANCH   2  21
TORSDOF 5
ENDMDL
MODEL 9
REMARK VINA RESULT:      -7.7      3.628      5.792
REMARK  5 active torsions:
REMARK  status: ('A' for Active; 'I' for Inactive)
REMARK    1  A    between atoms: C_2  and  N_3 
REMARK       I    between atoms: N_3  and  C_4 
REMARK       I    between atoms: C_4  and  N_5 
REMARK    2  A    between atoms: N_5  and  C_6 
REMARK    3  A    between atoms: C_9  and  C_10 
REMARK    4  A    between atoms: C_10  and  N_11 
REMARK       I    between atoms: N_11  and  C_12 
REMARK    5  A    between atoms: C_12  and  C_13 
ROOT
HETATM    1  N   UNL     1      44.609 -12.390   6.802  1.00  0.00    -0.353 N 
HETATM    2  C   UNL     1      43.793 -12.575   5.702  1.00  0.00     0.254 C 
HETATM    3  O   UNL     1      43.671 -11.718   4.830  1.00  0.00    -0.268 OA
HETATM    4  H   UNL     1      44.570 -13.004   7.600  1.00  0.00     0.163 HD
ENDROOT
BRANCH   1   5
HETATM    5  C   UNL     1      45.230 -11.100   6.991  1.00  0.00     0.161 C 
BRANCH   5   6
HETATM    6  C   UNL     1      44.789 -10.417   8.255  1.00  0.00    -0.040 A 
HETATM    7  C   UNL     1      43.432 -10.155   8.480  1.00  0.00     0.011 A 
HETATM    8  C   UNL     1      42.996  -9.661   9.715  1.00  0.00     0.030 A 
HETATM    9  C   UNL     1      43.908  -9.417  10.742  1.00  0.00     0.036 A 
HETATM   10  C   UNL     1      45.273  -9.589  10.485  1.00  0.00     0.030 A 
HETATM   11  C   UNL     1      45.712 -10.087   9.253  1.00  0.00     0.011 A 
BRANCH   9  12
HETATM   12  N   UNL     1      43.539  -9.057  12.056  1.00  0.00    -0.309 N 
HETATM   13  C   UNL     1      42.931  -7.883  12.456  1.00  0.00     0.321 C 
HETATM   14  N   UNL     1      42.534  -7.975  13.777  1.00  0.00    -0.339 N 
HETATM   15  O   UNL     1      42.699  -6.906  11.758  1.00  0.00    -0.247 OA
HETATM   16  H   UNL     1      43.104  -8.559  14.369  1.00  0.00     0.164 HD
HETATM   17  H   UNL     1      43.496  -9.809  12.725  1.00  0.00     0.170 HD
BRANCH  14  18
HETATM   18  C   UNL     1      41.745  -6.951  14.455  1.00  0.00     0.078 C 
HETATM   19  C   UNL     1      42.193  -6.721  15.899  1.00  0.00     0.032 C 
HETATM   20  C   UNL     1      40.245  -7.219  14.367  1.00  0.00     0.032 C 
ENDBRANCH  14  18
ENDBRANCH   9  12
ENDBRANCH   5   6
ENDBRANCH   1   5
BRANCH   2  21
HETATM   21  C   UNL     1      43.020 -13.841   5.602  1.00  0.00     0.064 A 
HETATM   22  C   UNL     1      41.852 -13.870   4.854  1.00  0.00     0.077 A 
HETATM   23  C   UNL     1      41.071 -15.023   4.728  1.00  0.00     0.065 A 
HETATM   24  N   UNL     1      41.227 -12.862   4.113  1.00  0.00    -0.330 N 
HETATM   25  N   UNL     1      39.977 -14.722   3.918  1.00  0.00    -0.331 N 
HETATM   26  C   UNL     1      41.409 -16.206   5.334  1.00  0.00     0.074 A 
HETATM   27  C   UNL     1      40.071 -13.380   3.526  1.00  0.00     0.176 A 
HETATM   28  H   UNL     1      39.239 -15.350   3.636  1.00  0.00     0.168 HD
HETATM   29  S   UNL     1      39.014 -12.575   2.553  1.00  0.00    -0.041 SA
HETATM   30  C   UNL     1      42.586 -16.196   6.081  1.00  0.00     0.119 A 
HETATM   31  F   UNL     1      42.974 -17.323   6.692  1.00  0.00    -0.206 F 
HETATM   32  C   UNL     1      43.390 -15.044   6.219  1.00  0.00     0.061 A 
HETATM   33  H   UNL     1      41.596 -11.921   4.015  1.00  0.00     0.168 HD
ENDBRANCH   2  21
TORSDOF 5
ENDMDL
MODEL 10
REMARK VINA RESULT:      -7.7      3.138      5.132
REMARK  5 active torsions:
REMARK  status: ('A' for Active; 'I' for Inactive)
REMARK    1  A    between atoms: C_2  and  N_3 
REMARK       I    between atoms: N_3  and  C_4 
REMARK       I    between atoms: C_4  and  N_5 
REMARK    2  A    between atoms: N_5  and  C_6 
REMARK    3  A    between atoms: C_9  and  C_10 
REMARK    4  A    between atoms: C_10  and  N_11 
REMARK       I    between atoms: N_11  and  C_12 
REMARK    5  A    between atoms: C_12  and  C_13 
ROOT
HETATM    1  N   UNL     1      43.912 -12.261   5.719  1.00  0.00    -0.353 N 
HETATM    2  C   UNL     1      43.385 -13.522   5.923  1.00  0.00     0.254 C 
HETATM    3  O   UNL     1      43.744 -14.234   6.858  1.00  0.00    -0.268 OA
HETATM    4  H   UNL     1      43.759 -11.756   4.859  1.00  0.00     0.163 HD
ENDROOT
BRANCH   1   5
HETATM    5  C   UNL     1      45.007 -11.827   6.554  1.00  0.00     0.161 C 
BRANCH   5   6
HETATM    6  C   UNL     1      44.585 -10.843   7.609  1.00  0.00    -0.040 A 
HETATM    7  C   UNL     1      43.367 -10.163   7.494  1.00  0.00     0.011 A 
HETATM    8  C   UNL     1      42.893  -9.364   8.541  1.00  0.00     0.030 A 
HETATM    9  C   UNL     1      43.632  -9.228   9.718  1.00  0.00     0.036 A 
HETATM   10  C   UNL     1      44.893  -9.832   9.794  1.00  0.00     0.030 A 
HETATM   11  C   UNL     1      45.365 -10.635   8.751  1.00  0.00     0.011 A 
BRANCH   9  12
HETATM   12  N   UNL     1      43.164  -8.561  10.870  1.00  0.00    -0.309 N 
HETATM   13  C   UNL     1      42.029  -8.859  11.599  1.00  0.00     0.321 C 
HETATM   14  N   UNL     1      42.009  -8.130  12.774  1.00  0.00    -0.339 N 
HETATM   15  O   UNL     1      41.175  -9.687  11.315  1.00  0.00    -0.247 OA
HETATM   16  H   UNL     1      42.449  -7.224  12.738  1.00  0.00     0.164 HD
HETATM   17  H   UNL     1      43.831  -7.972  11.342  1.00  0.00     0.170 HD
BRANCH  14  18
HETATM   18  C   UNL     1      41.010  -8.317  13.822  1.00  0.00     0.078 C 
HETATM   19  C   UNL     1      39.846  -7.333  13.709  1.00  0.00     0.032 C 
HETATM   20  C   UNL     1      41.624  -8.306  15.219  1.00  0.00     0.032 C 
ENDBRANCH  14  18
ENDBRANCH   9  12
ENDBRANCH   5   6
ENDBRANCH   1   5
BRANCH   2  21
HETATM   21  C   UNL     1      42.380 -14.033   4.953  1.00  0.00     0.064 A 
HETATM   22  C   UNL     1      42.554 -15.289   4.389  1.00  0.00     0.077 A 
HETATM   23  C   UNL     1      41.654 -15.825   3.463  1.00  0.00     0.065 A 
HETATM   24  N   UNL     1      43.563 -16.237   4.586  1.00  0.00    -0.330 N 
HETATM   25  N   UNL     1      42.110 -17.090   3.094  1.00  0.00    -0.331 N 
HETATM   26  C   UNL     1      40.536 -15.145   3.051  1.00  0.00     0.074 A 
HETATM   27  C   UNL     1      43.295 -17.355   3.794  1.00  0.00     0.176 A 
HETATM   28  H   UNL     1      41.672 -17.729   2.448  1.00  0.00     0.168 HD
HETATM   29  S   UNL     1      44.193 -18.732   3.698  1.00  0.00    -0.041 SA
HETATM   30  C   UNL     1      40.343 -13.886   3.617  1.00  0.00     0.119 A 
HETATM   31  F   UNL     1      39.264 -13.176   3.259  1.00  0.00    -0.206 F 
HETATM   32  C   UNL     1      41.236 -13.328   4.555  1.00  0.00     0.061 A 
HETATM   33  H   UNL     1      44.339 -16.112   5.228  1.00  0.00     0.168 HD
ENDBRANCH   2  21
TORSDOF 5
ENDMDL
