MODEL 1
REMARK VINA RESULT:      -8.9      0.000      0.000
REMARK  8 active torsions:
REMARK  status: ('A' for Active; 'I' for Inactive)
REMARK    1  A    between atoms: C_2  and  O_3 
REMARK    2  A    between atoms: O_3  and  C_4 
REMARK    3  A    between atoms: C_4  and  C_5 
REMARK    4  A    between atoms: C_6  and  C_7 
REMARK    5  A    between atoms: C_7  and  O_8 
REMARK    6  A    between atoms: O_8  and  C_9 
REMARK    7  A    between atoms: C_9  and  C_10 
REMARK       I    between atoms: C_10  and  N_11 
REMARK       I    between atoms: N_11  and  C_12 
REMARK       I    between atoms: C_12  and  N_13 
REMARK    8  A    between atoms: N_13  and  C_14 
ROOT
HETATM    1  C   UNL     1      41.952 -12.261   5.456  1.00  0.00     0.282 C 
ENDROOT
BRANCH   1   2
HETATM    2  O   UNL     1      40.833 -12.960   4.899  1.00  0.00    -0.307 OA
BRANCH   2   3
HETATM    3  C   UNL     1      40.583 -14.158   5.510  1.00  0.00     0.318 C 
HETATM    4  O   UNL     1      39.874 -14.286   6.504  1.00  0.00    -0.257 OA
BRANCH   3   5
HETATM    5  C   UNL     1      41.248 -15.230   4.812  1.00  0.00     0.160 A 
HETATM    6  C   UNL     1      41.037 -15.833   3.576  1.00  0.00     0.018 A 
HETATM    7  C   UNL     1      42.070 -16.814   3.435  1.00  0.00     0.009 A 
HETATM    8  C   UNL     1      42.832 -16.739   4.591  1.00  0.00     0.087 A 
HETATM    9  C   UNL     1      42.457 -17.739   2.445  1.00  0.00     0.015 A 
HETATM   10  O   UNL     1      42.343 -15.784   5.418  1.00  0.00    -0.303 OA
HETATM   11  C   UNL     1      43.948 -17.530   4.852  1.00  0.00     0.038 A 
HETATM   12  C   UNL     1      44.310 -18.445   3.860  1.00  0.00     0.003 A 
HETATM   13  C   UNL     1      43.579 -18.548   2.673  1.00  0.00     0.001 A 
BRANCH   6  14
HETATM   14  C   UNL     1      40.008 -15.469   2.566  1.00  0.00     0.210 C 
BRANCH  14  15
HETATM   15  O   UNL     1      40.341 -14.214   1.971  1.00  0.00    -0.387 OA
BRANCH  15  16
HETATM   16  C   UNL     1      40.934 -14.369   0.686  1.00  0.00     0.163 C 
HETATM   17  C   UNL     1      39.845 -14.749  -0.299  1.00  0.00     0.033 C 
ENDBRANCH  15  16
ENDBRANCH  14  15
ENDBRANCH   6  14
ENDBRANCH   3   5
ENDBRANCH   2   3
ENDBRANCH   1   2
BRANCH   1  18
HETATM   18  C   UNL     1      41.548 -11.169   6.459  1.00  0.00     0.249 C 
HETATM   19  N   UNL     1      42.463 -10.691   7.367  1.00  0.00    -0.277 N 
HETATM   20  C   UNL     1      43.790 -11.003   7.492  1.00  0.00     0.327 C 
HETATM   21  H   UNL     1      42.029 -10.178   8.115  1.00  0.00     0.173 HD
HETATM   22  N   UNL     1      44.361 -10.810   8.718  1.00  0.00    -0.308 N 
HETATM   23  O   UNL     1      44.473 -11.486   6.593  1.00  0.00    -0.247 OA
HETATM   24  H   UNL     1      45.134 -11.449   8.862  1.00  0.00     0.170 HD
HETATM   25  O   UNL     1      40.389 -10.740   6.502  1.00  0.00    -0.271 OA
BRANCH  22  26
HETATM   26  C   UNL     1      43.921 -10.086   9.838  1.00  0.00     0.042 A 
HETATM   27  C   UNL     1      43.860  -8.683   9.905  1.00  0.00    -0.035 A 
HETATM   28  C   UNL     1      44.335  -7.762   8.812  1.00  0.00     0.050 C 
HETATM   29  C   UNL     1      43.410  -8.082  11.098  1.00  0.00     0.015 A 
HETATM   30  C   UNL     1      43.073  -8.844  12.222  1.00  0.00    -0.061 A 
HETATM   31  C   UNL     1      42.663  -8.183  13.505  1.00  0.00     0.048 C 
HETATM   32  C   UNL     1      43.205 -10.231  12.160  1.00  0.00     0.009 A 
HETATM   33  C   UNL     1      43.633 -10.844  10.981  1.00  0.00     0.030 A 
ENDBRANCH  22  26
ENDBRANCH   1  18
TORSDOF 8
ENDMDL
MODEL 2
REMARK VINA RESULT:      -8.6      1.917      9.517
REMARK  8 active torsions:
REMARK  status: ('A' for Active; 'I' for Inactive)
REMARK    1  A    between atoms: C_2  and  O_3 
REMARK    2  A    between atoms: O_3  and  C_4 
REMARK    3  A    between atoms: C_4  and  C_5 
REMARK    4  A    between atoms: C_6  and  C_7 
REMARK    5  A    between atoms: C_7  and  O_8 
REMARK    6  A    between atoms: O_8  and  C_9 
REMARK    7  A    between atoms: C_9  and  C_10 
REMARK       I    between atoms: C_10  and  N_11 
REMARK       I    between atoms: N_11  and  C_12 
REMARK       I    between atoms: C_12  and  N_13 
REMARK    8  A    between atoms: N_13  and  C_14 
ROOT
HETATM    1  C   UNL     1      43.214 -10.894   6.189  1.00  0.00     0.282 C 
ENDROOT
BRANCH   1   2
HETATM    2  O   UNL     1      43.614 -11.456   7.445  1.00  0.00    -0.307 OA
BRANCH   2   3
HETATM    3  C   UNL     1      44.657 -10.790   8.030  1.00  0.00     0.318 C 
HETATM    4  O   UNL     1      45.789 -10.742   7.560  1.00  0.00    -0.257 OA
BRANCH   3   5
HETATM    5  C   UNL     1      44.227 -10.148   9.247  1.00  0.00     0.160 A 
HETATM    6  C   UNL     1      44.106  -8.815   9.626  1.00  0.00     0.018 A 
HETATM    7  C   UNL     1      43.577  -8.830  10.956  1.00  0.00     0.009 A 
HETATM    8  C   UNL     1      43.418 -10.166  11.292  1.00  0.00     0.087 A 
HETATM    9  C   UNL     1      43.195  -7.858  11.902  1.00  0.00     0.015 A 
HETATM   10  O   UNL     1      43.803 -10.960  10.264  1.00  0.00    -0.303 OA
HETATM   11  C   UNL     1      42.920 -10.618  12.511  1.00  0.00     0.038 A 
HETATM   12  C   UNL     1      42.554  -9.638  13.438  1.00  0.00     0.003 A 
HETATM   13  C   UNL     1      42.685  -8.279  13.139  1.00  0.00     0.001 A 
BRANCH   6  14
HETATM   14  C   UNL     1      44.377  -7.618   8.786  1.00  0.00     0.210 C 
BRANCH  14  15
HETATM   15  O   UNL     1      43.331  -7.455   7.827  1.00  0.00    -0.387 OA
BRANCH  15  16
HETATM   16  C   UNL     1      42.346  -6.521   8.258  1.00  0.00     0.163 C 
HETATM   17  C   UNL     1      41.726  -5.884   7.029  1.00  0.00     0.033 C 
ENDBRANCH  15  16
ENDBRANCH  14  15
ENDBRANCH   6  14
ENDBRANCH   3   5
ENDBRANCH   2   3
ENDBRANCH   1   2
BRANCH   1  18
HETATM   18  C   UNL     1      43.553 -11.791   4.989  1.00  0.00     0.249 C 
HETATM   19  N   UNL     1      42.793 -12.907   4.724  1.00  0.00    -0.277 N 
HETATM   20  C   UNL     1      41.665 -13.347   5.362  1.00  0.00     0.327 C 
HETATM   21  H   UNL     1      43.248 -13.538   4.086  1.00  0.00     0.173 HD
HETATM   22  N   UNL     1      41.378 -14.680   5.270  1.00  0.00    -0.308 N 
HETATM   23  O   UNL     1      40.933 -12.632   6.041  1.00  0.00    -0.247 OA
HETATM   24  H   UNL     1      40.857 -14.994   6.080  1.00  0.00     0.170 HD
HETATM   25  O   UNL     1      44.535 -11.559   4.275  1.00  0.00    -0.271 OA
BRANCH  22  26
HETATM   26  C   UNL     1      41.874 -15.674   4.411  1.00  0.00     0.042 A 
HETATM   27  C   UNL     1      41.318 -15.992   3.159  1.00  0.00    -0.035 A 
HETATM   28  C   UNL     1      40.067 -15.365   2.604  1.00  0.00     0.050 C 
HETATM   29  C   UNL     1      41.908 -17.024   2.401  1.00  0.00     0.015 A 
HETATM   30  C   UNL     1      42.993 -17.763   2.885  1.00  0.00    -0.061 A 
HETATM   31  C   UNL     1      43.563 -18.903   2.093  1.00  0.00     0.048 C 
HETATM   32  C   UNL     1      43.487 -17.479   4.159  1.00  0.00     0.009 A 
HETATM   33  C   UNL     1      42.926 -16.449   4.916  1.00  0.00     0.030 A 
ENDBRANCH  22  26
ENDBRANCH   1  18
TORSDOF 8
ENDMDL
MODEL 3
REMARK VINA RESULT:      -8.5      2.062      3.534
REMARK  8 active torsions:
REMARK  status: ('A' for Active; 'I' for Inactive)
REMARK    1  A    between atoms: C_2  and  O_3 
REMARK    2  A    between atoms: O_3  and  C_4 
REMARK    3  A    between atoms: C_4  and  C_5 
REMARK    4  A    between atoms: C_6  and  C_7 
REMARK    5  A    between atoms: C_7  and  O_8 
REMARK    6  A    between atoms: O_8  and  C_9 
REMARK    7  A    between atoms: C_9  and  C_10 
REMARK       I    between atoms: C_10  and  N_11 
REMARK       I    between atoms: N_11  and  C_12 
REMARK       I    between atoms: C_12  and  N_13 
REMARK    8  A    between atoms: N_13  and  C_14 
ROOT
HETATM    1  C   UNL     1      39.492 -12.749   3.578  1.00  0.00     0.282 C 
ENDROOT
BRANCH   1   2
HETATM    2  O   UNL     1      39.957 -14.083   3.338  1.00  0.00    -0.307 OA
BRANCH   2   3
HETATM    3  C   UNL     1      41.079 -14.134   2.556  1.00  0.00     0.318 C 
HETATM    4  O   UNL     1      41.316 -13.347   1.645  1.00  0.00    -0.257 OA
BRANCH   3   5
HETATM    5  C   UNL     1      41.935 -15.217   2.970  1.00  0.00     0.160 A 
HETATM    6  C   UNL     1      42.798 -15.387   4.048  1.00  0.00     0.018 A 
HETATM    7  C   UNL     1      43.326 -16.712   3.925  1.00  0.00     0.009 A 
HETATM    8  C   UNL     1      42.751 -17.251   2.784  1.00  0.00     0.087 A 
HETATM    9  C   UNL     1      44.209 -17.521   4.668  1.00  0.00     0.015 A 
HETATM   10  O   UNL     1      41.909 -16.357   2.211  1.00  0.00    -0.303 OA
HETATM   11  C   UNL     1      42.998 -18.536   2.308  1.00  0.00     0.038 A 
HETATM   12  C   UNL     1      43.883 -19.319   3.056  1.00  0.00     0.003 A 
HETATM   13  C   UNL     1      44.477 -18.822   4.218  1.00  0.00     0.001 A 
BRANCH   6  14
HETATM   14  C   UNL     1      43.047 -14.427   5.155  1.00  0.00     0.210 C 
BRANCH  14  15
HETATM   15  O   UNL     1      41.882 -14.322   5.974  1.00  0.00    -0.387 OA
BRANCH  15  16
HETATM   16  C   UNL     1      41.660 -15.498   6.746  1.00  0.00     0.163 C 
HETATM   17  C   UNL     1      40.228 -15.948   6.527  1.00  0.00     0.033 C 
ENDBRANCH  15  16
ENDBRANCH  14  15
ENDBRANCH   6  14
ENDBRANCH   3   5
ENDBRANCH   2   3
ENDBRANCH   1   2
BRANCH   1  18
HETATM   18  C   UNL     1      39.665 -12.301   5.038  1.00  0.00     0.249 C 
HETATM   19  N   UNL     1      40.693 -11.457   5.385  1.00  0.00    -0.277 N 
HETATM   20  C   UNL     1      41.618 -10.855   4.575  1.00  0.00     0.327 C 
HETATM   21  H   UNL     1      40.854 -11.435   6.377  1.00  0.00     0.173 HD
HETATM   22  N   UNL     1      42.801 -10.484   5.150  1.00  0.00    -0.308 N 
HETATM   23  O   UNL     1      41.467 -10.674   3.369  1.00  0.00    -0.247 OA
HETATM   24  H   UNL     1      43.551 -10.488   4.468  1.00  0.00     0.170 HD
HETATM   25  O   UNL     1      38.920 -12.727   5.928  1.00  0.00    -0.271 OA
BRANCH  22  26
HETATM   26  C   UNL     1      43.170 -10.351   6.498  1.00  0.00     0.042 A 
HETATM   27  C   UNL     1      42.725  -9.323   7.347  1.00  0.00    -0.035 A 
HETATM   28  C   UNL     1      41.853  -8.178   6.904  1.00  0.00     0.050 C 
HETATM   29  C   UNL     1      43.185  -9.299   8.679  1.00  0.00     0.015 A 
HETATM   30  C   UNL     1      44.105 -10.240   9.155  1.00  0.00    -0.061 A 
HETATM   31  C   UNL     1      44.636 -10.157  10.556  1.00  0.00     0.048 C 
HETATM   32  C   UNL     1      44.589 -11.212   8.279  1.00  0.00     0.009 A 
HETATM   33  C   UNL     1      44.131 -11.260   6.961  1.00  0.00     0.030 A 
ENDBRANCH  22  26
ENDBRANCH   1  18
TORSDOF 8
ENDMDL
MODEL 4
REMARK VINA RESULT:      -8.5      4.982      8.774
REMARK  8 active torsions:
REMARK  status: ('A' for Active; 'I' for Inactive)
REMARK    1  A    between atoms: C_2  and  O_3 
REMARK    2  A    between atoms: O_3  and  C_4 
REMARK    3  A    between atoms: C_4  and  C_5 
REMARK    4  A    between atoms: C_6  and  C_7 
REMARK    5  A    between atoms: C_7  and  O_8 
REMARK    6  A    between atoms: O_8  and  C_9 
REMARK    7  A    between atoms: C_9  and  C_10 
REMARK       I    between atoms: C_10  and  N_11 
REMARK       I    between atoms: N_11  and  C_12 
REMARK       I    between atoms: C_12  and  N_13 
REMARK    8  A    between atoms: N_13  and  C_14 
ROOT
HETATM    1  C   UNL     1      40.634 -14.511   3.141  1.00  0.00     0.282 C 
ENDROOT
BRANCH   1   2
HETATM    2  O   UNL     1      42.000 -14.462   2.712  1.00  0.00    -0.307 OA
BRANCH   2   3
HETATM    3  C   UNL     1      42.895 -14.690   3.722  1.00  0.00     0.318 C 
HETATM    4  O   UNL     1      43.333 -13.813   4.460  1.00  0.00    -0.257 OA
BRANCH   3   5
HETATM    5  C   UNL     1      43.221 -16.092   3.801  1.00  0.00     0.160 A 
HETATM    6  C   UNL     1      43.709 -16.897   4.825  1.00  0.00     0.018 A 
HETATM    7  C   UNL     1      43.777 -18.222   4.287  1.00  0.00     0.009 A 
HETATM    8  C   UNL     1      43.328 -18.128   2.978  1.00  0.00     0.087 A 
HETATM    9  C   UNL     1      44.146 -19.492   4.772  1.00  0.00     0.015 A 
HETATM   10  O   UNL     1      42.988 -16.850   2.685  1.00  0.00    -0.303 OA
HETATM   11  C   UNL     1      43.232 -19.204   2.100  1.00  0.00     0.038 A 
HETATM   12  C   UNL     1      43.610 -20.454   2.599  1.00  0.00     0.003 A 
HETATM   13  C   UNL     1      44.056 -20.598   3.915  1.00  0.00     0.001 A 
BRANCH   6  14
HETATM   14  C   UNL     1      44.009 -16.485   6.222  1.00  0.00     0.210 C 
BRANCH  14  15
HETATM   15  O   UNL     1      42.881 -16.754   7.056  1.00  0.00    -0.387 OA
BRANCH  15  16
HETATM   16  C   UNL     1      42.080 -15.597   7.267  1.00  0.00     0.163 C 
HETATM   17  C   UNL     1      40.730 -15.827   6.614  1.00  0.00     0.033 C 
ENDBRANCH  15  16
ENDBRANCH  14  15
ENDBRANCH   6  14
ENDBRANCH   3   5
ENDBRANCH   2   3
ENDBRANCH   1   2
BRANCH   1  18
HETATM   18  C   UNL     1      39.760 -13.419   2.506  1.00  0.00     0.249 C 
HETATM   19  N   UNL     1      39.404 -13.502   1.180  1.00  0.00    -0.277 N 
HETATM   20  C   UNL     1      39.667 -14.502   0.283  1.00  0.00     0.327 C 
HETATM   21  H   UNL     1      39.055 -12.630   0.821  1.00  0.00     0.173 HD
HETATM   22  N   UNL     1      39.666 -14.166  -1.041  1.00  0.00    -0.308 N 
HETATM   23  O   UNL     1      39.947 -15.656   0.598  1.00  0.00    -0.247 OA
HETATM   24  H   UNL     1      40.281 -14.774  -1.570  1.00  0.00     0.170 HD
HETATM   25  O   UNL     1      39.404 -12.430   3.155  1.00  0.00    -0.271 OA
BRANCH  22  26
HETATM   26  C   UNL     1      39.175 -13.030  -1.705  1.00  0.00     0.042 A 
HETATM   27  C   UNL     1      39.952 -11.911  -2.047  1.00  0.00    -0.035 A 
HETATM   28  C   UNL     1      41.402 -11.742  -1.676  1.00  0.00     0.050 C 
HETATM   29  C   UNL     1      39.329 -10.829  -2.702  1.00  0.00     0.015 A 
HETATM   30  C   UNL     1      37.956 -10.827  -2.973  1.00  0.00    -0.061 A 
HETATM   31  C   UNL     1      37.298  -9.638  -3.608  1.00  0.00     0.048 C 
HETATM   32  C   UNL     1      37.187 -11.918  -2.564  1.00  0.00     0.009 A 
HETATM   33  C   UNL     1      37.791 -13.004  -1.929  1.00  0.00     0.030 A 
ENDBRANCH  22  26
ENDBRANCH   1  18
TORSDOF 8
ENDMDL
MODEL 5
REMARK VINA RESULT:      -8.4      2.128      9.055
REMARK  8 active torsions:
REMARK  status: ('A' for Active; 'I' for Inactive)
REMARK    1  A    between atoms: C_2  and  O_3 
REMARK    2  A    between atoms: O_3  and  C_4 
REMARK    3  A    between atoms: C_4  and  C_5 
REMARK    4  A    between atoms: C_6  and  C_7 
REMARK    5  A    between atoms: C_7  and  O_8 
REMARK    6  A    between atoms: O_8  and  C_9 
REMARK    7  A    between atoms: C_9  and  C_10 
REMARK       I    between atoms: C_10  and  N_11 
REMARK       I    between atoms: N_11  and  C_12 
REMARK       I    between atoms: C_12  and  N_13 
REMARK    8  A    between atoms: N_13  and  C_14 
ROOT
HETATM    1  C   UNL     1      41.222 -10.369   4.924  1.00  0.00     0.282 C 
ENDROOT
BRANCH   1   2
HETATM    2  O   UNL     1      41.512 -10.468   6.323  1.00  0.00    -0.307 OA
BRANCH   2   3
HETATM    3  C   UNL     1      41.782  -9.261   6.908  1.00  0.00     0.318 C 
HETATM    4  O   UNL     1      41.798  -8.194   6.302  1.00  0.00    -0.257 OA
BRANCH   3   5
HETATM    5  C   UNL     1      42.018  -9.425   8.321  1.00  0.00     0.160 A 
HETATM    6  C   UNL     1      43.142  -9.775   9.062  1.00  0.00     0.018 A 
HETATM    7  C   UNL     1      42.743  -9.718  10.435  1.00  0.00     0.009 A 
HETATM    8  C   UNL     1      41.408  -9.342  10.432  1.00  0.00     0.087 A 
HETATM    9  C   UNL     1      43.372  -9.921  11.679  1.00  0.00     0.015 A 
HETATM   10  O   UNL     1      40.971  -9.159   9.163  1.00  0.00    -0.303 OA
HETATM   11  C   UNL     1      40.637  -9.165  11.578  1.00  0.00     0.038 A 
HETATM   12  C   UNL     1      41.278  -9.379  12.801  1.00  0.00     0.003 A 
HETATM   13  C   UNL     1      42.624  -9.748  12.854  1.00  0.00     0.001 A 
BRANCH   6  14
HETATM   14  C   UNL     1      44.506 -10.056   8.540  1.00  0.00     0.210 C 
BRANCH  14  15
HETATM   15  O   UNL     1      44.669 -11.462   8.353  1.00  0.00    -0.387 OA
BRANCH  15  16
HETATM   16  C   UNL     1      44.737 -11.818   6.976  1.00  0.00     0.163 C 
HETATM   17  C   UNL     1      43.911 -13.073   6.767  1.00  0.00     0.033 C 
ENDBRANCH  15  16
ENDBRANCH  14  15
ENDBRANCH   6  14
ENDBRANCH   3   5
ENDBRANCH   2   3
ENDBRANCH   1   2
BRANCH   1  18
HETATM   18  C   UNL     1      42.025 -11.360   4.067  1.00  0.00     0.249 C 
HETATM   19  N   UNL     1      41.557 -12.638   3.867  1.00  0.00    -0.277 N 
HETATM   20  C   UNL     1      40.377 -13.194   4.283  1.00  0.00     0.327 C 
HETATM   21  H   UNL     1      42.267 -13.256   3.512  1.00  0.00     0.173 HD
HETATM   22  N   UNL     1      40.341 -14.553   4.411  1.00  0.00    -0.308 N 
HETATM   23  O   UNL     1      39.379 -12.546   4.589  1.00  0.00    -0.247 OA
HETATM   24  H   UNL     1      39.666 -14.833   5.113  1.00  0.00     0.170 HD
HETATM   25  O   UNL     1      43.120 -11.047   3.588  1.00  0.00    -0.271 OA
BRANCH  22  26
HETATM   26  C   UNL     1      41.210 -15.549   3.935  1.00  0.00     0.042 A 
HETATM   27  C   UNL     1      41.129 -16.132   2.659  1.00  0.00    -0.035 A 
HETATM   28  C   UNL     1      40.050 -15.826   1.655  1.00  0.00     0.050 C 
HETATM   29  C   UNL     1      42.059 -17.133   2.313  1.00  0.00     0.015 A 
HETATM   30  C   UNL     1      43.021 -17.589   3.222  1.00  0.00    -0.061 A 
HETATM   31  C   UNL     1      43.957 -18.704   2.860  1.00  0.00     0.048 C 
HETATM   32  C   UNL     1      43.041 -17.047   4.508  1.00  0.00     0.009 A 
HETATM   33  C   UNL     1      42.139 -16.043   4.862  1.00  0.00     0.030 A 
ENDBRANCH  22  26
ENDBRANCH   1  18
TORSDOF 8
ENDMDL
MODEL 6
REMARK VINA RESULT:      -8.2      2.011      3.474
REMARK  8 active torsions:
REMARK  status: ('A' for Active; 'I' for Inactive)
REMARK    1  A    between atoms: C_2  and  O_3 
REMARK    2  A    between atoms: O_3  and  C_4 
REMARK    3  A    between atoms: C_4  and  C_5 
REMARK    4  A    between atoms: C_6  and  C_7 
REMARK    5  A    between atoms: C_7  and  O_8 
REMARK    6  A    between atoms: O_8  and  C_9 
REMARK    7  A    between atoms: C_9  and  C_10 
REMARK       I    between atoms: C_10  and  N_11 
REMARK       I    between atoms: N_11  and  C_12 
REMARK       I    between atoms: C_12  and  N_13 
REMARK    8  A    between atoms: N_13  and  C_14 
ROOT
HETATM    1  C   UNL     1      40.606 -12.177   4.424  1.00  0.00     0.282 C 
ENDROOT
BRANCH   1   2
HETATM    2  O   UNL     1      40.982 -13.455   3.898  1.00  0.00    -0.307 OA
BRANCH   2   3
HETATM    3  C   UNL     1      42.318 -13.554   3.616  1.00  0.00     0.318 C 
HETATM    4  O   UNL     1      43.001 -12.624   3.199  1.00  0.00    -0.257 OA
BRANCH   3   5
HETATM    5  C   UNL     1      42.797 -14.884   3.899  1.00  0.00     0.160 A 
HETATM    6  C   UNL     1      43.189 -15.523   5.071  1.00  0.00     0.018 A 
HETATM    7  C   UNL     1      43.517 -16.865   4.697  1.00  0.00     0.009 A 
HETATM    8  C   UNL     1      43.304 -16.946   3.329  1.00  0.00     0.087 A 
HETATM    9  C   UNL     1      43.948 -18.025   5.371  1.00  0.00     0.015 A 
HETATM   10  O   UNL     1      42.865 -15.758   2.848  1.00  0.00    -0.303 OA
HETATM   11  C   UNL     1      43.502 -18.095   2.568  1.00  0.00     0.038 A 
HETATM   12  C   UNL     1      43.937 -19.232   3.255  1.00  0.00     0.003 A 
HETATM   13  C   UNL     1      44.154 -19.201   4.634  1.00  0.00     0.001 A 
BRANCH   6  14
HETATM   14  C   UNL     1      43.179 -14.956   6.446  1.00  0.00     0.210 C 
BRANCH  14  15
HETATM   15  O   UNL     1      44.255 -14.029   6.593  1.00  0.00    -0.387 OA
BRANCH  15  16
HETATM   16  C   UNL     1      43.803 -12.739   6.991  1.00  0.00     0.163 C 
HETATM   17  C   UNL     1      44.623 -11.699   6.252  1.00  0.00     0.033 C 
ENDBRANCH  15  16
ENDBRANCH  14  15
ENDBRANCH   6  14
ENDBRANCH   3   5
ENDBRANCH   2   3
ENDBRANCH   1   2
BRANCH   1  18
HETATM   18  C   UNL     1      40.310 -12.205   5.931  1.00  0.00     0.249 C 
HETATM   19  N   UNL     1      40.645 -11.130   6.721  1.00  0.00    -0.277 N 
HETATM   20  C   UNL     1      41.178  -9.926   6.350  1.00  0.00     0.327 C 
HETATM   21  H   UNL     1      40.636 -11.356   7.702  1.00  0.00     0.173 HD
HETATM   22  N   UNL     1      41.872  -9.232   7.301  1.00  0.00    -0.308 N 
HETATM   23  O   UNL     1      41.111  -9.462   5.214  1.00  0.00    -0.247 OA
HETATM   24  H   UNL     1      42.580  -8.644   6.875  1.00  0.00     0.170 HD
HETATM   25  O   UNL     1      39.817 -13.204   6.466  1.00  0.00    -0.271 OA
BRANCH  22  26
HETATM   26  C   UNL     1      41.927  -9.381   8.696  1.00  0.00     0.042 A 
HETATM   27  C   UNL     1      40.888  -9.028   9.575  1.00  0.00    -0.035 A 
HETATM   28  C   UNL     1      39.606  -8.367   9.147  1.00  0.00     0.050 C 
HETATM   29  C   UNL     1      41.080  -9.219  10.958  1.00  0.00     0.015 A 
HETATM   30  C   UNL     1      42.289  -9.701  11.473  1.00  0.00    -0.061 A 
HETATM   31  C   UNL     1      42.498  -9.831  12.953  1.00  0.00     0.048 C 
HETATM   32  C   UNL     1      43.332  -9.981  10.590  1.00  0.00     0.009 A 
HETATM   33  C   UNL     1      43.154  -9.814   9.216  1.00  0.00     0.030 A 
ENDBRANCH  22  26
ENDBRANCH   1  18
TORSDOF 8
ENDMDL
MODEL 7
REMARK VINA RESULT:      -8.0      2.681      9.603
REMARK  8 active torsions:
REMARK  status: ('A' for Active; 'I' for Inactive)
REMARK    1  A    between atoms: C_2  and  O_3 
REMARK    2  A    between atoms: O_3  and  C_4 
REMARK    3  A    between atoms: C_4  and  C_5 
REMARK    4  A    between atoms: C_6  and  C_7 
REMARK    5  A    between atoms: C_7  and  O_8 
REMARK    6  A    between atoms: O_8  and  C_9 
REMARK    7  A    between atoms: C_9  and  C_10 
REMARK       I    between atoms: C_10  and  N_11 
REMARK       I    between atoms: N_11  and  C_12 
REMARK       I    between atoms: C_12  and  N_13 
REMARK    8  A    between atoms: N_13  and  C_14 
ROOT
HETATM    1  C   UNL     1      41.278 -10.694   6.329  1.00  0.00     0.282 C 
ENDROOT
BRANCH   1   2
HETATM    2  O   UNL     1      42.156 -10.426   7.429  1.00  0.00    -0.307 OA
BRANCH   2   3
HETATM    3  C   UNL     1      42.066  -9.142   7.895  1.00  0.00     0.318 C 
HETATM    4  O   UNL     1      42.239  -8.146   7.199  1.00  0.00    -0.257 OA
BRANCH   3   5
HETATM    5  C   UNL     1      41.723  -9.136   9.295  1.00  0.00     0.160 A 
HETATM    6  C   UNL     1      40.518  -9.262   9.978  1.00  0.00     0.018 A 
HETATM    7  C   UNL     1      40.848  -9.222  11.371  1.00  0.00     0.009 A 
HETATM    8  C   UNL     1      42.225  -9.072  11.435  1.00  0.00     0.087 A 
HETATM    9  C   UNL     1      40.134  -9.320  12.581  1.00  0.00     0.015 A 
HETATM   10  O   UNL     1      42.754  -9.026  10.189  1.00  0.00    -0.303 OA
HETATM   11  C   UNL     1      42.954  -8.994  12.619  1.00  0.00     0.038 A 
HETATM   12  C   UNL     1      42.226  -9.085  13.808  1.00  0.00     0.003 A 
HETATM   13  C   UNL     1      40.839  -9.249  13.792  1.00  0.00     0.001 A 
BRANCH   6  14
HETATM   14  C   UNL     1      39.173  -9.490   9.386  1.00  0.00     0.210 C 
BRANCH  14  15
HETATM   15  O   UNL     1      38.332  -8.367   9.654  1.00  0.00    -0.387 OA
BRANCH  15  16
HETATM   16  C   UNL     1      38.736  -7.209   8.931  1.00  0.00     0.163 C 
HETATM   17  C   UNL     1      38.777  -6.037   9.893  1.00  0.00     0.033 C 
ENDBRANCH  15  16
ENDBRANCH  14  15
ENDBRANCH   6  14
ENDBRANCH   3   5
ENDBRANCH   2   3
ENDBRANCH   1   2
BRANCH   1  18
HETATM   18  C   UNL     1      41.943 -11.505   5.207  1.00  0.00     0.249 C 
HETATM   19  N   UNL     1      41.469 -12.756   4.885  1.00  0.00    -0.277 N 
HETATM   20  C   UNL     1      40.385 -13.419   5.393  1.00  0.00     0.327 C 
HETATM   21  H   UNL     1      42.120 -13.281   4.326  1.00  0.00     0.173 HD
HETATM   22  N   UNL     1      40.393 -14.782   5.307  1.00  0.00    -0.308 N 
HETATM   23  O   UNL     1      39.441 -12.869   5.956  1.00  0.00    -0.247 OA
HETATM   24  H   UNL     1      39.850 -15.195   6.056  1.00  0.00     0.170 HD
HETATM   25  O   UNL     1      42.937 -11.076   4.612  1.00  0.00    -0.271 OA
BRANCH  22  26
HETATM   26  C   UNL     1      41.187 -15.655   4.545  1.00  0.00     0.042 A 
HETATM   27  C   UNL     1      40.947 -15.977   3.198  1.00  0.00    -0.035 A 
HETATM   28  C   UNL     1      39.759 -15.492   2.410  1.00  0.00     0.050 C 
HETATM   29  C   UNL     1      41.817 -16.879   2.553  1.00  0.00     0.015 A 
HETATM   30  C   UNL     1      42.874 -17.493   3.234  1.00  0.00    -0.061 A 
HETATM   31  C   UNL     1      43.747 -18.504   2.549  1.00  0.00     0.048 C 
HETATM   32  C   UNL     1      43.056 -17.214   4.589  1.00  0.00     0.009 A 
HETATM   33  C   UNL     1      42.214 -16.310   5.238  1.00  0.00     0.030 A 
ENDBRANCH  22  26
ENDBRANCH   1  18
TORSDOF 8
ENDMDL
MODEL 8
REMARK VINA RESULT:      -7.9      1.077      3.204
REMARK  8 active torsions:
REMARK  status: ('A' for Active; 'I' for Inactive)
REMARK    1  A    between atoms: C_2  and  O_3 
REMARK    2  A    between atoms: O_3  and  C_4 
REMARK    3  A    between atoms: C_4  and  C_5 
REMARK    4  A    between atoms: C_6  and  C_7 
REMARK    5  A    between atoms: C_7  and  O_8 
REMARK    6  A    between atoms: O_8  and  C_9 
REMARK    7  A    between atoms: C_9  and  C_10 
REMARK       I    between atoms: C_10  and  N_11 
REMARK       I    between atoms: N_11  and  C_12 
REMARK       I    between atoms: C_12  and  N_13 
REMARK    8  A    between atoms: N_13  and  C_14 
ROOT
HETATM    1  C   UNL     1      41.910 -11.510   5.519  1.00  0.00     0.282 C 
ENDROOT
BRANCH   1   2
HETATM    2  O   UNL     1      41.551 -12.851   5.872  1.00  0.00    -0.307 OA
BRANCH   2   3
HETATM    3  C   UNL     1      40.278 -13.188   5.498  1.00  0.00     0.318 C 
HETATM    4  O   UNL     1      39.310 -13.154   6.252  1.00  0.00    -0.257 OA
BRANCH   3   5
HETATM    5  C   UNL     1      40.242 -13.562   4.106  1.00  0.00     0.160 A 
HETATM    6  C   UNL     1      40.565 -14.733   3.429  1.00  0.00     0.018 A 
HETATM    7  C   UNL     1      40.266 -14.487   2.051  1.00  0.00     0.009 A 
HETATM    8  C   UNL     1      39.787 -13.187   1.988  1.00  0.00     0.087 A 
HETATM    9  C   UNL     1      40.327 -15.230   0.855  1.00  0.00     0.015 A 
HETATM   10  O   UNL     1      39.766 -12.631   3.223  1.00  0.00    -0.303 OA
HETATM   11  C   UNL     1      39.375 -12.555   0.817  1.00  0.00     0.038 A 
HETATM   12  C   UNL     1      39.450 -13.307  -0.358  1.00  0.00     0.003 A 
HETATM   13  C   UNL     1      39.915 -14.624  -0.341  1.00  0.00     0.001 A 
BRANCH   6  14
HETATM   14  C   UNL     1      41.034 -16.012   4.025  1.00  0.00     0.210 C 
BRANCH  14  15
HETATM   15  O   UNL     1      42.458 -16.088   3.946  1.00  0.00    -0.387 OA
BRANCH  15  16
HETATM   16  C   UNL     1      42.909 -17.398   3.618  1.00  0.00     0.163 C 
HETATM   17  C   UNL     1      43.310 -17.411   2.155  1.00  0.00     0.033 C 
ENDBRANCH  15  16
ENDBRANCH  14  15
ENDBRANCH   6  14
ENDBRANCH   3   5
ENDBRANCH   2   3
ENDBRANCH   1   2
BRANCH   1  18
HETATM   18  C   UNL     1      41.533 -10.479   6.593  1.00  0.00     0.249 C 
HETATM   19  N   UNL     1      42.421 -10.173   7.598  1.00  0.00    -0.277 N 
HETATM   20  C   UNL     1      43.702 -10.620   7.776  1.00  0.00     0.327 C 
HETATM   21  H   UNL     1      41.983  -9.689   8.364  1.00  0.00     0.173 HD
HETATM   22  N   UNL     1      44.200 -10.592   9.048  1.00  0.00    -0.308 N 
HETATM   23  O   UNL     1      44.402 -11.083   6.879  1.00  0.00    -0.247 OA
HETATM   24  H   UNL     1      44.901 -11.313   9.178  1.00  0.00     0.170 HD
HETATM   25  O   UNL     1      40.418  -9.947   6.605  1.00  0.00    -0.271 OA
BRANCH  22  26
HETATM   26  C   UNL     1      43.748  -9.932  10.202  1.00  0.00     0.042 A 
HETATM   27  C   UNL     1      43.654  -8.536  10.335  1.00  0.00    -0.035 A 
HETATM   28  C   UNL     1      44.103  -7.554   9.286  1.00  0.00     0.050 C 
HETATM   29  C   UNL     1      43.195  -8.003  11.557  1.00  0.00     0.015 A 
HETATM   30  C   UNL     1      42.881  -8.824  12.645  1.00  0.00    -0.061 A 
HETATM   31  C   UNL     1      42.460  -8.235  13.959  1.00  0.00     0.048 C 
HETATM   32  C   UNL     1      43.045 -10.204  12.517  1.00  0.00     0.009 A 
HETATM   33  C   UNL     1      43.483 -10.750  11.310  1.00  0.00     0.030 A 
ENDBRANCH  22  26
ENDBRANCH   1  18
TORSDOF 8
ENDMDL
MODEL 9
REMARK VINA RESULT:      -7.7      2.595     10.241
REMARK  8 active torsions:
REMARK  status: ('A' for Active; 'I' for Inactive)
REMARK    1  A    between atoms: C_2  and  O_3 
REMARK    2  A    between atoms: O_3  and  C_4 
REMARK    3  A    between atoms: C_4  and  C_5 
REMARK    4  A    between atoms: C_6  and  C_7 
REMARK    5  A    between atoms: C_7  and  O_8 
REMARK    6  A    between atoms: O_8  and  C_9 
REMARK    7  A    between atoms: C_9  and  C_10 
REMARK       I    between atoms: C_10  and  N_11 
REMARK       I    between atoms: N_11  and  C_12 
REMARK       I    between atoms: C_12  and  N_13 
REMARK    8  A    between atoms: N_13  and  C_14 
ROOT
HETATM    1  C   UNL     1      43.721 -10.432   7.076  1.00  0.00     0.282 C 
ENDROOT
BRANCH   1   2
HETATM    2  O   UNL     1      44.501 -10.152   8.245  1.00  0.00    -0.307 OA
BRANCH   2   3
HETATM    3  C   UNL     1      44.834  -8.831   8.371  1.00  0.00     0.318 C 
HETATM    4  O   UNL     1      45.939  -8.373   8.094  1.00  0.00    -0.257 OA
BRANCH   3   5
HETATM    5  C   UNL     1      43.708  -8.069   8.849  1.00  0.00     0.160 A 
HETATM    6  C   UNL     1      42.914  -8.161   9.988  1.00  0.00     0.018 A 
HETATM    7  C   UNL     1      41.981  -7.078   9.906  1.00  0.00     0.009 A 
HETATM    8  C   UNL     1      42.271  -6.409   8.726  1.00  0.00     0.087 A 
HETATM    9  C   UNL     1      40.940  -6.578  10.713  1.00  0.00     0.015 A 
HETATM   10  O   UNL     1      43.312  -6.999   8.092  1.00  0.00    -0.303 OA
HETATM   11  C   UNL     1      41.591  -5.282   8.272  1.00  0.00     0.038 A 
HETATM   12  C   UNL     1      40.557  -4.807   9.084  1.00  0.00     0.003 A 
HETATM   13  C   UNL     1      40.237  -5.441  10.287  1.00  0.00     0.001 A 
BRANCH   6  14
HETATM   14  C   UNL     1      43.065  -9.126  11.109  1.00  0.00     0.210 C 
BRANCH  14  15
HETATM   15  O   UNL     1      43.718  -8.489  12.208  1.00  0.00    -0.387 OA
BRANCH  15  16
HETATM   16  C   UNL     1      42.873  -8.383  13.348  1.00  0.00     0.163 C 
HETATM   17  C   UNL     1      43.103  -7.026  13.986  1.00  0.00     0.033 C 
ENDBRANCH  15  16
ENDBRANCH  14  15
ENDBRANCH   6  14
ENDBRANCH   3   5
ENDBRANCH   2   3
ENDBRANCH   1   2
BRANCH   1  18
HETATM   18  C   UNL     1      44.381 -11.452   6.137  1.00  0.00     0.249 C 
HETATM   19  N   UNL     1      43.605 -12.328   5.413  1.00  0.00    -0.277 N 
HETATM   20  C   UNL     1      42.241 -12.404   5.338  1.00  0.00     0.327 C 
HETATM   21  H   UNL     1      44.139 -13.094   5.038  1.00  0.00     0.173 HD
HETATM   22  N   UNL     1      41.703 -13.609   4.982  1.00  0.00    -0.308 N 
HETATM   23  O   UNL     1      41.482 -11.478   5.613  1.00  0.00    -0.247 OA
HETATM   24  H   UNL     1      40.776 -13.722   5.376  1.00  0.00     0.170 HD
HETATM   25  O   UNL     1      45.611 -11.539   6.052  1.00  0.00    -0.271 OA
BRANCH  22  26
HETATM   26  C   UNL     1      42.289 -14.747   4.404  1.00  0.00     0.042 A 
HETATM   27  C   UNL     1      42.656 -14.852   3.051  1.00  0.00    -0.035 A 
HETATM   28  C   UNL     1      42.396 -13.788   2.018  1.00  0.00     0.050 C 
HETATM   29  C   UNL     1      43.224 -16.060   2.597  1.00  0.00     0.015 A 
HETATM   30  C   UNL     1      43.384 -17.161   3.446  1.00  0.00    -0.061 A 
HETATM   31  C   UNL     1      43.927 -18.460   2.928  1.00  0.00     0.048 C 
HETATM   32  C   UNL     1      42.951 -17.060   4.769  1.00  0.00     0.009 A 
HETATM   33  C   UNL     1      42.402 -15.867   5.239  1.00  0.00     0.030 A 
ENDBRANCH  22  26
ENDBRANCH   1  18
TORSDOF 8
ENDMDL
MODEL 10
REMARK VINA RESULT:      -7.6      2.043      2.824
REMARK  8 active torsions:
REMARK  status: ('A' for Active; 'I' for Inactive)
REMARK    1  A    between atoms: C_2  and  O_3 
REMARK    2  A    between atoms: O_3  and  C_4 
REMARK    3  A    between atoms: C_4  and  C_5 
REMARK    4  A    between atoms: C_6  and  C_7 
REMARK    5  A    between atoms: C_7  and  O_8 
REMARK    6  A    between atoms: O_8  and  C_9 
REMARK    7  A    between atoms: C_9  and  C_10 
REMARK       I    between atoms: C_10  and  N_11 
REMARK       I    between atoms: N_11  and  C_12 
REMARK       I    between atoms: C_12  and  N_13 
REMARK    8  A    between atoms: N_13  and  C_14 
ROOT
HETATM    1  C   UNL     1      39.626 -10.999   6.439  1.00  0.00     0.282 C 
ENDROOT
BRANCH   1   2
HETATM    2  O   UNL     1      39.635 -12.431   6.406  1.00  0.00    -0.307 OA
BRANCH   2   3
HETATM    3  C   UNL     1      39.850 -12.943   5.155  1.00  0.00     0.318 C 
HETATM    4  O   UNL     1      39.278 -12.547   4.144  1.00  0.00    -0.257 OA
BRANCH   3   5
HETATM    5  C   UNL     1      40.848 -13.983   5.199  1.00  0.00     0.160 A 
HETATM    6  C   UNL     1      41.725 -14.499   4.250  1.00  0.00     0.018 A 
HETATM    7  C   UNL     1      42.500 -15.493   4.929  1.00  0.00     0.009 A 
HETATM    8  C   UNL     1      42.039 -15.513   6.237  1.00  0.00     0.087 A 
HETATM    9  C   UNL     1      43.555 -16.360   4.584  1.00  0.00     0.015 A 
HETATM   10  O   UNL     1      41.050 -14.601   6.404  1.00  0.00    -0.303 OA
HETATM   11  C   UNL     1      42.538 -16.345   7.235  1.00  0.00     0.038 A 
HETATM   12  C   UNL     1      43.579 -17.203   6.870  1.00  0.00     0.003 A 
HETATM   13  C   UNL     1      44.084 -17.210   5.568  1.00  0.00     0.001 A 
BRANCH   6  14
HETATM   14  C   UNL     1      41.891 -14.045   2.844  1.00  0.00     0.210 C 
BRANCH  14  15
HETATM   15  O   UNL     1      42.999 -13.148   2.755  1.00  0.00    -0.387 OA
BRANCH  15  16
HETATM   16  C   UNL     1      42.586 -11.786   2.701  1.00  0.00     0.163 C 
HETATM   17  C   UNL     1      43.086 -11.088   3.951  1.00  0.00     0.033 C 
ENDBRANCH  15  16
ENDBRANCH  14  15
ENDBRANCH   6  14
ENDBRANCH   3   5
ENDBRANCH   2   3
ENDBRANCH   1   2
BRANCH   1  18
HETATM   18  C   UNL     1      39.568 -10.427   7.864  1.00  0.00     0.249 C 
HETATM   19  N   UNL     1      40.546  -9.566   8.303  1.00  0.00    -0.277 N 
HETATM   20  C   UNL     1      41.606  -9.047   7.610  1.00  0.00     0.327 C 
HETATM   21  H   UNL     1      40.542  -9.459   9.304  1.00  0.00     0.173 HD
HETATM   22  N   UNL     1      42.687  -8.640   8.339  1.00  0.00    -0.308 N 
HETATM   23  O   UNL     1      41.659  -8.972   6.385  1.00  0.00    -0.247 OA
HETATM   24  H   UNL     1      43.539  -8.711   7.794  1.00  0.00     0.170 HD
HETATM   25  O   UNL     1      38.677 -10.765   8.651  1.00  0.00    -0.271 OA
BRANCH  22  26
HETATM   26  C   UNL     1      42.834  -8.393   9.714  1.00  0.00     0.042 A 
HETATM   27  C   UNL     1      43.416  -9.289  10.626  1.00  0.00    -0.035 A 
HETATM   28  C   UNL     1      43.890 -10.673  10.268  1.00  0.00     0.050 C 
HETATM   29  C   UNL     1      43.489  -8.920  11.984  1.00  0.00     0.015 A 
HETATM   30  C   UNL     1      42.954  -7.712  12.447  1.00  0.00    -0.061 A 
HETATM   31  C   UNL     1      42.979  -7.368  13.907  1.00  0.00     0.048 C 
HETATM   32  C   UNL     1      42.318  -6.865  11.538  1.00  0.00     0.009 A 
HETATM   33  C   UNL     1      42.252  -7.208  10.187  1.00  0.00     0.030 A 
ENDBRANCH  22  26
ENDBRANCH   1  18
TORSDOF 8
ENDMDL
