MODEL 1
REMARK VINA RESULT:      -7.4      0.000      0.000
REMARK  10 active torsions:
REMARK  status: ('A' for Active; 'I' for Inactive)
REMARK    1  A    between atoms: C_2  and  N_3 
REMARK    2  A    between atoms: N_7  and  C_8 
REMARK    3  A    between atoms: C_8  and  C_9 
REMARK    4  A    between atoms: C_9  and  N_10 
REMARK    5  A    between atoms: N_10  and  C_11 
REMARK    6  A    between atoms: C_13  and  C_14 
REMARK    7  A    between atoms: C_14  and  N_15 
REMARK    8  A    between atoms: C_23  and  C_24 
REMARK    9  A    between atoms: C_24  and  O_25 
REMARK   10  A    between atoms: O_25  and  C_26 
ROOT
HETATM    1  C   UNL     1      40.390 -14.174   3.622  1.00  0.00     0.139 A 
HETATM    2  N   UNL     1      40.002 -13.412   2.567  1.00  0.00    -0.214 NA
HETATM    3  C   UNL     1      40.563 -13.608   1.362  1.00  0.00     0.155 A 
HETATM    4  N   UNL     1      41.542 -14.474   1.074  1.00  0.00    -0.224 NA
HETATM    5  C   UNL     1      41.917 -15.210   2.131  1.00  0.00     0.115 A 
HETATM    6  C   UNL     1      41.392 -15.158   3.411  1.00  0.00     0.053 A 
HETATM    7  S   UNL     1      43.157 -16.345   1.954  1.00  0.00    -0.063 SA
HETATM    8  C   UNL     1      43.040 -16.851   3.583  1.00  0.00     0.089 A 
HETATM    9  C   UNL     1      42.015 -16.179   4.253  1.00  0.00    -0.022 A 
HETATM   10  C   UNL     1      41.609 -16.477   5.668  1.00  0.00     0.051 C 
ENDROOT
BRANCH   1  11
HETATM   11  N   UNL     1      39.785 -13.972   4.857  1.00  0.00    -0.372 N 
HETATM   12  H   UNL     1      39.472 -14.840   5.279  1.00  0.00     0.161 HD
BRANCH  11  13
HETATM   13  C   UNL     1      40.373 -13.042   5.811  1.00  0.00     0.145 C 
BRANCH  13  14
HETATM   14  C   UNL     1      40.016 -11.552   5.555  1.00  0.00     0.092 C 
HETATM   15  C   UNL     1      39.062 -11.016   6.639  1.00  0.00     0.033 C 
BRANCH  14  16
HETATM   16  N   UNL     1      41.169 -10.636   5.365  1.00  0.00    -0.404 N 
HETATM   17  C   UNL     1      42.155 -11.052   4.362  1.00  0.00     0.145 C 
HETATM   18  C   UNL     1      43.405 -11.787   4.895  1.00  0.00     0.254 C 
HETATM   19  N   UNL     1      44.035 -11.030   6.049  1.00  0.00    -0.068 N 
HETATM   20  H   UNL     1      44.343 -10.118   5.684  1.00  0.00     0.280 HD
HETATM   21  C   UNL     1      43.005 -10.732   7.133  1.00  0.00     0.254 C 
HETATM   22  C   UNL     1      41.779 -10.011   6.543  1.00  0.00     0.145 C 
BRANCH  19  23
HETATM   23  C   UNL     1      45.246 -11.719   6.644  1.00  0.00     0.230 C 
HETATM   24  C   UNL     1      46.107 -10.749   7.428  1.00  0.00     0.034 C 
ENDBRANCH  19  23
ENDBRANCH  14  16
ENDBRANCH  13  14
ENDBRANCH  11  13
ENDBRANCH   1  11
BRANCH   3  25
HETATM   25  C   UNL     1      40.039 -12.812   0.178  1.00  0.00     0.314 C 
BRANCH  25  26
HETATM   26  N   UNL     1      40.720 -13.163  -1.145  1.00  0.00    -0.072 N 
HETATM   27  H   UNL     1      41.553 -13.709  -0.863  1.00  0.00     0.279 HD
HETATM   28  C   UNL     1      39.890 -14.084  -1.994  1.00  0.00     0.269 C 
HETATM   29  C   UNL     1      41.189 -11.959  -1.897  1.00  0.00     0.269 C 
ENDBRANCH  25  26
ENDBRANCH   3  25
BRANCH   8  30
HETATM   30  C   UNL     1      43.957 -17.858   4.118  1.00  0.00     0.300 C 
HETATM   31  O   UNL     1      44.289 -17.939   5.293  1.00  0.00    -0.259 OA
BRANCH  30  32
HETATM   32  O   UNL     1      44.383 -18.709   3.141  1.00  0.00    -0.317 OA
BRANCH  32  33
HETATM   33  C   UNL     1      43.808 -20.025   3.150  1.00  0.00     0.174 C 
HETATM   34  C   UNL     1      43.350 -20.399   1.753  1.00  0.00     0.034 C 
ENDBRANCH  32  33
ENDBRANCH  30  32
ENDBRANCH   8  30
TORSDOF 10
ENDMDL
MODEL 2
REMARK VINA RESULT:      -7.4      1.760      6.185
REMARK  10 active torsions:
REMARK  status: ('A' for Active; 'I' for Inactive)
REMARK    1  A    between atoms: C_2  and  N_3 
REMARK    2  A    between atoms: N_7  and  C_8 
REMARK    3  A    between atoms: C_8  and  C_9 
REMARK    4  A    between atoms: C_9  and  N_10 
REMARK    5  A    between atoms: N_10  and  C_11 
REMARK    6  A    between atoms: C_13  and  C_14 
REMARK    7  A    between atoms: C_14  and  N_15 
REMARK    8  A    between atoms: C_23  and  C_24 
REMARK    9  A    between atoms: C_24  and  O_25 
REMARK   10  A    between atoms: O_25  and  C_26 
ROOT
HETATM    1  C   UNL     1      41.493 -13.771   5.211  1.00  0.00     0.139 A 
HETATM    2  N   UNL     1      41.831 -12.572   5.753  1.00  0.00    -0.214 NA
HETATM    3  C   UNL     1      42.981 -12.451   6.435  1.00  0.00     0.155 A 
HETATM    4  N   UNL     1      43.852 -13.430   6.701  1.00  0.00    -0.224 NA
HETATM    5  C   UNL     1      43.496 -14.608   6.167  1.00  0.00     0.115 A 
HETATM    6  C   UNL     1      42.376 -14.868   5.396  1.00  0.00     0.053 A 
HETATM    7  S   UNL     1      44.474 -15.964   6.419  1.00  0.00    -0.063 SA
HETATM    8  C   UNL     1      43.460 -16.973   5.482  1.00  0.00     0.089 A 
HETATM    9  C   UNL     1      42.392 -16.256   4.936  1.00  0.00    -0.022 A 
HETATM   10  C   UNL     1      41.386 -16.850   3.992  1.00  0.00     0.051 C 
ENDROOT
BRANCH   1  11
HETATM   11  N   UNL     1      40.308 -13.875   4.490  1.00  0.00    -0.372 N 
HETATM   12  H   UNL     1      39.687 -14.582   4.871  1.00  0.00     0.161 HD
BRANCH  11  13
HETATM   13  C   UNL     1      39.616 -12.671   4.051  1.00  0.00     0.145 C 
BRANCH  13  14
HETATM   14  C   UNL     1      39.457 -12.551   2.510  1.00  0.00     0.092 C 
HETATM   15  C   UNL     1      39.183 -11.094   2.093  1.00  0.00     0.033 C 
BRANCH  14  16
HETATM   16  N   UNL     1      40.554 -13.137   1.700  1.00  0.00    -0.404 N 
HETATM   17  C   UNL     1      41.209 -12.224   0.757  1.00  0.00     0.145 C 
HETATM   18  C   UNL     1      40.709 -12.277  -0.704  1.00  0.00     0.254 C 
HETATM   19  N   UNL     1      40.662 -13.704  -1.216  1.00  0.00    -0.068 N 
HETATM   20  H   UNL     1      41.626 -14.065  -1.205  1.00  0.00     0.280 HD
HETATM   21  C   UNL     1      39.859 -14.595  -0.275  1.00  0.00     0.254 C 
HETATM   22  C   UNL     1      40.393 -14.494   1.166  1.00  0.00     0.145 C 
BRANCH  19  23
HETATM   23  C   UNL     1      40.142 -13.828  -2.634  1.00  0.00     0.230 C 
HETATM   24  C   UNL     1      38.978 -14.796  -2.716  1.00  0.00     0.034 C 
ENDBRANCH  19  23
ENDBRANCH  14  16
ENDBRANCH  13  14
ENDBRANCH  11  13
ENDBRANCH   1  11
BRANCH   3  25
HETATM   25  C   UNL     1      43.383 -11.076   6.942  1.00  0.00     0.314 C 
BRANCH  25  26
HETATM   26  N   UNL     1      44.428 -11.116   8.057  1.00  0.00    -0.072 N 
HETATM   27  H   UNL     1      44.584 -12.126   8.221  1.00  0.00     0.279 HD
HETATM   28  C   UNL     1      45.754 -10.557   7.625  1.00  0.00     0.269 C 
HETATM   29  C   UNL     1      43.942 -10.510   9.334  1.00  0.00     0.269 C 
ENDBRANCH  25  26
ENDBRANCH   3  25
BRANCH   8  30
HETATM   30  C   UNL     1      43.752 -18.399   5.343  1.00  0.00     0.300 C 
HETATM   31  O   UNL     1      43.453 -19.252   6.170  1.00  0.00    -0.259 OA
BRANCH  30  32
HETATM   32  O   UNL     1      44.386 -18.663   4.165  1.00  0.00    -0.317 OA
BRANCH  32  33
HETATM   33  C   UNL     1      43.974 -19.854   3.476  1.00  0.00     0.174 C 
HETATM   34  C   UNL     1      43.255 -19.485   2.192  1.00  0.00     0.034 C 
ENDBRANCH  32  33
ENDBRANCH  30  32
ENDBRANCH   8  30
TORSDOF 10
ENDMDL
MODEL 3
REMARK VINA RESULT:      -7.3      1.908      5.317
REMARK  10 active torsions:
REMARK  status: ('A' for Active; 'I' for Inactive)
REMARK    1  A    between atoms: C_2  and  N_3 
REMARK    2  A    between atoms: N_7  and  C_8 
REMARK    3  A    between atoms: C_8  and  C_9 
REMARK    4  A    between atoms: C_9  and  N_10 
REMARK    5  A    between atoms: N_10  and  C_11 
REMARK    6  A    between atoms: C_13  and  C_14 
REMARK    7  A    between atoms: C_14  and  N_15 
REMARK    8  A    between atoms: C_23  and  C_24 
REMARK    9  A    between atoms: C_24  and  O_25 
REMARK   10  A    between atoms: O_25  and  C_26 
ROOT
HETATM    1  C   UNL     1      43.237 -13.292   3.836  1.00  0.00     0.139 A 
HETATM    2  N   UNL     1      43.364 -12.547   4.965  1.00  0.00    -0.214 NA
HETATM    3  C   UNL     1      43.612 -13.153   6.137  1.00  0.00     0.155 A 
HETATM    4  N   UNL     1      43.705 -14.471   6.345  1.00  0.00    -0.224 NA
HETATM    5  C   UNL     1      43.567 -15.190   5.221  1.00  0.00     0.115 A 
HETATM    6  C   UNL     1      43.366 -14.702   3.940  1.00  0.00     0.053 A 
HETATM    7  S   UNL     1      43.638 -16.877   5.299  1.00  0.00    -0.063 SA
HETATM    8  C   UNL     1      43.430 -17.047   3.610  1.00  0.00     0.089 A 
HETATM    9  C   UNL     1      43.352 -15.803   2.978  1.00  0.00    -0.022 A 
HETATM   10  C   UNL     1      43.263 -15.630   1.489  1.00  0.00     0.051 C 
ENDROOT
BRANCH   1  11
HETATM   11  N   UNL     1      43.001 -12.647   2.627  1.00  0.00    -0.372 N 
HETATM   12  H   UNL     1      42.842 -13.301   1.867  1.00  0.00     0.161 HD
BRANCH  11  13
HETATM   13  C   UNL     1      42.126 -11.483   2.582  1.00  0.00     0.145 C 
BRANCH  13  14
HETATM   14  C   UNL     1      40.820 -11.695   1.769  1.00  0.00     0.092 C 
HETATM   15  C   UNL     1      41.077 -12.565   0.525  1.00  0.00     0.033 C 
BRANCH  14  16
HETATM   16  N   UNL     1      39.656 -12.201   2.538  1.00  0.00    -0.404 N 
HETATM   17  C   UNL     1      39.353 -11.485   3.782  1.00  0.00     0.145 C 
HETATM   18  C   UNL     1      39.909 -12.106   5.082  1.00  0.00     0.254 C 
HETATM   19  N   UNL     1      39.579 -13.585   5.168  1.00  0.00    -0.068 N 
HETATM   20  H   UNL     1      38.553 -13.667   5.200  1.00  0.00     0.280 HD
HETATM   21  C   UNL     1      40.030 -14.319   3.911  1.00  0.00     0.254 C 
HETATM   22  C   UNL     1      39.455 -13.650   2.648  1.00  0.00     0.145 C 
BRANCH  19  23
HETATM   23  C   UNL     1      40.131 -14.263   6.405  1.00  0.00     0.230 C 
HETATM   24  C   UNL     1      40.120 -15.773   6.261  1.00  0.00     0.034 C 
ENDBRANCH  19  23
ENDBRANCH  14  16
ENDBRANCH  13  14
ENDBRANCH  11  13
ENDBRANCH   1  11
BRANCH   3  25
HETATM   25  C   UNL     1      43.850 -12.290   7.365  1.00  0.00     0.314 C 
BRANCH  25  26
HETATM   26  N   UNL     1      44.474 -10.931   7.046  1.00  0.00    -0.072 N 
HETATM   27  H   UNL     1      44.225 -10.765   6.055  1.00  0.00     0.279 HD
HETATM   28  C   UNL     1      43.846  -9.811   7.825  1.00  0.00     0.269 C 
HETATM   29  C   UNL     1      45.966 -10.934   7.153  1.00  0.00     0.269 C 
ENDBRANCH  25  26
ENDBRANCH   3  25
BRANCH   8  30
HETATM   30  C   UNL     1      43.342 -18.374   3.001  1.00  0.00     0.300 C 
HETATM   31  O   UNL     1      42.509 -18.698   2.164  1.00  0.00    -0.259 OA
BRANCH  30  32
HETATM   32  O   UNL     1      44.317 -19.202   3.472  1.00  0.00    -0.317 OA
BRANCH  32  33
HETATM   33  C   UNL     1      43.912 -20.542   3.793  1.00  0.00     0.174 C 
HETATM   34  C   UNL     1      43.984 -20.758   5.293  1.00  0.00     0.034 C 
ENDBRANCH  32  33
ENDBRANCH  30  32
ENDBRANCH   8  30
TORSDOF 10
ENDMDL
MODEL 4
REMARK VINA RESULT:      -7.3      2.008      6.044
REMARK  10 active torsions:
REMARK  status: ('A' for Active; 'I' for Inactive)
REMARK    1  A    between atoms: C_2  and  N_3 
REMARK    2  A    between atoms: N_7  and  C_8 
REMARK    3  A    between atoms: C_8  and  C_9 
REMARK    4  A    between atoms: C_9  and  N_10 
REMARK    5  A    between atoms: N_10  and  C_11 
REMARK    6  A    between atoms: C_13  and  C_14 
REMARK    7  A    between atoms: C_14  and  N_15 
REMARK    8  A    between atoms: C_23  and  C_24 
REMARK    9  A    between atoms: C_24  and  O_25 
REMARK   10  A    between atoms: O_25  and  C_26 
ROOT
HETATM    1  C   UNL     1      42.131 -14.135   4.223  1.00  0.00     0.139 A 
HETATM    2  N   UNL     1      42.293 -12.961   4.886  1.00  0.00    -0.214 NA
HETATM    3  C   UNL     1      43.067 -12.916   5.982  1.00  0.00     0.155 A 
HETATM    4  N   UNL     1      43.688 -13.953   6.557  1.00  0.00    -0.224 NA
HETATM    5  C   UNL     1      43.509 -15.105   5.893  1.00  0.00     0.115 A 
HETATM    6  C   UNL     1      42.788 -15.289   4.725  1.00  0.00     0.053 A 
HETATM    7  S   UNL     1      44.208 -16.524   6.488  1.00  0.00    -0.063 SA
HETATM    8  C   UNL     1      43.605 -17.463   5.192  1.00  0.00     0.089 A 
HETATM    9  C   UNL     1      42.903 -16.676   4.276  1.00  0.00    -0.022 A 
HETATM   10  C   UNL     1      42.338 -17.202   2.988  1.00  0.00     0.051 C 
ENDROOT
BRANCH   1  11
HETATM   11  N   UNL     1      41.342 -14.159   3.078  1.00  0.00    -0.372 N 
HETATM   12  H   UNL     1      40.397 -13.834   3.255  1.00  0.00     0.161 HD
BRANCH  11  13
HETATM   13  C   UNL     1      41.887 -13.694   1.810  1.00  0.00     0.145 C 
BRANCH  13  14
HETATM   14  C   UNL     1      40.952 -13.921   0.590  1.00  0.00     0.092 C 
HETATM   15  C   UNL     1      40.077 -15.172   0.788  1.00  0.00     0.033 C 
BRANCH  14  16
HETATM   16  N   UNL     1      40.128 -12.756   0.183  1.00  0.00    -0.404 N 
HETATM   17  C   UNL     1      39.990 -12.545  -1.261  1.00  0.00     0.145 C 
HETATM   18  C   UNL     1      40.951 -11.515  -1.897  1.00  0.00     0.254 C 
HETATM   19  N   UNL     1      40.952 -10.213  -1.117  1.00  0.00    -0.068 N 
HETATM   20  H   UNL     1      40.001  -9.823  -1.171  1.00  0.00     0.280 HD
HETATM   21  C   UNL     1      41.231 -10.462   0.361  1.00  0.00     0.254 C 
HETATM   22  C   UNL     1      40.252 -11.502   0.937  1.00  0.00     0.145 C 
BRANCH  19  23
HETATM   23  C   UNL     1      41.906  -9.172  -1.668  1.00  0.00     0.230 C 
HETATM   24  C   UNL     1      41.429  -8.634  -3.003  1.00  0.00     0.034 C 
ENDBRANCH  19  23
ENDBRANCH  14  16
ENDBRANCH  13  14
ENDBRANCH  11  13
ENDBRANCH   1  11
BRANCH   3  25
HETATM   25  C   UNL     1      43.313 -11.571   6.645  1.00  0.00     0.314 C 
BRANCH  25  26
HETATM   26  N   UNL     1      44.555 -11.546   7.536  1.00  0.00    -0.072 N 
HETATM   27  H   UNL     1      44.690 -12.535   7.809  1.00  0.00     0.279 HD
HETATM   28  C   UNL     1      45.795 -11.149   6.787  1.00  0.00     0.269 C 
HETATM   29  C   UNL     1      44.361 -10.745   8.784  1.00  0.00     0.269 C 
ENDBRANCH  25  26
ENDBRANCH   3  25
BRANCH   8  30
HETATM   30  C   UNL     1      43.837 -18.907   5.149  1.00  0.00     0.300 C 
HETATM   31  O   UNL     1      43.562 -19.681   6.057  1.00  0.00    -0.259 OA
BRANCH  30  32
HETATM   32  O   UNL     1      44.383 -19.286   3.958  1.00  0.00    -0.317 OA
BRANCH  32  33
HETATM   33  C   UNL     1      43.931 -20.538   3.422  1.00  0.00     0.174 C 
HETATM   34  C   UNL     1      43.580 -20.376   1.955  1.00  0.00     0.034 C 
ENDBRANCH  32  33
ENDBRANCH  30  32
ENDBRANCH   8  30
TORSDOF 10
ENDMDL
MODEL 5
REMARK VINA RESULT:      -7.1      2.044      6.714
REMARK  10 active torsions:
REMARK  status: ('A' for Active; 'I' for Inactive)
REMARK    1  A    between atoms: C_2  and  N_3 
REMARK    2  A    between atoms: N_7  and  C_8 
REMARK    3  A    between atoms: C_8  and  C_9 
REMARK    4  A    between atoms: C_9  and  N_10 
REMARK    5  A    between atoms: N_10  and  C_11 
REMARK    6  A    between atoms: C_13  and  C_14 
REMARK    7  A    between atoms: C_14  and  N_15 
REMARK    8  A    between atoms: C_23  and  C_24 
REMARK    9  A    between atoms: C_24  and  O_25 
REMARK   10  A    between atoms: O_25  and  C_26 
ROOT
HETATM    1  C   UNL     1      41.214 -13.007   2.960  1.00  0.00     0.139 A 
HETATM    2  N   UNL     1      40.389 -12.205   3.682  1.00  0.00    -0.214 NA
HETATM    3  C   UNL     1      40.129 -12.502   4.965  1.00  0.00     0.155 A 
HETATM    4  N   UNL     1      40.566 -13.573   5.637  1.00  0.00    -0.224 NA
HETATM    5  C   UNL     1      41.371 -14.358   4.905  1.00  0.00     0.115 A 
HETATM    6  C   UNL     1      41.772 -14.148   3.595  1.00  0.00     0.053 A 
HETATM    7  S   UNL     1      42.003 -15.768   5.589  1.00  0.00    -0.063 SA
HETATM    8  C   UNL     1      42.874 -16.164   4.171  1.00  0.00     0.089 A 
HETATM    9  C   UNL     1      42.716 -15.187   3.185  1.00  0.00    -0.022 A 
HETATM   10  C   UNL     1      43.435 -15.211   1.867  1.00  0.00     0.051 C 
ENDROOT
BRANCH   1  11
HETATM   11  N   UNL     1      41.490 -12.675   1.638  1.00  0.00    -0.372 N 
HETATM   12  H   UNL     1      42.397 -13.016   1.337  1.00  0.00     0.161 HD
BRANCH  11  13
HETATM   13  C   UNL     1      40.454 -12.808   0.623  1.00  0.00     0.145 C 
BRANCH  13  14
HETATM   14  C   UNL     1      40.586 -14.077  -0.263  1.00  0.00     0.092 C 
HETATM   15  C   UNL     1      39.901 -15.288   0.397  1.00  0.00     0.033 C 
BRANCH  14  16
HETATM   16  N   UNL     1      40.152 -13.926  -1.674  1.00  0.00    -0.404 N 
HETATM   17  C   UNL     1      40.645 -12.733  -2.370  1.00  0.00     0.145 C 
HETATM   18  C   UNL     1      39.686 -11.523  -2.417  1.00  0.00     0.254 C 
HETATM   19  N   UNL     1      38.304 -11.937  -2.886  1.00  0.00    -0.068 N 
HETATM   20  H   UNL     1      38.401 -12.294  -3.847  1.00  0.00     0.280 HD
HETATM   21  C   UNL     1      37.769 -13.095  -2.051  1.00  0.00     0.254 C 
HETATM   22  C   UNL     1      38.769 -14.266  -2.030  1.00  0.00     0.145 C 
BRANCH  19  23
HETATM   23  C   UNL     1      37.303 -10.801  -2.917  1.00  0.00     0.230 C 
HETATM   24  C   UNL     1      37.809  -9.639  -3.752  1.00  0.00     0.034 C 
ENDBRANCH  19  23
ENDBRANCH  14  16
ENDBRANCH  13  14
ENDBRANCH  11  13
ENDBRANCH   1  11
BRANCH   3  25
HETATM   25  C   UNL     1      39.286 -11.533   5.778  1.00  0.00     0.314 C 
BRANCH  25  26
HETATM   26  N   UNL     1      39.990 -11.010   7.030  1.00  0.00    -0.072 N 
HETATM   27  H   UNL     1      40.329 -11.865   7.505  1.00  0.00     0.279 HD
HETATM   28  C   UNL     1      41.215 -10.203   6.708  1.00  0.00     0.269 C 
HETATM   29  C   UNL     1      39.065 -10.298   7.965  1.00  0.00     0.269 C 
ENDBRANCH  25  26
ENDBRANCH   3  25
BRANCH   8  30
HETATM   30  C   UNL     1      43.647 -17.404   4.095  1.00  0.00     0.300 C 
HETATM   31  O   UNL     1      44.609 -17.666   4.805  1.00  0.00    -0.259 OA
BRANCH  30  32
HETATM   32  O   UNL     1      43.149 -18.241   3.140  1.00  0.00    -0.317 OA
BRANCH  32  33
HETATM   33  C   UNL     1      43.985 -19.347   2.766  1.00  0.00     0.174 C 
HETATM   34  C   UNL     1      43.247 -20.249   1.795  1.00  0.00     0.034 C 
ENDBRANCH  32  33
ENDBRANCH  30  32
ENDBRANCH   8  30
TORSDOF 10
ENDMDL
MODEL 6
REMARK VINA RESULT:      -6.9      3.121      7.321
REMARK  10 active torsions:
REMARK  status: ('A' for Active; 'I' for Inactive)
REMARK    1  A    between atoms: C_2  and  N_3 
REMARK    2  A    between atoms: N_7  and  C_8 
REMARK    3  A    between atoms: C_8  and  C_9 
REMARK    4  A    between atoms: C_9  and  N_10 
REMARK    5  A    between atoms: N_10  and  C_11 
REMARK    6  A    between atoms: C_13  and  C_14 
REMARK    7  A    between atoms: C_14  and  N_15 
REMARK    8  A    between atoms: C_23  and  C_24 
REMARK    9  A    between atoms: C_24  and  O_25 
REMARK   10  A    between atoms: O_25  and  C_26 
ROOT
HETATM    1  C   UNL     1      40.943 -13.042   5.026  1.00  0.00     0.139 A 
HETATM    2  N   UNL     1      41.571 -12.384   6.035  1.00  0.00    -0.214 NA
HETATM    3  C   UNL     1      42.147 -11.195   5.797  1.00  0.00     0.155 A 
HETATM    4  N   UNL     1      42.225 -10.574   4.615  1.00  0.00    -0.224 NA
HETATM    5  C   UNL     1      41.608 -11.243   3.629  1.00  0.00     0.115 A 
HETATM    6  C   UNL     1      40.926 -12.444   3.738  1.00  0.00     0.053 A 
HETATM    7  S   UNL     1      41.622 -10.613   2.061  1.00  0.00    -0.063 SA
HETATM    8  C   UNL     1      40.688 -11.906   1.444  1.00  0.00     0.089 A 
HETATM    9  C   UNL     1      40.326 -12.801   2.453  1.00  0.00    -0.022 A 
HETATM   10  C   UNL     1      39.426 -13.984   2.235  1.00  0.00     0.051 C 
ENDROOT
BRANCH   1  11
HETATM   11  N   UNL     1      40.333 -14.262   5.295  1.00  0.00    -0.372 N 
HETATM   12  H   UNL     1      39.365 -14.284   4.990  1.00  0.00     0.161 HD
BRANCH  11  13
HETATM   13  C   UNL     1      41.049 -15.505   5.039  1.00  0.00     0.145 C 
BRANCH  13  14
HETATM   14  C   UNL     1      42.432 -15.603   5.741  1.00  0.00     0.092 C 
HETATM   15  C   UNL     1      42.343 -16.447   7.025  1.00  0.00     0.033 C 
BRANCH  14  16
HETATM   16  N   UNL     1      43.558 -16.054   4.886  1.00  0.00    -0.404 N 
HETATM   17  C   UNL     1      43.241 -16.262   3.470  1.00  0.00     0.145 C 
HETATM   18  C   UNL     1      42.928 -17.714   3.044  1.00  0.00     0.254 C 
HETATM   19  N   UNL     1      43.990 -18.673   3.548  1.00  0.00    -0.068 N 
HETATM   20  H   UNL     1      44.880 -18.405   3.104  1.00  0.00     0.280 HD
HETATM   21  C   UNL     1      44.197 -18.519   5.050  1.00  0.00     0.254 C 
HETATM   22  C   UNL     1      44.494 -17.053   5.416  1.00  0.00     0.145 C 
BRANCH  19  23
HETATM   23  C   UNL     1      43.721 -20.122   3.196  1.00  0.00     0.230 C 
HETATM   24  C   UNL     1      43.381 -20.282   1.727  1.00  0.00     0.034 C 
ENDBRANCH  19  23
ENDBRANCH  14  16
ENDBRANCH  13  14
ENDBRANCH  11  13
ENDBRANCH   1  11
BRANCH   3  25
HETATM   25  C   UNL     1      42.753 -10.434   6.965  1.00  0.00     0.314 C 
BRANCH  25  26
HETATM   26  N   UNL     1      43.679 -11.284   7.834  1.00  0.00    -0.072 N 
HETATM   27  H   UNL     1      43.145 -12.156   7.995  1.00  0.00     0.279 HD
HETATM   28  C   UNL     1      44.932 -11.693   7.114  1.00  0.00     0.269 C 
HETATM   29  C   UNL     1      43.962 -10.664   9.165  1.00  0.00     0.269 C 
ENDBRANCH  25  26
ENDBRANCH   3  25
BRANCH   8  30
HETATM   30  C   UNL     1      40.374 -11.983   0.017  1.00  0.00     0.300 C 
HETATM   31  O   UNL     1      40.892 -12.770  -0.765  1.00  0.00    -0.259 OA
BRANCH  30  32
HETATM   32  O   UNL     1      39.417 -11.075  -0.330  1.00  0.00    -0.317 OA
BRANCH  32  33
HETATM   33  C   UNL     1      38.086 -11.587  -0.493  1.00  0.00     0.174 C 
HETATM   34  C   UNL     1      37.237 -11.211   0.707  1.00  0.00     0.034 C 
ENDBRANCH  32  33
ENDBRANCH  30  32
ENDBRANCH   8  30
TORSDOF 10
ENDMDL
MODEL 7
REMARK VINA RESULT:      -6.9      1.545      2.447
REMARK  10 active torsions:
REMARK  status: ('A' for Active; 'I' for Inactive)
REMARK    1  A    between atoms: C_2  and  N_3 
REMARK    2  A    between atoms: N_7  and  C_8 
REMARK    3  A    between atoms: C_8  and  C_9 
REMARK    4  A    between atoms: C_9  and  N_10 
REMARK    5  A    between atoms: N_10  and  C_11 
REMARK    6  A    between atoms: C_13  and  C_14 
REMARK    7  A    between atoms: C_14  and  N_15 
REMARK    8  A    between atoms: C_23  and  C_24 
REMARK    9  A    between atoms: C_24  and  O_25 
REMARK   10  A    between atoms: O_25  and  C_26 
ROOT
HETATM    1  C   UNL     1      40.298 -14.202   3.394  1.00  0.00     0.139 A 
HETATM    2  N   UNL     1      39.849 -13.565   2.282  1.00  0.00    -0.214 NA
HETATM    3  C   UNL     1      40.363 -13.880   1.082  1.00  0.00     0.155 A 
HETATM    4  N   UNL     1      41.348 -14.753   0.845  1.00  0.00    -0.224 NA
HETATM    5  C   UNL     1      41.785 -15.364   1.957  1.00  0.00     0.115 A 
HETATM    6  C   UNL     1      41.313 -15.184   3.246  1.00  0.00     0.053 A 
HETATM    7  S   UNL     1      43.043 -16.488   1.847  1.00  0.00    -0.063 SA
HETATM    8  C   UNL     1      43.006 -16.818   3.525  1.00  0.00     0.089 A 
HETATM    9  C   UNL     1      41.995 -16.096   4.164  1.00  0.00    -0.022 A 
HETATM   10  C   UNL     1      41.656 -16.248   5.620  1.00  0.00     0.051 C 
ENDROOT
BRANCH   1  11
HETATM   11  N   UNL     1      39.741 -13.879   4.627  1.00  0.00    -0.372 N 
HETATM   12  H   UNL     1      40.141 -14.423   5.384  1.00  0.00     0.161 HD
BRANCH  11  13
HETATM   13  C   UNL     1      39.506 -12.484   4.975  1.00  0.00     0.145 C 
BRANCH  13  14
HETATM   14  C   UNL     1      40.487 -11.916   6.038  1.00  0.00     0.092 C 
HETATM   15  C   UNL     1      41.934 -12.355   5.748  1.00  0.00     0.033 C 
BRANCH  14  16
HETATM   16  N   UNL     1      40.413 -10.452   6.267  1.00  0.00    -0.404 N 
HETATM   17  C   UNL     1      41.679  -9.794   6.605  1.00  0.00     0.145 C 
HETATM   18  C   UNL     1      41.949  -9.560   8.108  1.00  0.00     0.254 C 
HETATM   19  N   UNL     1      40.758  -8.907   8.784  1.00  0.00    -0.068 N 
HETATM   20  H   UNL     1      40.625  -7.985   8.345  1.00  0.00     0.280 HD
HETATM   21  C   UNL     1      39.480  -9.696   8.519  1.00  0.00     0.254 C 
HETATM   22  C   UNL     1      39.269  -9.907   7.008  1.00  0.00     0.145 C 
BRANCH  19  23
HETATM   23  C   UNL     1      40.944  -8.686  10.271  1.00  0.00     0.230 C 
HETATM   24  C   UNL     1      39.612  -8.601  10.990  1.00  0.00     0.034 C 
ENDBRANCH  19  23
ENDBRANCH  14  16
ENDBRANCH  13  14
ENDBRANCH  11  13
ENDBRANCH   1  11
BRANCH   3  25
HETATM   25  C   UNL     1      39.771 -13.226  -0.156  1.00  0.00     0.314 C 
BRANCH  25  26
HETATM   26  N   UNL     1      40.719 -13.218  -1.356  1.00  0.00    -0.072 N 
HETATM   27  H   UNL     1      41.541 -13.757  -1.032  1.00  0.00     0.279 HD
HETATM   28  C   UNL     1      40.166 -13.970  -2.532  1.00  0.00     0.269 C 
HETATM   29  C   UNL     1      41.183 -11.845  -1.722  1.00  0.00     0.269 C 
ENDBRANCH  25  26
ENDBRANCH   3  25
BRANCH   8  30
HETATM   30  C   UNL     1      43.967 -17.744   4.123  1.00  0.00     0.300 C 
HETATM   31  O   UNL     1      44.310 -17.725   5.298  1.00  0.00    -0.259 OA
BRANCH  30  32
HETATM   32  O   UNL     1      44.423 -18.646   3.207  1.00  0.00    -0.317 OA
BRANCH  32  33
HETATM   33  C   UNL     1      43.838 -19.956   3.261  1.00  0.00     0.174 C 
HETATM   34  C   UNL     1      43.290 -20.335   1.898  1.00  0.00     0.034 C 
ENDBRANCH  32  33
ENDBRANCH  30  32
ENDBRANCH   8  30
TORSDOF 10
ENDMDL
MODEL 8
REMARK VINA RESULT:      -6.7      2.129      6.188
REMARK  10 active torsions:
REMARK  status: ('A' for Active; 'I' for Inactive)
REMARK    1  A    between atoms: C_2  and  N_3 
REMARK    2  A    between atoms: N_7  and  C_8 
REMARK    3  A    between atoms: C_8  and  C_9 
REMARK    4  A    between atoms: C_9  and  N_10 
REMARK    5  A    between atoms: N_10  and  C_11 
REMARK    6  A    between atoms: C_13  and  C_14 
REMARK    7  A    between atoms: C_14  and  N_15 
REMARK    8  A    between atoms: C_23  and  C_24 
REMARK    9  A    between atoms: C_24  and  O_25 
REMARK   10  A    between atoms: O_25  and  C_26 
ROOT
HETATM    1  C   UNL     1      42.970 -11.530   4.706  1.00  0.00     0.139 A 
HETATM    2  N   UNL     1      43.121 -10.796   5.838  1.00  0.00    -0.214 NA
HETATM    3  C   UNL     1      43.430 -11.409   6.992  1.00  0.00     0.155 A 
HETATM    4  N   UNL     1      43.564 -12.727   7.179  1.00  0.00    -0.224 NA
HETATM    5  C   UNL     1      43.402 -13.435   6.051  1.00  0.00     0.115 A 
HETATM    6  C   UNL     1      43.140 -12.937   4.786  1.00  0.00     0.053 A 
HETATM    7  S   UNL     1      43.520 -15.121   6.105  1.00  0.00    -0.063 SA
HETATM    8  C   UNL     1      43.251 -15.276   4.423  1.00  0.00     0.089 A 
HETATM    9  C   UNL     1      43.116 -14.027   3.811  1.00  0.00    -0.022 A 
HETATM   10  C   UNL     1      42.966 -13.838   2.329  1.00  0.00     0.051 C 
ENDROOT
BRANCH   1  11
HETATM   11  N   UNL     1      42.671 -10.877   3.515  1.00  0.00    -0.372 N 
HETATM   12  H   UNL     1      42.757 -11.488   2.709  1.00  0.00     0.161 HD
BRANCH  11  13
HETATM   13  C   UNL     1      41.523  -9.984   3.444  1.00  0.00     0.145 C 
BRANCH  13  14
HETATM   14  C   UNL     1      40.702 -10.099   2.130  1.00  0.00     0.092 C 
HETATM   15  C   UNL     1      41.589 -10.568   0.963  1.00  0.00     0.033 C 
BRANCH  14  16
HETATM   16  N   UNL     1      39.462 -10.909   2.213  1.00  0.00    -0.404 N 
HETATM   17  C   UNL     1      39.196 -11.539   3.511  1.00  0.00     0.145 C 
HETATM   18  C   UNL     1      39.633 -13.014   3.657  1.00  0.00     0.254 C 
HETATM   19  N   UNL     1      39.135 -13.851   2.493  1.00  0.00    -0.068 N 
HETATM   20  H   UNL     1      38.106 -13.828   2.518  1.00  0.00     0.280 HD
HETATM   21  C   UNL     1      39.546 -13.233   1.162  1.00  0.00     0.254 C 
HETATM   22  C   UNL     1      39.095 -11.762   1.077  1.00  0.00     0.145 C 
BRANCH  19  23
HETATM   23  C   UNL     1      39.563 -15.302   2.558  1.00  0.00     0.230 C 
HETATM   24  C   UNL     1      39.992 -15.815   1.196  1.00  0.00     0.034 C 
ENDBRANCH  19  23
ENDBRANCH  14  16
ENDBRANCH  13  14
ENDBRANCH  11  13
ENDBRANCH   1  11
BRANCH   3  25
HETATM   25  C   UNL     1      43.693 -10.554   8.221  1.00  0.00     0.314 C 
BRANCH  25  26
HETATM   26  N   UNL     1      45.133 -10.639   8.729  1.00  0.00    -0.072 N 
HETATM   27  H   UNL     1      45.278 -11.647   8.912  1.00  0.00     0.279 HD
HETATM   28  C   UNL     1      46.137 -10.260   7.678  1.00  0.00     0.269 C 
HETATM   29  C   UNL     1      45.343  -9.902  10.012  1.00  0.00     0.269 C 
ENDBRANCH  25  26
ENDBRANCH   3  25
BRANCH   8  30
HETATM   30  C   UNL     1      43.173 -16.597   3.800  1.00  0.00     0.300 C 
HETATM   31  O   UNL     1      43.062 -16.791   2.597  1.00  0.00    -0.259 OA
BRANCH  30  32
HETATM   32  O   UNL     1      43.257 -17.590   4.732  1.00  0.00    -0.317 OA
BRANCH  32  33
HETATM   33  C   UNL     1      44.407 -18.445   4.646  1.00  0.00     0.174 C 
HETATM   34  C   UNL     1      44.016 -19.777   4.033  1.00  0.00     0.034 C 
ENDBRANCH  32  33
ENDBRANCH  30  32
ENDBRANCH   8  30
TORSDOF 10
ENDMDL
MODEL 9
REMARK VINA RESULT:      -6.7      2.301      3.201
REMARK  10 active torsions:
REMARK  status: ('A' for Active; 'I' for Inactive)
REMARK    1  A    between atoms: C_2  and  N_3 
REMARK    2  A    between atoms: N_7  and  C_8 
REMARK    3  A    between atoms: C_8  and  C_9 
REMARK    4  A    between atoms: C_9  and  N_10 
REMARK    5  A    between atoms: N_10  and  C_11 
REMARK    6  A    between atoms: C_13  and  C_14 
REMARK    7  A    between atoms: C_14  and  N_15 
REMARK    8  A    between atoms: C_23  and  C_24 
REMARK    9  A    between atoms: C_24  and  O_25 
REMARK   10  A    between atoms: O_25  and  C_26 
ROOT
HETATM    1  C   UNL     1      40.070 -13.851   2.867  1.00  0.00     0.139 A 
HETATM    2  N   UNL     1      39.732 -13.313   1.666  1.00  0.00    -0.214 NA
HETATM    3  C   UNL     1      40.339 -13.744   0.549  1.00  0.00     0.155 A 
HETATM    4  N   UNL     1      41.321 -14.650   0.479  1.00  0.00    -0.224 NA
HETATM    5  C   UNL     1      41.647 -15.163   1.676  1.00  0.00     0.115 A 
HETATM    6  C   UNL     1      41.071 -14.857   2.897  1.00  0.00     0.053 A 
HETATM    7  S   UNL     1      42.884 -16.311   1.779  1.00  0.00    -0.063 SA
HETATM    8  C   UNL     1      42.695 -16.483   3.470  1.00  0.00     0.089 A 
HETATM    9  C   UNL     1      41.650 -15.691   3.950  1.00  0.00    -0.022 A 
HETATM   10  C   UNL     1      41.184 -15.702   5.378  1.00  0.00     0.051 C 
ENDROOT
BRANCH   1  11
HETATM   11  N   UNL     1      39.417 -13.407   4.011  1.00  0.00    -0.372 N 
HETATM   12  H   UNL     1      38.986 -14.167   4.527  1.00  0.00     0.161 HD
BRANCH  11  13
HETATM   13  C   UNL     1      40.044 -12.408   4.866  1.00  0.00     0.145 C 
BRANCH  13  14
HETATM   14  C   UNL     1      39.128 -11.207   5.225  1.00  0.00     0.092 C 
HETATM   15  C   UNL     1      39.044 -11.011   6.750  1.00  0.00     0.033 C 
BRANCH  14  16
HETATM   16  N   UNL     1      39.444  -9.927   4.544  1.00  0.00    -0.404 N 
HETATM   17  C   UNL     1      38.401  -9.401   3.658  1.00  0.00     0.145 C 
HETATM   18  C   UNL     1      38.555  -9.720   2.154  1.00  0.00     0.254 C 
HETATM   19  N   UNL     1      39.953  -9.389   1.664  1.00  0.00    -0.068 N 
HETATM   20  H   UNL     1      40.086  -8.375   1.782  1.00  0.00     0.280 HD
HETATM   21  C   UNL     1      41.009 -10.063   2.533  1.00  0.00     0.254 C 
HETATM   22  C   UNL     1      40.799  -9.720   4.019  1.00  0.00     0.145 C 
BRANCH  19  23
HETATM   23  C   UNL     1      40.182  -9.716   0.203  1.00  0.00     0.230 C 
HETATM   24  C   UNL     1      41.660  -9.739  -0.135  1.00  0.00     0.034 C 
ENDBRANCH  19  23
ENDBRANCH  14  16
ENDBRANCH  13  14
ENDBRANCH  11  13
ENDBRANCH   1  11
BRANCH   3  25
HETATM   25  C   UNL     1      39.871 -13.199  -0.790  1.00  0.00     0.314 C 
BRANCH  25  26
HETATM   26  N   UNL     1      38.623 -13.896  -1.332  1.00  0.00    -0.072 N 
HETATM   27  H   UNL     1      38.182 -14.313  -0.493  1.00  0.00     0.279 HD
HETATM   28  C   UNL     1      37.619 -12.929  -1.891  1.00  0.00     0.269 C 
HETATM   29  C   UNL     1      38.941 -15.004  -2.285  1.00  0.00     0.269 C 
ENDBRANCH  25  26
ENDBRANCH   3  25
BRANCH   8  30
HETATM   30  C   UNL     1      43.581 -17.365   4.231  1.00  0.00     0.300 C 
HETATM   31  O   UNL     1      44.481 -16.978   4.965  1.00  0.00    -0.259 OA
BRANCH  30  32
HETATM   32  O   UNL     1      43.265 -18.677   4.032  1.00  0.00    -0.317 OA
BRANCH  32  33
HETATM   33  C   UNL     1      44.180 -19.434   3.225  1.00  0.00     0.174 C 
HETATM   34  C   UNL     1      43.428 -20.135   2.109  1.00  0.00     0.034 C 
ENDBRANCH  32  33
ENDBRANCH  30  32
ENDBRANCH   8  30
TORSDOF 10
ENDMDL
MODEL 10
REMARK VINA RESULT:      -6.6      2.127      6.462
REMARK  10 active torsions:
REMARK  status: ('A' for Active; 'I' for Inactive)
REMARK    1  A    between atoms: C_2  and  N_3 
REMARK    2  A    between atoms: N_7  and  C_8 
REMARK    3  A    between atoms: C_8  and  C_9 
REMARK    4  A    between atoms: C_9  and  N_10 
REMARK    5  A    between atoms: N_10  and  C_11 
REMARK    6  A    between atoms: C_13  and  C_14 
REMARK    7  A    between atoms: C_14  and  N_15 
REMARK    8  A    between atoms: C_23  and  C_24 
REMARK    9  A    between atoms: C_24  and  O_25 
REMARK   10  A    between atoms: O_25  and  C_26 
ROOT
HETATM    1  C   UNL     1      42.285 -13.370   3.176  1.00  0.00     0.139 A 
HETATM    2  N   UNL     1      41.963 -12.447   4.119  1.00  0.00    -0.214 NA
HETATM    3  C   UNL     1      42.049 -12.766   5.420  1.00  0.00     0.155 A 
HETATM    4  N   UNL     1      42.382 -13.961   5.924  1.00  0.00    -0.224 NA
HETATM    5  C   UNL     1      42.686 -14.862   4.977  1.00  0.00     0.115 A 
HETATM    6  C   UNL     1      42.698 -14.659   3.607  1.00  0.00     0.053 A 
HETATM    7  S   UNL     1      43.113 -16.433   5.433  1.00  0.00    -0.063 SA
HETATM    8  C   UNL     1      43.364 -16.923   3.813  1.00  0.00     0.089 A 
HETATM    9  C   UNL     1      43.164 -15.865   2.924  1.00  0.00    -0.022 A 
HETATM   10  C   UNL     1      43.403 -15.964   1.444  1.00  0.00     0.051 C 
ENDROOT
BRANCH   1  11
HETATM   11  N   UNL     1      42.210 -13.017   1.834  1.00  0.00    -0.372 N 
HETATM   12  H   UNL     1      42.929 -13.467   1.277  1.00  0.00     0.161 HD
BRANCH  11  13
HETATM   13  C   UNL     1      40.916 -12.954   1.169  1.00  0.00     0.145 C 
BRANCH  13  14
HETATM   14  C   UNL     1      40.744 -13.969   0.005  1.00  0.00     0.092 C 
HETATM   15  C   UNL     1      39.927 -15.194   0.455  1.00  0.00     0.033 C 
BRANCH  14  16
HETATM   16  N   UNL     1      40.210 -13.412  -1.262  1.00  0.00    -0.404 N 
HETATM   17  C   UNL     1      40.797 -12.140  -1.698  1.00  0.00     0.145 C 
HETATM   18  C   UNL     1      40.010 -10.862  -1.331  1.00  0.00     0.254 C 
HETATM   19  N   UNL     1      38.548 -10.989  -1.717  1.00  0.00    -0.068 N 
HETATM   20  H   UNL     1      38.510 -11.093  -2.741  1.00  0.00     0.280 HD
HETATM   21  C   UNL     1      37.938 -12.258  -1.134  1.00  0.00     0.254 C 
HETATM   22  C   UNL     1      38.768 -13.496  -1.522  1.00  0.00     0.145 C 
BRANCH  19  23
HETATM   23  C   UNL     1      37.712  -9.781  -1.348  1.00  0.00     0.230 C 
HETATM   24  C   UNL     1      36.390  -9.774  -2.091  1.00  0.00     0.034 C 
ENDBRANCH  19  23
ENDBRANCH  14  16
ENDBRANCH  13  14
ENDBRANCH  11  13
ENDBRANCH   1  11
BRANCH   3  25
HETATM   25  C   UNL     1      41.783 -11.684   6.453  1.00  0.00     0.314 C 
BRANCH  25  26
HETATM   26  N   UNL     1      42.658 -10.443   6.279  1.00  0.00    -0.072 N 
HETATM   27  H   UNL     1      43.068 -10.553   5.335  1.00  0.00     0.279 HD
HETATM   28  C   UNL     1      41.856  -9.174   6.237  1.00  0.00     0.269 C 
HETATM   29  C   UNL     1      43.780 -10.377   7.265  1.00  0.00     0.269 C 
ENDBRANCH  25  26
ENDBRANCH   3  25
BRANCH   8  30
HETATM   30  C   UNL     1      43.726 -18.306   3.502  1.00  0.00     0.300 C 
HETATM   31  O   UNL     1      43.317 -18.927   2.530  1.00  0.00    -0.259 OA
BRANCH  30  32
HETATM   32  O   UNL     1      44.593 -18.812   4.426  1.00  0.00    -0.317 OA
BRANCH  32  33
HETATM   33  C   UNL     1      44.346 -20.159   4.855  1.00  0.00     0.174 C 
HETATM   34  C   UNL     1      43.517 -20.155   6.126  1.00  0.00     0.034 C 
ENDBRANCH  32  33
ENDBRANCH  30  32
ENDBRANCH   8  30
TORSDOF 10
ENDMDL
