MODEL 1
REMARK VINA RESULT:      -8.5      0.000      0.000
REMARK  8 active torsions:
REMARK  status: ('A' for Active; 'I' for Inactive)
REMARK    1  A    between atoms: O_2  and  C_3 
REMARK    2  A    between atoms: C_5  and  N_6 
REMARK       I    between atoms: N_6  and  C_7 
REMARK    3  A    between atoms: C_7  and  C_8 
REMARK    4  A    between atoms: C_8  and  N_9 
REMARK    5  A    between atoms: C_8  and  C_25 
REMARK    6  A    between atoms: N_9  and  C_12 
REMARK    7  A    between atoms: C_12  and  C_13 
REMARK    8  A    between atoms: C_16  and  N_17 
ROOT
HETATM    1  C   UNL     1      41.912 -12.813   3.680  1.00  0.00     0.310 C 
ENDROOT
BRANCH   1   2
HETATM    2  C   UNL     1      41.469 -11.409   4.137  1.00  0.00     0.257 C 
HETATM    3  N   UNL     1      42.102 -10.656   5.072  1.00  0.00    -0.325 N 
HETATM    4  H   UNL     1      41.676  -9.734   5.141  1.00  0.00     0.169 HD
HETATM    5  O   UNL     1      40.501 -10.901   3.545  1.00  0.00    -0.270 OA
BRANCH   3   6
HETATM    6  C   UNL     1      43.186 -10.867   5.943  1.00  0.00     0.037 A 
HETATM    7  C   UNL     1      43.158 -10.741   7.329  1.00  0.00     0.066 A 
HETATM    8  C   UNL     1      44.304 -10.964   8.107  1.00  0.00     0.070 A 
HETATM    9  C   UNL     1      45.499 -11.325   7.492  1.00  0.00     0.037 A 
HETATM   10  C   UNL     1      45.548 -11.443   6.105  1.00  0.00     0.005 A 
HETATM   11  C   UNL     1      44.404 -11.210   5.338  1.00  0.00     0.029 A 
BRANCH   8  12
HETATM   12  O   UNL     1      44.110 -10.798   9.452  1.00  0.00    -0.356 OA
HETATM   13  C   UNL     1      45.168 -10.184  10.180  1.00  0.00     0.210 C 
ENDBRANCH   8  12
ENDBRANCH   3   6
ENDBRANCH   1   2
BRANCH   1  14
HETATM   14  N   UNL     1      41.001 -13.259   2.549  1.00  0.00    -0.054 N 
HETATM   15  H   UNL     1      40.271 -13.884   2.911  1.00  0.00     0.278 HD
HETATM   16  H   UNL     1      40.506 -12.407   2.239  1.00  0.00     0.278 HD
BRANCH  14  17
HETATM   17  C   UNL     1      41.642 -13.860   1.355  1.00  0.00     0.272 C 
BRANCH  17  18
HETATM   18  C   UNL     1      42.116 -15.240   1.713  1.00  0.00    -0.033 A 
HETATM   19  C   UNL     1      41.212 -16.197   2.181  1.00  0.00     0.011 A 
HETATM   20  C   UNL     1      41.673 -17.417   2.690  1.00  0.00     0.030 A 
HETATM   21  C   UNL     1      43.040 -17.715   2.758  1.00  0.00     0.037 A 
HETATM   22  C   UNL     1      43.933 -16.768   2.236  1.00  0.00     0.030 A 
HETATM   23  C   UNL     1      43.481 -15.544   1.725  1.00  0.00     0.011 A 
BRANCH  21  24
HETATM   24  N   UNL     1      43.518 -18.912   3.356  1.00  0.00    -0.318 N 
HETATM   25  C   UNL     1      43.553 -20.181   2.751  1.00  0.00     0.224 C 
HETATM   26  O   UNL     1      43.251 -20.498   1.610  1.00  0.00    -0.273 OA
HETATM   27  C   UNL     1      43.957 -21.187   3.802  1.00  0.00     0.105 C 
HETATM   28  C   UNL     1      44.575 -20.329   4.889  1.00  0.00     0.029 C 
HETATM   29  C   UNL     1      43.835 -19.015   4.763  1.00  0.00     0.133 C 
ENDBRANCH  21  24
ENDBRANCH  17  18
ENDBRANCH  14  17
ENDBRANCH   1  14
BRANCH   1  30
HETATM   30  C   UNL     1      41.810 -13.879   4.758  1.00  0.00    -0.019 A 
HETATM   31  C   UNL     1      42.972 -14.562   5.163  1.00  0.00     0.010 A 
HETATM   32  C   UNL     1      42.900 -15.608   6.083  1.00  0.00     0.001 A 
HETATM   33  C   UNL     1      41.667 -15.998   6.598  1.00  0.00     0.000 A 
HETATM   34  C   UNL     1      40.506 -15.344   6.196  1.00  0.00     0.001 A 
HETATM   35  C   UNL     1      40.572 -14.295   5.277  1.00  0.00     0.010 A 
ENDBRANCH   1  30
TORSDOF 8
ENDMDL
MODEL 2
REMARK VINA RESULT:      -8.3      2.683      8.260
REMARK  8 active torsions:
REMARK  status: ('A' for Active; 'I' for Inactive)
REMARK    1  A    between atoms: O_2  and  C_3 
REMARK    2  A    between atoms: C_5  and  N_6 
REMARK       I    between atoms: N_6  and  C_7 
REMARK    3  A    between atoms: C_7  and  C_8 
REMARK    4  A    between atoms: C_8  and  N_9 
REMARK    5  A    between atoms: C_8  and  C_25 
REMARK    6  A    between atoms: N_9  and  C_12 
REMARK    7  A    between atoms: C_12  and  C_13 
REMARK    8  A    between atoms: C_16  and  N_17 
ROOT
HETATM    1  C   UNL     1      42.394 -13.712   4.616  1.00  0.00     0.310 C 
ENDROOT
BRANCH   1   2
HETATM    2  C   UNL     1      40.880 -13.661   4.907  1.00  0.00     0.257 C 
HETATM    3  N   UNL     1      39.902 -13.867   3.990  1.00  0.00    -0.325 N 
HETATM    4  H   UNL     1      38.986 -13.869   4.435  1.00  0.00     0.169 HD
HETATM    5  O   UNL     1      40.538 -13.493   6.090  1.00  0.00    -0.270 OA
BRANCH   3   6
HETATM    6  C   UNL     1      39.877 -14.071   2.598  1.00  0.00     0.037 A 
HETATM    7  C   UNL     1      39.872 -13.075   1.626  1.00  0.00     0.066 A 
HETATM    8  C   UNL     1      39.836 -13.389   0.259  1.00  0.00     0.070 A 
HETATM    9  C   UNL     1      39.810 -14.719  -0.146  1.00  0.00     0.037 A 
HETATM   10  C   UNL     1      39.802 -15.728   0.814  1.00  0.00     0.005 A 
HETATM   11  C   UNL     1      39.829 -15.407   2.173  1.00  0.00     0.029 A 
BRANCH   8  12
HETATM   12  O   UNL     1      39.833 -12.297  -0.567  1.00  0.00    -0.356 OA
HETATM   13  C   UNL     1      40.960 -12.138  -1.423  1.00  0.00     0.210 C 
ENDBRANCH   8  12
ENDBRANCH   3   6
ENDBRANCH   1   2
BRANCH   1  14
HETATM   14  N   UNL     1      42.776 -12.463   3.842  1.00  0.00    -0.054 N 
HETATM   15  H   UNL     1      42.879 -12.685   2.845  1.00  0.00     0.278 HD
HETATM   16  H   UNL     1      41.957 -11.837   3.904  1.00  0.00     0.278 HD
BRANCH  14  17
HETATM   17  C   UNL     1      43.955 -11.701   4.319  1.00  0.00     0.272 C 
BRANCH  17  18
HETATM   18  C   UNL     1      43.725 -11.316   5.752  1.00  0.00    -0.033 A 
HETATM   19  C   UNL     1      42.615 -10.544   6.106  1.00  0.00     0.011 A 
HETATM   20  C   UNL     1      42.495 -10.027   7.402  1.00  0.00     0.030 A 
HETATM   21  C   UNL     1      43.477 -10.253   8.375  1.00  0.00     0.037 A 
HETATM   22  C   UNL     1      44.558 -11.073   8.023  1.00  0.00     0.030 A 
HETATM   23  C   UNL     1      44.687 -11.594   6.729  1.00  0.00     0.011 A 
BRANCH  21  24
HETATM   24  N   UNL     1      43.406  -9.656   9.664  1.00  0.00    -0.318 N 
HETATM   25  C   UNL     1      43.624 -10.310  10.890  1.00  0.00     0.224 C 
HETATM   26  O   UNL     1      43.967 -11.464  11.095  1.00  0.00    -0.273 OA
HETATM   27  C   UNL     1      43.264  -9.350  11.999  1.00  0.00     0.105 C 
HETATM   28  C   UNL     1      43.274  -8.000  11.310  1.00  0.00     0.029 C 
HETATM   29  C   UNL     1      42.881  -8.327   9.886  1.00  0.00     0.133 C 
ENDBRANCH  21  24
ENDBRANCH  17  18
ENDBRANCH  14  17
ENDBRANCH   1  14
BRANCH   1  30
HETATM   30  C   UNL     1      42.823 -14.894   3.763  1.00  0.00    -0.019 A 
HETATM   31  C   UNL     1      43.243 -14.669   2.438  1.00  0.00     0.010 A 
HETATM   32  C   UNL     1      43.557 -15.738   1.599  1.00  0.00     0.001 A 
HETATM   33  C   UNL     1      43.440 -17.045   2.063  1.00  0.00     0.000 A 
HETATM   34  C   UNL     1      43.011 -17.285   3.366  1.00  0.00     0.001 A 
HETATM   35  C   UNL     1      42.698 -16.220   4.211  1.00  0.00     0.010 A 
ENDBRANCH   1  30
TORSDOF 8
ENDMDL
MODEL 3
REMARK VINA RESULT:      -8.1      1.817      4.000
REMARK  8 active torsions:
REMARK  status: ('A' for Active; 'I' for Inactive)
REMARK    1  A    between atoms: O_2  and  C_3 
REMARK    2  A    between atoms: C_5  and  N_6 
REMARK       I    between atoms: N_6  and  C_7 
REMARK    3  A    between atoms: C_7  and  C_8 
REMARK    4  A    between atoms: C_8  and  N_9 
REMARK    5  A    between atoms: C_8  and  C_25 
REMARK    6  A    between atoms: N_9  and  C_12 
REMARK    7  A    between atoms: C_12  and  C_13 
REMARK    8  A    between atoms: C_16  and  N_17 
ROOT
HETATM    1  C   UNL     1      40.662 -13.880   2.306  1.00  0.00     0.310 C 
ENDROOT
BRANCH   1   2
HETATM    2  C   UNL     1      39.676 -13.238   3.303  1.00  0.00     0.257 C 
HETATM    3  N   UNL     1      39.800 -13.270   4.653  1.00  0.00    -0.325 N 
HETATM    4  H   UNL     1      39.077 -12.704   5.094  1.00  0.00     0.169 HD
HETATM    5  O   UNL     1      38.739 -12.577   2.823  1.00  0.00    -0.270 OA
BRANCH   3   6
HETATM    6  C   UNL     1      40.683 -13.896   5.551  1.00  0.00     0.037 A 
HETATM    7  C   UNL     1      41.844 -13.339   6.078  1.00  0.00     0.066 A 
HETATM    8  C   UNL     1      42.664 -14.057   6.962  1.00  0.00     0.070 A 
HETATM    9  C   UNL     1      42.315 -15.351   7.333  1.00  0.00     0.037 A 
HETATM   10  C   UNL     1      41.163 -15.929   6.806  1.00  0.00     0.005 A 
HETATM   11  C   UNL     1      40.358 -15.210   5.919  1.00  0.00     0.029 A 
BRANCH   8  12
HETATM   12  O   UNL     1      43.768 -13.369   7.387  1.00  0.00    -0.356 OA
HETATM   13  C   UNL     1      43.830 -11.986   7.054  1.00  0.00     0.210 C 
ENDBRANCH   8  12
ENDBRANCH   3   6
ENDBRANCH   1   2
BRANCH   1  14
HETATM   14  N   UNL     1      41.993 -13.158   2.415  1.00  0.00    -0.054 N 
HETATM   15  H   UNL     1      41.925 -12.228   1.986  1.00  0.00     0.278 HD
HETATM   16  H   UNL     1      42.134 -12.987   3.424  1.00  0.00     0.278 HD
BRANCH  14  17
HETATM   17  C   UNL     1      43.195 -13.865   1.912  1.00  0.00     0.272 C 
BRANCH  17  18
HETATM   18  C   UNL     1      43.185 -15.266   2.454  1.00  0.00    -0.033 A 
HETATM   19  C   UNL     1      43.435 -15.500   3.809  1.00  0.00     0.011 A 
HETATM   20  C   UNL     1      43.611 -16.806   4.282  1.00  0.00     0.030 A 
HETATM   21  C   UNL     1      43.555 -17.911   3.423  1.00  0.00     0.037 A 
HETATM   22  C   UNL     1      43.250 -17.666   2.076  1.00  0.00     0.030 A 
HETATM   23  C   UNL     1      43.073 -16.364   1.594  1.00  0.00     0.011 A 
BRANCH  21  24
HETATM   24  N   UNL     1      43.823 -19.230   3.881  1.00  0.00    -0.318 N 
HETATM   25  C   UNL     1      43.774 -20.400   3.102  1.00  0.00     0.224 C 
HETATM   26  O   UNL     1      43.559 -20.519   1.905  1.00  0.00    -0.273 OA
HETATM   27  C   UNL     1      43.942 -21.581   4.028  1.00  0.00     0.105 C 
HETATM   28  C   UNL     1      44.538 -20.965   5.278  1.00  0.00     0.029 C 
HETATM   29  C   UNL     1      43.974 -19.560   5.280  1.00  0.00     0.133 C 
ENDBRANCH  21  24
ENDBRANCH  17  18
ENDBRANCH  14  17
ENDBRANCH   1  14
BRANCH   1  30
HETATM   30  C   UNL     1      40.234 -13.773   0.852  1.00  0.00    -0.019 A 
HETATM   31  C   UNL     1      39.815 -14.931   0.170  1.00  0.00     0.010 A 
HETATM   32  C   UNL     1      39.503 -14.885  -1.188  1.00  0.00     0.001 A 
HETATM   33  C   UNL     1      39.621 -13.688  -1.890  1.00  0.00     0.000 A 
HETATM   34  C   UNL     1      40.049 -12.537  -1.234  1.00  0.00     0.001 A 
HETATM   35  C   UNL     1      40.361 -12.576   0.126  1.00  0.00     0.010 A 
ENDBRANCH   1  30
TORSDOF 8
ENDMDL
MODEL 4
REMARK VINA RESULT:      -8.0      2.503      5.705
REMARK  8 active torsions:
REMARK  status: ('A' for Active; 'I' for Inactive)
REMARK    1  A    between atoms: O_2  and  C_3 
REMARK    2  A    between atoms: C_5  and  N_6 
REMARK       I    between atoms: N_6  and  C_7 
REMARK    3  A    between atoms: C_7  and  C_8 
REMARK    4  A    between atoms: C_8  and  N_9 
REMARK    5  A    between atoms: C_8  and  C_25 
REMARK    6  A    between atoms: N_9  and  C_12 
REMARK    7  A    between atoms: C_12  and  C_13 
REMARK    8  A    between atoms: C_16  and  N_17 
ROOT
HETATM    1  C   UNL     1      41.880 -12.444   3.859  1.00  0.00     0.310 C 
ENDROOT
BRANCH   1   2
HETATM    2  C   UNL     1      42.489 -11.405   2.897  1.00  0.00     0.257 C 
HETATM    3  N   UNL     1      41.958 -11.041   1.703  1.00  0.00    -0.325 N 
HETATM    4  H   UNL     1      42.490 -10.278   1.289  1.00  0.00     0.169 HD
HETATM    5  O   UNL     1      43.504 -10.802   3.286  1.00  0.00    -0.270 OA
BRANCH   3   6
HETATM    6  C   UNL     1      40.865 -11.478   0.932  1.00  0.00     0.037 A 
HETATM    7  C   UNL     1      40.924 -12.355  -0.147  1.00  0.00     0.066 A 
HETATM    8  C   UNL     1      39.770 -12.719  -0.857  1.00  0.00     0.070 A 
HETATM    9  C   UNL     1      38.534 -12.203  -0.481  1.00  0.00     0.037 A 
HETATM   10  C   UNL     1      38.458 -11.314   0.588  1.00  0.00     0.005 A 
HETATM   11  C   UNL     1      39.614 -10.951   1.283  1.00  0.00     0.029 A 
BRANCH   8  12
HETATM   12  O   UNL     1      39.997 -13.587  -1.891  1.00  0.00    -0.356 OA
HETATM   13  C   UNL     1      39.046 -14.631  -2.072  1.00  0.00     0.210 C 
ENDBRANCH   8  12
ENDBRANCH   3   6
ENDBRANCH   1   2
BRANCH   1  14
HETATM   14  N   UNL     1      42.837 -12.638   5.023  1.00  0.00    -0.054 N 
HETATM   15  H   UNL     1      43.693 -13.103   4.701  1.00  0.00     0.278 HD
HETATM   16  H   UNL     1      43.126 -11.688   5.305  1.00  0.00     0.278 HD
BRANCH  14  17
HETATM   17  C   UNL     1      42.310 -13.319   6.230  1.00  0.00     0.272 C 
BRANCH  17  18
HETATM   18  C   UNL     1      42.676 -14.774   6.155  1.00  0.00    -0.033 A 
HETATM   19  C   UNL     1      44.012 -15.159   6.011  1.00  0.00     0.011 A 
HETATM   20  C   UNL     1      44.340 -16.495   5.753  1.00  0.00     0.030 A 
HETATM   21  C   UNL     1      43.354 -17.480   5.621  1.00  0.00     0.037 A 
HETATM   22  C   UNL     1      42.022 -17.091   5.820  1.00  0.00     0.030 A 
HETATM   23  C   UNL     1      41.683 -15.756   6.078  1.00  0.00     0.011 A 
BRANCH  21  24
HETATM   24  N   UNL     1      43.675 -18.820   5.270  1.00  0.00    -0.318 N 
HETATM   25  C   UNL     1      44.025 -19.277   3.987  1.00  0.00     0.224 C 
HETATM   26  O   UNL     1      44.180 -18.636   2.959  1.00  0.00    -0.273 OA
HETATM   27  C   UNL     1      44.098 -20.785   4.034  1.00  0.00     0.105 C 
HETATM   28  C   UNL     1      44.214 -21.084   5.516  1.00  0.00     0.029 C 
HETATM   29  C   UNL     1      43.470 -19.937   6.165  1.00  0.00     0.133 C 
ENDBRANCH  21  24
ENDBRANCH  17  18
ENDBRANCH  14  17
ENDBRANCH   1  14
BRANCH   1  30
HETATM   30  C   UNL     1      41.673 -13.817   3.242  1.00  0.00    -0.019 A 
HETATM   31  C   UNL     1      42.763 -14.471   2.636  1.00  0.00     0.010 A 
HETATM   32  C   UNL     1      42.588 -15.690   1.981  1.00  0.00     0.001 A 
HETATM   33  C   UNL     1      41.323 -16.264   1.905  1.00  0.00     0.000 A 
HETATM   34  C   UNL     1      40.232 -15.623   2.485  1.00  0.00     0.001 A 
HETATM   35  C   UNL     1      40.400 -14.405   3.144  1.00  0.00     0.010 A 
ENDBRANCH   1  30
TORSDOF 8
ENDMDL
MODEL 5
REMARK VINA RESULT:      -7.6      2.230      5.029
REMARK  8 active torsions:
REMARK  status: ('A' for Active; 'I' for Inactive)
REMARK    1  A    between atoms: O_2  and  C_3 
REMARK    2  A    between atoms: C_5  and  N_6 
REMARK       I    between atoms: N_6  and  C_7 
REMARK    3  A    between atoms: C_7  and  C_8 
REMARK    4  A    between atoms: C_8  and  N_9 
REMARK    5  A    between atoms: C_8  and  C_25 
REMARK    6  A    between atoms: N_9  and  C_12 
REMARK    7  A    between atoms: C_12  and  C_13 
REMARK    8  A    between atoms: C_16  and  N_17 
ROOT
HETATM    1  C   UNL     1      42.846 -11.600   6.415  1.00  0.00     0.310 C 
ENDROOT
BRANCH   1   2
HETATM    2  C   UNL     1      44.094 -11.463   5.519  1.00  0.00     0.257 C 
HETATM    3  N   UNL     1      44.105 -11.595   4.169  1.00  0.00    -0.325 N 
HETATM    4  H   UNL     1      45.025 -11.376   3.793  1.00  0.00     0.169 HD
HETATM    5  O   UNL     1      45.155 -11.131   6.076  1.00  0.00    -0.270 OA
BRANCH   3   6
HETATM    6  C   UNL     1      43.149 -11.960   3.203  1.00  0.00     0.037 A 
HETATM    7  C   UNL     1      42.863 -13.257   2.786  1.00  0.00     0.066 A 
HETATM    8  C   UNL     1      41.894 -13.512   1.803  1.00  0.00     0.070 A 
HETATM    9  C   UNL     1      41.193 -12.455   1.232  1.00  0.00     0.037 A 
HETATM   10  C   UNL     1      41.476 -11.150   1.629  1.00  0.00     0.005 A 
HETATM   11  C   UNL     1      42.449 -10.906   2.600  1.00  0.00     0.029 A 
BRANCH   8  12
HETATM   12  O   UNL     1      41.734 -14.838   1.504  1.00  0.00    -0.356 OA
HETATM   13  C   UNL     1      40.439 -15.245   1.073  1.00  0.00     0.210 C 
ENDBRANCH   8  12
ENDBRANCH   3   6
ENDBRANCH   1   2
BRANCH   1  14
HETATM   14  N   UNL     1      42.406 -13.053   6.405  1.00  0.00    -0.054 N 
HETATM   15  H   UNL     1      41.462 -13.138   6.800  1.00  0.00     0.278 HD
HETATM   16  H   UNL     1      42.313 -13.309   5.409  1.00  0.00     0.278 HD
BRANCH  14  17
HETATM   17  C   UNL     1      43.313 -14.043   7.035  1.00  0.00     0.272 C 
BRANCH  17  18
HETATM   18  C   UNL     1      43.489 -15.197   6.089  1.00  0.00    -0.033 A 
HETATM   19  C   UNL     1      42.484 -15.516   5.171  1.00  0.00     0.011 A 
HETATM   20  C   UNL     1      42.560 -16.696   4.420  1.00  0.00     0.030 A 
HETATM   21  C   UNL     1      43.626 -17.591   4.566  1.00  0.00     0.037 A 
HETATM   22  C   UNL     1      44.653 -17.233   5.451  1.00  0.00     0.030 A 
HETATM   23  C   UNL     1      44.586 -16.056   6.207  1.00  0.00     0.011 A 
BRANCH  21  24
HETATM   24  N   UNL     1      43.663 -18.832   3.874  1.00  0.00    -0.318 N 
HETATM   25  C   UNL     1      43.886 -20.095   4.452  1.00  0.00     0.224 C 
HETATM   26  O   UNL     1      44.028 -20.387   5.629  1.00  0.00    -0.273 OA
HETATM   27  C   UNL     1      44.028 -21.100   3.333  1.00  0.00     0.105 C 
HETATM   28  C   UNL     1      43.418 -20.387   2.143  1.00  0.00     0.029 C 
HETATM   29  C   UNL     1      43.687 -18.926   2.431  1.00  0.00     0.133 C 
ENDBRANCH  21  24
ENDBRANCH  17  18
ENDBRANCH  14  17
ENDBRANCH   1  14
BRANCH   1  30
HETATM   30  C   UNL     1      41.652 -10.787   5.944  1.00  0.00    -0.019 A 
HETATM   31  C   UNL     1      40.474 -11.455   5.558  1.00  0.00     0.010 A 
HETATM   32  C   UNL     1      39.392 -10.747   5.036  1.00  0.00     0.001 A 
HETATM   33  C   UNL     1      39.475  -9.367   4.876  1.00  0.00     0.000 A 
HETATM   34  C   UNL     1      40.638  -8.693   5.238  1.00  0.00     0.001 A 
HETATM   35  C   UNL     1      41.724  -9.395   5.763  1.00  0.00     0.010 A 
ENDBRANCH   1  30
TORSDOF 8
ENDMDL
MODEL 6
REMARK VINA RESULT:      -7.6      6.530     11.644
REMARK  8 active torsions:
REMARK  status: ('A' for Active; 'I' for Inactive)
REMARK    1  A    between atoms: O_2  and  C_3 
REMARK    2  A    between atoms: C_5  and  N_6 
REMARK       I    between atoms: N_6  and  C_7 
REMARK    3  A    between atoms: C_7  and  C_8 
REMARK    4  A    between atoms: C_8  and  N_9 
REMARK    5  A    between atoms: C_8  and  C_25 
REMARK    6  A    between atoms: N_9  and  C_12 
REMARK    7  A    between atoms: C_12  and  C_13 
REMARK    8  A    between atoms: C_16  and  N_17 
ROOT
HETATM    1  C   UNL     1      43.588  -9.097   9.280  1.00  0.00     0.310 C 
ENDROOT
BRANCH   1   2
HETATM    2  C   UNL     1      43.664  -7.567   9.098  1.00  0.00     0.257 C 
HETATM    3  N   UNL     1      42.699  -6.688   9.466  1.00  0.00    -0.325 N 
HETATM    4  H   UNL     1      43.012  -5.729   9.326  1.00  0.00     0.169 HD
HETATM    5  O   UNL     1      44.728  -7.104   8.650  1.00  0.00    -0.270 OA
BRANCH   3   6
HETATM    6  C   UNL     1      41.396  -6.808   9.982  1.00  0.00     0.037 A 
HETATM    7  C   UNL     1      40.458  -7.770   9.617  1.00  0.00     0.066 A 
HETATM    8  C   UNL     1      39.176  -7.794  10.188  1.00  0.00     0.070 A 
HETATM    9  C   UNL     1      38.826  -6.847  11.145  1.00  0.00     0.037 A 
HETATM   10  C   UNL     1      39.748  -5.871  11.513  1.00  0.00     0.005 A 
HETATM   11  C   UNL     1      41.018  -5.848  10.932  1.00  0.00     0.029 A 
BRANCH   8  12
HETATM   12  O   UNL     1      38.373  -8.800   9.721  1.00  0.00    -0.356 OA
HETATM   13  C   UNL     1      39.005 -10.043   9.433  1.00  0.00     0.210 C 
ENDBRANCH   8  12
ENDBRANCH   3   6
ENDBRANCH   1   2
BRANCH   1  14
HETATM   14  N   UNL     1      44.305  -9.463  10.568  1.00  0.00    -0.054 N 
HETATM   15  H   UNL     1      45.206  -9.908  10.354  1.00  0.00     0.278 HD
HETATM   16  H   UNL     1      44.541  -8.565  11.019  1.00  0.00     0.278 HD
BRANCH  14  17
HETATM   17  C   UNL     1      43.557 -10.275  11.556  1.00  0.00     0.272 C 
BRANCH  17  18
HETATM   18  C   UNL     1      42.717  -9.352  12.393  1.00  0.00    -0.033 A 
HETATM   19  C   UNL     1      43.273  -8.193  12.939  1.00  0.00     0.011 A 
HETATM   20  C   UNL     1      42.553  -7.430  13.867  1.00  0.00     0.030 A 
HETATM   21  C   UNL     1      41.269  -7.803  14.284  1.00  0.00     0.037 A 
HETATM   22  C   UNL     1      40.702  -8.938  13.687  1.00  0.00     0.030 A 
HETATM   23  C   UNL     1      41.414  -9.707  12.759  1.00  0.00     0.011 A 
BRANCH  21  24
HETATM   24  N   UNL     1      40.570  -7.084  15.291  1.00  0.00    -0.318 N 
HETATM   25  C   UNL     1      40.794  -7.174  16.677  1.00  0.00     0.224 C 
HETATM   26  O   UNL     1      41.642  -7.815  17.278  1.00  0.00    -0.273 OA
HETATM   27  C   UNL     1      39.711  -6.388  17.375  1.00  0.00     0.105 C 
HETATM   28  C   UNL     1      39.160  -5.499  16.278  1.00  0.00     0.029 C 
HETATM   29  C   UNL     1      39.375  -6.316  15.022  1.00  0.00     0.133 C 
ENDBRANCH  21  24
ENDBRANCH  17  18
ENDBRANCH  14  17
ENDBRANCH   1  14
BRANCH   1  30
HETATM   30  C   UNL     1      44.263  -9.889   8.173  1.00  0.00    -0.019 A 
HETATM   31  C   UNL     1      43.478 -10.428   7.136  1.00  0.00     0.010 A 
HETATM   32  C   UNL     1      44.052 -11.236   6.155  1.00  0.00     0.001 A 
HETATM   33  C   UNL     1      45.411 -11.531   6.203  1.00  0.00     0.000 A 
HETATM   34  C   UNL     1      46.199 -11.019   7.231  1.00  0.00     0.001 A 
HETATM   35  C   UNL     1      45.631 -10.208   8.215  1.00  0.00     0.010 A 
ENDBRANCH   1  30
TORSDOF 8
ENDMDL
MODEL 7
REMARK VINA RESULT:      -7.5      3.109      6.326
REMARK  8 active torsions:
REMARK  status: ('A' for Active; 'I' for Inactive)
REMARK    1  A    between atoms: O_2  and  C_3 
REMARK    2  A    between atoms: C_5  and  N_6 
REMARK       I    between atoms: N_6  and  C_7 
REMARK    3  A    between atoms: C_7  and  C_8 
REMARK    4  A    between atoms: C_8  and  N_9 
REMARK    5  A    between atoms: C_8  and  C_25 
REMARK    6  A    between atoms: N_9  and  C_12 
REMARK    7  A    between atoms: C_12  and  C_13 
REMARK    8  A    between atoms: C_16  and  N_17 
ROOT
HETATM    1  C   UNL     1      43.002 -16.066   4.182  1.00  0.00     0.310 C 
ENDROOT
BRANCH   1   2
HETATM    2  C   UNL     1      42.069 -15.900   5.399  1.00  0.00     0.257 C 
HETATM    3  N   UNL     1      41.931 -14.764   6.127  1.00  0.00    -0.325 N 
HETATM    4  H   UNL     1      41.195 -14.869   6.823  1.00  0.00     0.169 HD
HETATM    5  O   UNL     1      41.334 -16.862   5.682  1.00  0.00    -0.270 OA
BRANCH   3   6
HETATM    6  C   UNL     1      42.564 -13.507   6.130  1.00  0.00     0.037 A 
HETATM    7  C   UNL     1      43.573 -13.103   6.999  1.00  0.00     0.066 A 
HETATM    8  C   UNL     1      44.131 -11.818   6.924  1.00  0.00     0.070 A 
HETATM    9  C   UNL     1      43.680 -10.922   5.960  1.00  0.00     0.037 A 
HETATM   10  C   UNL     1      42.661 -11.306   5.091  1.00  0.00     0.005 A 
HETATM   11  C   UNL     1      42.105 -12.584   5.179  1.00  0.00     0.029 A 
BRANCH   8  12
HETATM   12  O   UNL     1      45.110 -11.577   7.850  1.00  0.00    -0.356 OA
HETATM   13  C   UNL     1      46.164 -10.704   7.455  1.00  0.00     0.210 C 
ENDBRANCH   8  12
ENDBRANCH   3   6
ENDBRANCH   1   2
BRANCH   1  14
HETATM   14  N   UNL     1      42.265 -15.587   2.944  1.00  0.00    -0.054 N 
HETATM   15  H   UNL     1      42.135 -16.366   2.288  1.00  0.00     0.278 HD
HETATM   16  H   UNL     1      41.317 -15.335   3.266  1.00  0.00     0.278 HD
BRANCH  14  17
HETATM   17  C   UNL     1      42.821 -14.410   2.234  1.00  0.00     0.272 C 
BRANCH  17  18
HETATM   18  C   UNL     1      41.718 -13.769   1.440  1.00  0.00    -0.033 A 
HETATM   19  C   UNL     1      40.929 -14.537   0.580  1.00  0.00     0.011 A 
HETATM   20  C   UNL     1      40.029 -13.919  -0.297  1.00  0.00     0.030 A 
HETATM   21  C   UNL     1      39.897 -12.527  -0.352  1.00  0.00     0.037 A 
HETATM   22  C   UNL     1      40.655 -11.771   0.553  1.00  0.00     0.030 A 
HETATM   23  C   UNL     1      41.558 -12.379   1.434  1.00  0.00     0.011 A 
BRANCH  21  24
HETATM   24  N   UNL     1      39.053 -11.891  -1.302  1.00  0.00    -0.318 N 
HETATM   25  C   UNL     1      39.453 -11.373  -2.547  1.00  0.00     0.224 C 
HETATM   26  O   UNL     1      40.552 -11.413  -3.079  1.00  0.00    -0.273 OA
HETATM   27  C   UNL     1      38.280 -10.627  -3.139  1.00  0.00     0.105 C 
HETATM   28  C   UNL     1      37.096 -11.157  -2.355  1.00  0.00     0.029 C 
HETATM   29  C   UNL     1      37.692 -11.501  -1.007  1.00  0.00     0.133 C 
ENDBRANCH  21  24
ENDBRANCH  17  18
ENDBRANCH  14  17
ENDBRANCH   1  14
BRANCH   1  30
HETATM   30  C   UNL     1      43.414 -17.502   3.907  1.00  0.00    -0.019 A 
HETATM   31  C   UNL     1      43.113 -18.077   2.657  1.00  0.00     0.010 A 
HETATM   32  C   UNL     1      43.395 -19.420   2.404  1.00  0.00     0.001 A 
HETATM   33  C   UNL     1      43.965 -20.211   3.397  1.00  0.00     0.000 A 
HETATM   34  C   UNL     1      44.255 -19.662   4.644  1.00  0.00     0.001 A 
HETATM   35  C   UNL     1      43.977 -18.319   4.903  1.00  0.00     0.010 A 
ENDBRANCH   1  30
TORSDOF 8
ENDMDL
MODEL 8
REMARK VINA RESULT:      -7.4      2.128      7.681
REMARK  8 active torsions:
REMARK  status: ('A' for Active; 'I' for Inactive)
REMARK    1  A    between atoms: O_2  and  C_3 
REMARK    2  A    between atoms: C_5  and  N_6 
REMARK       I    between atoms: N_6  and  C_7 
REMARK    3  A    between atoms: C_7  and  C_8 
REMARK    4  A    between atoms: C_8  and  N_9 
REMARK    5  A    between atoms: C_8  and  C_25 
REMARK    6  A    between atoms: N_9  and  C_12 
REMARK    7  A    between atoms: C_12  and  C_13 
REMARK    8  A    between atoms: C_16  and  N_17 
ROOT
HETATM    1  C   UNL     1      41.667 -13.507   2.558  1.00  0.00     0.310 C 
ENDROOT
BRANCH   1   2
HETATM    2  C   UNL     1      40.689 -13.824   3.707  1.00  0.00     0.257 C 
HETATM    3  N   UNL     1      40.995 -14.538   4.818  1.00  0.00    -0.325 N 
HETATM    4  H   UNL     1      40.215 -14.540   5.473  1.00  0.00     0.169 HD
HETATM    5  O   UNL     1      39.555 -13.317   3.639  1.00  0.00    -0.270 OA
BRANCH   3   6
HETATM    6  C   UNL     1      42.123 -15.258   5.252  1.00  0.00     0.037 A 
HETATM    7  C   UNL     1      42.452 -16.560   4.888  1.00  0.00     0.066 A 
HETATM    8  C   UNL     1      43.600 -17.192   5.389  1.00  0.00     0.070 A 
HETATM    9  C   UNL     1      44.440 -16.511   6.264  1.00  0.00     0.037 A 
HETATM   10  C   UNL     1      44.119 -15.211   6.649  1.00  0.00     0.005 A 
HETATM   11  C   UNL     1      42.969 -14.594   6.153  1.00  0.00     0.029 A 
BRANCH   8  12
HETATM   12  O   UNL     1      43.780 -18.471   4.935  1.00  0.00    -0.356 OA
HETATM   13  C   UNL     1      44.099 -18.623   3.556  1.00  0.00     0.210 C 
ENDBRANCH   8  12
ENDBRANCH   3   6
ENDBRANCH   1   2
BRANCH   1  14
HETATM   14  N   UNL     1      42.338 -12.176   2.852  1.00  0.00    -0.054 N 
HETATM   15  H   UNL     1      42.213 -11.537   2.058  1.00  0.00     0.278 HD
HETATM   16  H   UNL     1      41.800 -11.761   3.630  1.00  0.00     0.278 HD
BRANCH  14  17
HETATM   17  C   UNL     1      43.762 -12.208   3.262  1.00  0.00     0.272 C 
BRANCH  17  18
HETATM   18  C   UNL     1      43.895 -11.489   4.574  1.00  0.00    -0.033 A 
HETATM   19  C   UNL     1      45.093 -11.548   5.292  1.00  0.00     0.011 A 
HETATM   20  C   UNL     1      45.163 -11.040   6.595  1.00  0.00     0.030 A 
HETATM   21  C   UNL     1      44.048 -10.471   7.222  1.00  0.00     0.037 A 
HETATM   22  C   UNL     1      42.868 -10.370   6.472  1.00  0.00     0.030 A 
HETATM   23  C   UNL     1      42.787 -10.876   5.168  1.00  0.00     0.011 A 
BRANCH  21  24
HETATM   24  N   UNL     1      44.089 -10.037   8.575  1.00  0.00    -0.318 N 
HETATM   25  C   UNL     1      44.707  -8.865   9.048  1.00  0.00     0.224 C 
HETATM   26  O   UNL     1      45.262  -7.980   8.416  1.00  0.00    -0.273 OA
HETATM   27  C   UNL     1      44.669  -8.897  10.557  1.00  0.00     0.105 C 
HETATM   28  C   UNL     1      43.598  -9.925  10.860  1.00  0.00     0.029 C 
HETATM   29  C   UNL     1      43.676 -10.871   9.681  1.00  0.00     0.133 C 
ENDBRANCH  21  24
ENDBRANCH  17  18
ENDBRANCH  14  17
ENDBRANCH   1  14
BRANCH   1  30
HETATM   30  C   UNL     1      41.004 -13.362   1.199  1.00  0.00    -0.019 A 
HETATM   31  C   UNL     1      40.804 -12.075   0.665  1.00  0.00     0.010 A 
HETATM   32  C   UNL     1      40.117 -11.901  -0.537  1.00  0.00     0.001 A 
HETATM   33  C   UNL     1      39.605 -13.005  -1.213  1.00  0.00     0.000 A 
HETATM   34  C   UNL     1      39.780 -14.283  -0.690  1.00  0.00     0.001 A 
HETATM   35  C   UNL     1      40.468 -14.464   0.511  1.00  0.00     0.010 A 
ENDBRANCH   1  30
TORSDOF 8
ENDMDL
MODEL 9
REMARK VINA RESULT:      -7.4      3.170      7.742
REMARK  8 active torsions:
REMARK  status: ('A' for Active; 'I' for Inactive)
REMARK    1  A    between atoms: O_2  and  C_3 
REMARK    2  A    between atoms: C_5  and  N_6 
REMARK       I    between atoms: N_6  and  C_7 
REMARK    3  A    between atoms: C_7  and  C_8 
REMARK    4  A    between atoms: C_8  and  N_9 
REMARK    5  A    between atoms: C_8  and  C_25 
REMARK    6  A    between atoms: N_9  and  C_12 
REMARK    7  A    between atoms: C_12  and  C_13 
REMARK    8  A    between atoms: C_16  and  N_17 
ROOT
HETATM    1  C   UNL     1      42.097 -15.589   3.856  1.00  0.00     0.310 C 
ENDROOT
BRANCH   1   2
HETATM    2  C   UNL     1      43.064 -15.708   2.661  1.00  0.00     0.257 C 
HETATM    3  N   UNL     1      43.654 -16.856   2.245  1.00  0.00    -0.325 N 
HETATM    4  H   UNL     1      44.179 -16.702   1.387  1.00  0.00     0.169 HD
HETATM    5  O   UNL     1      43.254 -14.682   1.984  1.00  0.00    -0.270 OA
BRANCH   3   6
HETATM    6  C   UNL     1      43.698 -18.177   2.728  1.00  0.00     0.037 A 
HETATM    7  C   UNL     1      43.950 -18.558   4.043  1.00  0.00     0.066 A 
HETATM    8  C   UNL     1      43.983 -19.910   4.419  1.00  0.00     0.070 A 
HETATM    9  C   UNL     1      43.753 -20.899   3.468  1.00  0.00     0.037 A 
HETATM   10  C   UNL     1      43.511 -20.535   2.145  1.00  0.00     0.005 A 
HETATM   11  C   UNL     1      43.490 -19.188   1.779  1.00  0.00     0.029 A 
BRANCH   8  12
HETATM   12  O   UNL     1      44.245 -20.117   5.746  1.00  0.00    -0.356 OA
HETATM   13  C   UNL     1      43.388 -19.466   6.678  1.00  0.00     0.210 C 
ENDBRANCH   8  12
ENDBRANCH   3   6
ENDBRANCH   1   2
BRANCH   1  14
HETATM   14  N   UNL     1      40.801 -14.969   3.365  1.00  0.00    -0.054 N 
HETATM   15  H   UNL     1      40.152 -14.841   4.149  1.00  0.00     0.278 HD
HETATM   16  H   UNL     1      41.050 -14.016   3.053  1.00  0.00     0.278 HD
BRANCH  14  17
HETATM   17  C   UNL     1      40.111 -15.638   2.236  1.00  0.00     0.272 C 
BRANCH  17  18
HETATM   18  C   UNL     1      39.853 -14.619   1.163  1.00  0.00    -0.033 A 
HETATM   19  C   UNL     1      39.830 -15.000  -0.181  1.00  0.00     0.011 A 
HETATM   20  C   UNL     1      39.777 -14.032  -1.191  1.00  0.00     0.030 A 
HETATM   21  C   UNL     1      39.755 -12.664  -0.896  1.00  0.00     0.037 A 
HETATM   22  C   UNL     1      39.724 -12.297   0.458  1.00  0.00     0.030 A 
HETATM   23  C   UNL     1      39.778 -13.258   1.475  1.00  0.00     0.011 A 
BRANCH  21  24
HETATM   24  N   UNL     1      39.793 -11.676  -1.917  1.00  0.00    -0.318 N 
HETATM   25  C   UNL     1      38.693 -10.943  -2.397  1.00  0.00     0.224 C 
HETATM   26  O   UNL     1      37.534 -10.955  -2.013  1.00  0.00    -0.273 OA
HETATM   27  C   UNL     1      39.152 -10.149  -3.597  1.00  0.00     0.105 C 
HETATM   28  C   UNL     1      40.662 -10.146  -3.459  1.00  0.00     0.029 C 
HETATM   29  C   UNL     1      40.953 -11.451  -2.750  1.00  0.00     0.133 C 
ENDBRANCH  21  24
ENDBRANCH  17  18
ENDBRANCH  14  17
ENDBRANCH   1  14
BRANCH   1  30
HETATM   30  C   UNL     1      42.601 -14.696   4.977  1.00  0.00    -0.019 A 
HETATM   31  C   UNL     1      42.329 -13.315   4.932  1.00  0.00     0.010 A 
HETATM   32  C   UNL     1      42.854 -12.454   5.896  1.00  0.00     0.001 A 
HETATM   33  C   UNL     1      43.670 -12.954   6.906  1.00  0.00     0.000 A 
HETATM   34  C   UNL     1      43.961 -14.314   6.956  1.00  0.00     0.001 A 
HETATM   35  C   UNL     1      43.438 -15.181   5.997  1.00  0.00     0.010 A 
ENDBRANCH   1  30
TORSDOF 8
ENDMDL
MODEL 10
REMARK VINA RESULT:      -7.3      7.084     12.318
REMARK  8 active torsions:
REMARK  status: ('A' for Active; 'I' for Inactive)
REMARK    1  A    between atoms: O_2  and  C_3 
REMARK    2  A    between atoms: C_5  and  N_6 
REMARK       I    between atoms: N_6  and  C_7 
REMARK    3  A    between atoms: C_7  and  C_8 
REMARK    4  A    between atoms: C_8  and  N_9 
REMARK    5  A    between atoms: C_8  and  C_25 
REMARK    6  A    between atoms: N_9  and  C_12 
REMARK    7  A    between atoms: C_12  and  C_13 
REMARK    8  A    between atoms: C_16  and  N_17 
ROOT
HETATM    1  C   UNL     1      42.952  -8.660   9.341  1.00  0.00     0.310 C 
ENDROOT
BRANCH   1   2
HETATM    2  C   UNL     1      42.352  -7.441   8.611  1.00  0.00     0.257 C 
HETATM    3  N   UNL     1      41.439  -6.588   9.138  1.00  0.00    -0.325 N 
HETATM    4  H   UNL     1      41.259  -5.813   8.502  1.00  0.00     0.169 HD
HETATM    5  O   UNL     1      42.801  -7.182   7.481  1.00  0.00    -0.270 OA
BRANCH   3   6
HETATM    6  C   UNL     1      40.705  -6.541  10.338  1.00  0.00     0.037 A 
HETATM    7  C   UNL     1      40.901  -5.641  11.381  1.00  0.00     0.066 A 
HETATM    8  C   UNL     1      40.117  -5.687  12.544  1.00  0.00     0.070 A 
HETATM    9  C   UNL     1      39.115  -6.645  12.666  1.00  0.00     0.037 A 
HETATM   10  C   UNL     1      38.914  -7.561  11.637  1.00  0.00     0.005 A 
HETATM   11  C   UNL     1      39.705  -7.513  10.487  1.00  0.00     0.029 A 
BRANCH   8  12
HETATM   12  O   UNL     1      40.437  -4.736  13.475  1.00  0.00    -0.356 OA
HETATM   13  C   UNL     1      39.750  -3.493  13.383  1.00  0.00     0.210 C 
ENDBRANCH   8  12
ENDBRANCH   3   6
ENDBRANCH   1   2
BRANCH   1  14
HETATM   14  N   UNL     1      43.482  -8.200  10.688  1.00  0.00    -0.054 N 
HETATM   15  H   UNL     1      44.418  -7.794  10.578  1.00  0.00     0.278 HD
HETATM   16  H   UNL     1      42.872  -7.416  10.972  1.00  0.00     0.278 HD
BRANCH  14  17
HETATM   17  C   UNL     1      43.480  -9.187  11.793  1.00  0.00     0.272 C 
BRANCH  17  18
HETATM   18  C   UNL     1      42.803  -8.569  12.983  1.00  0.00    -0.033 A 
HETATM   19  C   UNL     1      43.343  -7.433  13.591  1.00  0.00     0.011 A 
HETATM   20  C   UNL     1      42.825  -6.965  14.805  1.00  0.00     0.030 A 
HETATM   21  C   UNL     1      41.768  -7.616  15.451  1.00  0.00     0.037 A 
HETATM   22  C   UNL     1      41.200  -8.723  14.805  1.00  0.00     0.030 A 
HETATM   23  C   UNL     1      41.711  -9.199  13.590  1.00  0.00     0.011 A 
BRANCH  21  24
HETATM   24  N   UNL     1      41.299  -7.200  16.727  1.00  0.00    -0.318 N 
HETATM   25  C   UNL     1      40.102  -6.506  16.980  1.00  0.00     0.224 C 
HETATM   26  O   UNL     1      39.221  -6.182  16.199  1.00  0.00    -0.273 OA
HETATM   27  C   UNL     1      40.096  -6.106  18.437  1.00  0.00     0.105 C 
HETATM   28  C   UNL     1      41.141  -7.015  19.054  1.00  0.00     0.029 C 
HETATM   29  C   UNL     1      42.114  -7.253  17.920  1.00  0.00     0.133 C 
ENDBRANCH  21  24
ENDBRANCH  17  18
ENDBRANCH  14  17
ENDBRANCH   1  14
BRANCH   1  30
HETATM   30  C   UNL     1      44.123  -9.302   8.617  1.00  0.00    -0.019 A 
HETATM   31  C   UNL     1      43.953 -10.565   8.018  1.00  0.00     0.010 A 
HETATM   32  C   UNL     1      45.031 -11.223   7.426  1.00  0.00     0.001 A 
HETATM   33  C   UNL     1      46.295 -10.641   7.437  1.00  0.00     0.000 A 
HETATM   34  C   UNL     1      46.483  -9.400   8.039  1.00  0.00     0.001 A 
HETATM   35  C   UNL     1      45.409  -8.734   8.631  1.00  0.00     0.010 A 
ENDBRANCH   1  30
TORSDOF 8
ENDMDL
