MODEL 1
REMARK VINA RESULT:      -8.4      0.000      0.000
REMARK  2 active torsions:
REMARK  status: ('A' for Active; 'I' for Inactive)
REMARK    1  A    between atoms: C_9  and  N_10 
REMARK    2  A    between atoms: N_13  and  C_15 
ROOT
HETATM    1  N   UNL     1      41.195 -14.775   2.398  1.00  0.00    -0.376 N 
HETATM    2  C   UNL     1      39.938 -15.382   1.922  1.00  0.00     0.150 C 
HETATM    3  C   UNL     1      39.877 -15.338   0.382  1.00  0.00     0.255 C 
HETATM    4  N   UNL     1      40.049 -13.907  -0.176  1.00  0.00    -0.064 N 
HETATM    5  H   UNL     1      39.237 -13.363   0.138  1.00  0.00     0.280 HD
HETATM    6  C   UNL     1      41.295 -13.249   0.451  1.00  0.00     0.255 C 
HETATM    7  C   UNL     1      41.306 -13.360   1.987  1.00  0.00     0.150 C 
ENDROOT
BRANCH   1   8
HETATM    8  C   UNL     1      41.798 -15.209   3.576  1.00  0.00     0.053 A 
HETATM    9  C   UNL     1      42.666 -16.411   3.585  1.00  0.00     0.013 A 
HETATM   10  C   UNL     1      42.962 -17.288   2.547  1.00  0.00     0.015 A 
HETATM   11  C   UNL     1      43.192 -16.691   4.846  1.00  0.00     0.075 A 
HETATM   12  C   UNL     1      43.799 -18.387   2.792  1.00  0.00     0.001 A 
HETATM   13  C   UNL     1      44.324 -18.624   4.071  1.00  0.00     0.002 A 
HETATM   14  C   UNL     1      44.013 -17.770   5.127  1.00  0.00     0.025 A 
HETATM   15  S   UNL     1      42.603 -15.531   6.001  1.00  0.00     0.200 S 
HETATM   16  O   UNL     1      43.714 -14.705   6.420  1.00  0.00    -0.218 OA
HETATM   17  O   UNL     1      41.723 -16.211   6.925  1.00  0.00    -0.218 OA
HETATM   18  C   UNL     1      41.665 -14.689   4.810  1.00  0.00     0.144 A 
ENDBRANCH   1   8
BRANCH   4  19
HETATM   19  C   UNL     1      40.091 -13.897  -1.717  1.00  0.00     0.188 C 
HETATM   20  C   UNL     1      38.720 -14.254  -2.317  1.00  0.00     0.033 C 
HETATM   21  C   UNL     1      37.657 -13.188  -2.052  1.00  0.00     0.002 C 
HETATM   22  C   UNL     1      38.109 -11.813  -2.539  1.00  0.00     0.000 C 
HETATM   23  C   UNL     1      39.482 -11.431  -1.994  1.00  0.00     0.002 C 
HETATM   24  C   UNL     1      40.515 -12.524  -2.268  1.00  0.00     0.033 C 
ENDBRANCH   4  19
TORSDOF 2
ENDMDL
MODEL 2
REMARK VINA RESULT:      -8.3      1.275      2.161
REMARK  2 active torsions:
REMARK  status: ('A' for Active; 'I' for Inactive)
REMARK    1  A    between atoms: C_9  and  N_10 
REMARK    2  A    between atoms: N_13  and  C_15 
ROOT
HETATM    1  N   UNL     1      42.214 -15.396   2.567  1.00  0.00    -0.376 N 
HETATM    2  C   UNL     1      42.940 -14.285   1.926  1.00  0.00     0.150 C 
HETATM    3  C   UNL     1      41.942 -13.272   1.330  1.00  0.00     0.255 C 
HETATM    4  N   UNL     1      40.950 -13.929   0.344  1.00  0.00    -0.064 N 
HETATM    5  H   UNL     1      41.499 -14.263  -0.457  1.00  0.00     0.280 HD
HETATM    6  C   UNL     1      40.312 -15.173   0.996  1.00  0.00     0.255 C 
HETATM    7  C   UNL     1      41.366 -16.122   1.599  1.00  0.00     0.150 C 
ENDROOT
BRANCH   1   8
HETATM    8  C   UNL     1      42.754 -16.067   3.662  1.00  0.00     0.053 A 
HETATM    9  C   UNL     1      43.196 -17.477   3.544  1.00  0.00     0.013 A 
HETATM   10  C   UNL     1      43.105 -18.338   2.455  1.00  0.00     0.015 A 
HETATM   11  C   UNL     1      43.719 -17.984   4.733  1.00  0.00     0.075 A 
HETATM   12  C   UNL     1      43.571 -19.655   2.577  1.00  0.00     0.001 A 
HETATM   13  C   UNL     1      44.108 -20.121   3.787  1.00  0.00     0.002 A 
HETATM   14  C   UNL     1      44.180 -19.279   4.894  1.00  0.00     0.025 A 
HETATM   15  S   UNL     1      43.634 -16.770   5.977  1.00  0.00     0.200 S 
HETATM   16  O   UNL     1      44.982 -16.358   6.301  1.00  0.00    -0.218 OA
HETATM   17  O   UNL     1      42.671 -17.199   6.969  1.00  0.00    -0.218 OA
HETATM   18  C   UNL     1      42.904 -15.608   4.917  1.00  0.00     0.144 A 
ENDBRANCH   1   8
BRANCH   4  19
HETATM   19  C   UNL     1      39.895 -12.924  -0.159  1.00  0.00     0.188 C 
HETATM   20  C   UNL     1      40.553 -11.631  -0.673  1.00  0.00     0.033 C 
HETATM   21  C   UNL     1      41.374 -11.845  -1.944  1.00  0.00     0.002 C 
HETATM   22  C   UNL     1      40.541 -12.493  -3.048  1.00  0.00     0.000 C 
HETATM   23  C   UNL     1      39.841 -13.763  -2.572  1.00  0.00     0.002 C 
HETATM   24  C   UNL     1      39.040 -13.513  -1.295  1.00  0.00     0.033 C 
ENDBRANCH   4  19
TORSDOF 2
ENDMDL
MODEL 3
REMARK VINA RESULT:      -7.8      2.076      2.849
REMARK  2 active torsions:
REMARK  status: ('A' for Active; 'I' for Inactive)
REMARK    1  A    between atoms: C_9  and  N_10 
REMARK    2  A    between atoms: N_13  and  C_15 
ROOT
HETATM    1  N   UNL     1      40.479 -14.566   2.690  1.00  0.00    -0.376 N 
HETATM    2  C   UNL     1      40.346 -15.547   1.598  1.00  0.00     0.150 C 
HETATM    3  C   UNL     1      40.523 -14.852   0.233  1.00  0.00     0.255 C 
HETATM    4  N   UNL     1      39.544 -13.671   0.041  1.00  0.00    -0.064 N 
HETATM    5  H   UNL     1      38.597 -14.066   0.017  1.00  0.00     0.280 HD
HETATM    6  C   UNL     1      39.606 -12.737   1.267  1.00  0.00     0.255 C 
HETATM    7  C   UNL     1      39.456 -13.504   2.595  1.00  0.00     0.150 C 
ENDROOT
BRANCH   1   8
HETATM    8  C   UNL     1      40.981 -14.942   3.934  1.00  0.00     0.053 A 
HETATM    9  C   UNL     1      41.966 -14.091   4.643  1.00  0.00     0.013 A 
HETATM   10  C   UNL     1      42.571 -12.911   4.222  1.00  0.00     0.015 A 
HETATM   11  C   UNL     1      42.349 -14.616   5.876  1.00  0.00     0.075 A 
HETATM   12  C   UNL     1      43.505 -12.280   5.057  1.00  0.00     0.001 A 
HETATM   13  C   UNL     1      43.849 -12.832   6.300  1.00  0.00     0.002 A 
HETATM   14  C   UNL     1      43.272 -14.027   6.723  1.00  0.00     0.025 A 
HETATM   15  S   UNL     1      41.549 -16.139   6.142  1.00  0.00     0.200 S 
HETATM   16  O   UNL     1      40.602 -15.971   7.222  1.00  0.00    -0.218 OA
HETATM   17  O   UNL     1      42.544 -17.189   6.109  1.00  0.00    -0.218 OA
HETATM   18  C   UNL     1      40.721 -16.070   4.620  1.00  0.00     0.144 A 
ENDBRANCH   1   8
BRANCH   4  19
HETATM   19  C   UNL     1      39.807 -12.922  -1.281  1.00  0.00     0.188 C 
HETATM   20  C   UNL     1      40.140 -13.900  -2.422  1.00  0.00     0.033 C 
HETATM   21  C   UNL     1      38.955 -14.778  -2.820  1.00  0.00     0.002 C 
HETATM   22  C   UNL     1      37.731 -13.939  -3.180  1.00  0.00     0.000 C 
HETATM   23  C   UNL     1      37.382 -12.930  -2.089  1.00  0.00     0.002 C 
HETATM   24  C   UNL     1      38.594 -12.078  -1.710  1.00  0.00     0.033 C 
ENDBRANCH   4  19
TORSDOF 2
ENDMDL
MODEL 4
REMARK VINA RESULT:      -7.8      4.934      7.647
REMARK  2 active torsions:
REMARK  status: ('A' for Active; 'I' for Inactive)
REMARK    1  A    between atoms: C_9  and  N_10 
REMARK    2  A    between atoms: N_13  and  C_15 
ROOT
HETATM    1  N   UNL     1      43.708 -11.921   6.207  1.00  0.00    -0.376 N 
HETATM    2  C   UNL     1      43.962 -11.739   4.766  1.00  0.00     0.150 C 
HETATM    3  C   UNL     1      42.942 -12.548   3.940  1.00  0.00     0.255 C 
HETATM    4  N   UNL     1      42.931 -14.047   4.318  1.00  0.00    -0.064 N 
HETATM    5  H   UNL     1      43.848 -14.429   4.056  1.00  0.00     0.280 HD
HETATM    6  C   UNL     1      42.807 -14.199   5.848  1.00  0.00     0.255 C 
HETATM    7  C   UNL     1      43.834 -13.338   6.607  1.00  0.00     0.150 C 
ENDROOT
BRANCH   1   8
HETATM    8  C   UNL     1      44.002 -10.910   7.119  1.00  0.00     0.053 A 
HETATM    9  C   UNL     1      42.946  -9.979   7.584  1.00  0.00     0.013 A 
HETATM   10  C   UNL     1      41.614  -9.897   7.194  1.00  0.00     0.015 A 
HETATM   11  C   UNL     1      43.416  -9.039   8.501  1.00  0.00     0.075 A 
HETATM   12  C   UNL     1      40.791  -8.909   7.755  1.00  0.00     0.001 A 
HETATM   13  C   UNL     1      41.298  -7.993   8.690  1.00  0.00     0.002 A 
HETATM   14  C   UNL     1      42.638  -8.046   9.069  1.00  0.00     0.025 A 
HETATM   15  S   UNL     1      45.122  -9.267   8.755  1.00  0.00     0.200 S 
HETATM   16  O   UNL     1      45.320  -9.746  10.106  1.00  0.00    -0.218 OA
HETATM   17  O   UNL     1      45.823  -8.128   8.202  1.00  0.00    -0.218 OA
HETATM   18  C   UNL     1      45.200 -10.597   7.645  1.00  0.00     0.144 A 
ENDBRANCH   1   8
BRANCH   4  19
HETATM   19  C   UNL     1      41.833 -14.819   3.559  1.00  0.00     0.188 C 
HETATM   20  C   UNL     1      42.098 -14.823   2.043  1.00  0.00     0.033 C 
HETATM   21  C   UNL     1      43.336 -15.631   1.656  1.00  0.00     0.002 C 
HETATM   22  C   UNL     1      43.261 -17.061   2.187  1.00  0.00     0.000 C 
HETATM   23  C   UNL     1      42.966 -17.106   3.684  1.00  0.00     0.002 C 
HETATM   24  C   UNL     1      41.729 -16.279   4.034  1.00  0.00     0.033 C 
ENDBRANCH   4  19
TORSDOF 2
ENDMDL
MODEL 5
REMARK VINA RESULT:      -7.8      4.840      7.111
REMARK  2 active torsions:
REMARK  status: ('A' for Active; 'I' for Inactive)
REMARK    1  A    between atoms: C_9  and  N_10 
REMARK    2  A    between atoms: N_13  and  C_15 
ROOT
HETATM    1  N   UNL     1      42.623 -11.838   5.706  1.00  0.00    -0.376 N 
HETATM    2  C   UNL     1      43.125 -11.725   4.324  1.00  0.00     0.150 C 
HETATM    3  C   UNL     1      42.340 -12.672   3.394  1.00  0.00     0.255 C 
HETATM    4  N   UNL     1      42.373 -14.139   3.880  1.00  0.00    -0.064 N 
HETATM    5  H   UNL     1      43.348 -14.454   3.817  1.00  0.00     0.280 HD
HETATM    6  C   UNL     1      41.978 -14.205   5.369  1.00  0.00     0.255 C 
HETATM    7  C   UNL     1      42.778 -13.211   6.231  1.00  0.00     0.150 C 
ENDROOT
BRANCH   1   8
HETATM    8  C   UNL     1      42.665 -10.749   6.574  1.00  0.00     0.053 A 
HETATM    9  C   UNL     1      43.946 -10.313   7.180  1.00  0.00     0.013 A 
HETATM   10  C   UNL     1      45.209 -10.884   7.069  1.00  0.00     0.015 A 
HETATM   11  C   UNL     1      43.802  -9.204   8.013  1.00  0.00     0.075 A 
HETATM   12  C   UNL     1      46.287 -10.310   7.759  1.00  0.00     0.001 A 
HETATM   13  C   UNL     1      46.104  -9.181   8.572  1.00  0.00     0.002 A 
HETATM   14  C   UNL     1      44.840  -8.616   8.715  1.00  0.00     0.025 A 
HETATM   15  S   UNL     1      42.128  -8.732   8.082  1.00  0.00     0.200 S 
HETATM   16  O   UNL     1      41.989  -7.456   7.416  1.00  0.00    -0.218 OA
HETATM   17  O   UNL     1      41.634  -8.993   9.416  1.00  0.00    -0.218 OA
HETATM   18  C   UNL     1      41.633 -10.006   7.015  1.00  0.00     0.144 A 
ENDBRANCH   1   8
BRANCH   4  19
HETATM   19  C   UNL     1      41.496 -15.051   2.999  1.00  0.00     0.188 C 
HETATM   20  C   UNL     1      42.056 -15.155   1.569  1.00  0.00     0.033 C 
HETATM   21  C   UNL     1      43.393 -15.893   1.505  1.00  0.00     0.002 C 
HETATM   22  C   UNL     1      43.301 -17.278   2.142  1.00  0.00     0.000 C 
HETATM   23  C   UNL     1      42.718 -17.227   3.551  1.00  0.00     0.002 C 
HETATM   24  C   UNL     1      41.388 -16.473   3.578  1.00  0.00     0.033 C 
ENDBRANCH   4  19
TORSDOF 2
ENDMDL
MODEL 6
REMARK VINA RESULT:      -7.6      2.086      2.438
REMARK  2 active torsions:
REMARK  status: ('A' for Active; 'I' for Inactive)
REMARK    1  A    between atoms: C_9  and  N_10 
REMARK    2  A    between atoms: N_13  and  C_15 
ROOT
HETATM    1  N   UNL     1      42.004 -14.421   3.722  1.00  0.00    -0.376 N 
HETATM    2  C   UNL     1      40.532 -14.462   3.643  1.00  0.00     0.150 C 
HETATM    3  C   UNL     1      40.055 -13.877   2.298  1.00  0.00     0.255 C 
HETATM    4  N   UNL     1      40.585 -12.446   2.055  1.00  0.00    -0.064 N 
HETATM    5  H   UNL     1      40.163 -11.843   2.770  1.00  0.00     0.280 HD
HETATM    6  C   UNL     1      42.110 -12.408   2.284  1.00  0.00     0.255 C 
HETATM    7  C   UNL     1      42.515 -13.038   3.630  1.00  0.00     0.150 C 
ENDROOT
BRANCH   1   8
HETATM    8  C   UNL     1      42.708 -15.379   4.448  1.00  0.00     0.053 A 
HETATM    9  C   UNL     1      43.054 -16.686   3.839  1.00  0.00     0.013 A 
HETATM   10  C   UNL     1      42.722 -17.187   2.585  1.00  0.00     0.015 A 
HETATM   11  C   UNL     1      43.768 -17.515   4.704  1.00  0.00     0.075 A 
HETATM   12  C   UNL     1      43.141 -18.476   2.225  1.00  0.00     0.001 A 
HETATM   13  C   UNL     1      43.874 -19.272   3.118  1.00  0.00     0.002 A 
HETATM   14  C   UNL     1      44.191 -18.795   4.388  1.00  0.00     0.025 A 
HETATM   15  S   UNL     1      43.973 -16.725   6.241  1.00  0.00     0.200 S 
HETATM   16  O   UNL     1      45.376 -16.411   6.406  1.00  0.00    -0.218 OA
HETATM   17  O   UNL     1      43.196 -17.439   7.230  1.00  0.00    -0.218 OA
HETATM   18  C   UNL     1      43.112 -15.310   5.729  1.00  0.00     0.144 A 
ENDBRANCH   1   8
BRANCH   4  19
HETATM   19  C   UNL     1      40.188 -11.920   0.661  1.00  0.00     0.188 C 
HETATM   20  C   UNL     1      38.664 -11.980   0.453  1.00  0.00     0.033 C 
HETATM   21  C   UNL     1      37.902 -11.010   1.355  1.00  0.00     0.002 C 
HETATM   22  C   UNL     1      38.405  -9.578   1.190  1.00  0.00     0.000 C 
HETATM   23  C   UNL     1      39.919  -9.475   1.355  1.00  0.00     0.002 C 
HETATM   24  C   UNL     1      40.646 -10.467   0.447  1.00  0.00     0.033 C 
ENDBRANCH   4  19
TORSDOF 2
ENDMDL
MODEL 7
REMARK VINA RESULT:      -7.5      5.098      8.121
REMARK  2 active torsions:
REMARK  status: ('A' for Active; 'I' for Inactive)
REMARK    1  A    between atoms: C_9  and  N_10 
REMARK    2  A    between atoms: N_13  and  C_15 
ROOT
HETATM    1  N   UNL     1      43.274 -12.683   5.720  1.00  0.00    -0.376 N 
HETATM    2  C   UNL     1      42.109 -11.993   6.305  1.00  0.00     0.150 C 
HETATM    3  C   UNL     1      42.505 -10.573   6.759  1.00  0.00     0.255 C 
HETATM    4  N   UNL     1      43.698 -10.579   7.741  1.00  0.00    -0.064 N 
HETATM    5  H   UNL     1      43.382 -11.052   8.596  1.00  0.00     0.280 HD
HETATM    6  C   UNL     1      44.849 -11.427   7.161  1.00  0.00     0.255 C 
HETATM    7  C   UNL     1      44.374 -12.817   6.698  1.00  0.00     0.150 C 
ENDROOT
BRANCH   1   8
HETATM    8  C   UNL     1      43.113 -13.634   4.716  1.00  0.00     0.053 A 
HETATM    9  C   UNL     1      43.321 -15.075   4.997  1.00  0.00     0.013 A 
HETATM   10  C   UNL     1      43.739 -15.689   6.173  1.00  0.00     0.015 A 
HETATM   11  C   UNL     1      43.106 -15.882   3.880  1.00  0.00     0.075 A 
HETATM   12  C   UNL     1      43.893 -17.083   6.205  1.00  0.00     0.001 A 
HETATM   13  C   UNL     1      43.649 -17.862   5.064  1.00  0.00     0.002 A 
HETATM   14  C   UNL     1      43.256 -17.258   3.872  1.00  0.00     0.025 A 
HETATM   15  S   UNL     1      42.698 -14.893   2.508  1.00  0.00     0.200 S 
HETATM   16  O   UNL     1      41.316 -15.142   2.164  1.00  0.00    -0.218 OA
HETATM   17  O   UNL     1      43.783 -14.966   1.553  1.00  0.00    -0.218 OA
HETATM   18  C   UNL     1      42.819 -13.423   3.420  1.00  0.00     0.144 A 
ENDBRANCH   1   8
BRANCH   4  19
HETATM   19  C   UNL     1      44.147  -9.148   8.101  1.00  0.00     0.188 C 
HETATM   20  C   UNL     1      43.062  -8.404   8.899  1.00  0.00     0.033 C 
HETATM   21  C   UNL     1      42.838  -8.993  10.291  1.00  0.00     0.002 C 
HETATM   22  C   UNL     1      44.137  -9.055  11.091  1.00  0.00     0.000 C 
HETATM   23  C   UNL     1      45.254  -9.756  10.323  1.00  0.00     0.002 C 
HETATM   24  C   UNL     1      45.442  -9.148   8.933  1.00  0.00     0.033 C 
ENDBRANCH   4  19
TORSDOF 2
ENDMDL
MODEL 8
REMARK VINA RESULT:      -7.0      4.104      8.055
REMARK  2 active torsions:
REMARK  status: ('A' for Active; 'I' for Inactive)
REMARK    1  A    between atoms: C_9  and  N_10 
REMARK    2  A    between atoms: N_13  and  C_15 
ROOT
HETATM    1  N   UNL     1      40.352 -14.113   1.228  1.00  0.00    -0.376 N 
HETATM    2  C   UNL     1      40.363 -15.504   1.720  1.00  0.00     0.150 C 
HETATM    3  C   UNL     1      40.205 -15.527   3.253  1.00  0.00     0.255 C 
HETATM    4  N   UNL     1      41.275 -14.675   3.971  1.00  0.00    -0.064 N 
HETATM    5  H   UNL     1      42.183 -15.120   3.792  1.00  0.00     0.280 HD
HETATM    6  C   UNL     1      41.336 -13.270   3.338  1.00  0.00     0.255 C 
HETATM    7  C   UNL     1      41.461 -13.324   1.804  1.00  0.00     0.150 C 
ENDROOT
BRANCH   1   8
HETATM    8  C   UNL     1      39.860 -13.806  -0.038  1.00  0.00     0.053 A 
HETATM    9  C   UNL     1      38.993 -12.622  -0.247  1.00  0.00     0.013 A 
HETATM   10  C   UNL     1      38.496 -11.721   0.690  1.00  0.00     0.015 A 
HETATM   11  C   UNL     1      38.603 -12.462  -1.576  1.00  0.00     0.075 A 
HETATM   12  C   UNL     1      37.662 -10.676   0.265  1.00  0.00     0.001 A 
HETATM   13  C   UNL     1      37.309 -10.539  -1.086  1.00  0.00     0.002 A 
HETATM   14  C   UNL     1      37.776 -11.450  -2.031  1.00  0.00     0.025 A 
HETATM   15  S   UNL     1      39.252 -13.757  -2.540  1.00  0.00     0.200 S 
HETATM   16  O   UNL     1      40.250 -13.204  -3.429  1.00  0.00    -0.218 OA
HETATM   17  O   UNL     1      38.156 -14.587  -2.989  1.00  0.00    -0.218 OA
HETATM   18  C   UNL     1      40.028 -14.500  -1.178  1.00  0.00     0.144 A 
ENDBRANCH   1   8
BRANCH   4  19
HETATM   19  C   UNL     1      41.037 -14.624   5.494  1.00  0.00     0.188 C 
HETATM   20  C   UNL     1      40.972 -16.038   6.098  1.00  0.00     0.033 C 
HETATM   21  C   UNL     1      42.311 -16.772   6.042  1.00  0.00     0.002 C 
HETATM   22  C   UNL     1      43.423 -15.962   6.703  1.00  0.00     0.000 C 
HETATM   23  C   UNL     1      43.503 -14.539   6.157  1.00  0.00     0.002 C 
HETATM   24  C   UNL     1      42.145 -13.841   6.220  1.00  0.00     0.033 C 
ENDBRANCH   4  19
TORSDOF 2
ENDMDL
MODEL 9
REMARK VINA RESULT:      -6.8      3.842      7.765
REMARK  2 active torsions:
REMARK  status: ('A' for Active; 'I' for Inactive)
REMARK    1  A    between atoms: C_9  and  N_10 
REMARK    2  A    between atoms: N_13  and  C_15 
ROOT
HETATM    1  N   UNL     1      41.340 -13.155   1.450  1.00  0.00    -0.376 N 
HETATM    2  C   UNL     1      42.020 -14.445   1.233  1.00  0.00     0.150 C 
HETATM    3  C   UNL     1      41.768 -15.388   2.427  1.00  0.00     0.255 C 
HETATM    4  N   UNL     1      42.188 -14.759   3.775  1.00  0.00    -0.064 N 
HETATM    5  H   UNL     1      43.207 -14.636   3.744  1.00  0.00     0.280 HD
HETATM    6  C   UNL     1      41.573 -13.351   3.908  1.00  0.00     0.255 C 
HETATM    7  C   UNL     1      41.836 -12.478   2.667  1.00  0.00     0.150 C 
ENDROOT
BRANCH   1   8
HETATM    8  C   UNL     1      40.867 -12.405   0.377  1.00  0.00     0.053 A 
HETATM    9  C   UNL     1      40.070 -13.041  -0.700  1.00  0.00     0.013 A 
HETATM   10  C   UNL     1      39.732 -14.379  -0.868  1.00  0.00     0.015 A 
HETATM   11  C   UNL     1      39.674 -12.139  -1.686  1.00  0.00     0.075 A 
HETATM   12  C   UNL     1      38.981 -14.764  -1.989  1.00  0.00     0.001 A 
HETATM   13  C   UNL     1      38.585 -13.822  -2.950  1.00  0.00     0.002 A 
HETATM   14  C   UNL     1      38.941 -12.482  -2.809  1.00  0.00     0.025 A 
HETATM   15  S   UNL     1      40.298 -10.556  -1.322  1.00  0.00     0.200 S 
HETATM   16  O   UNL     1      39.185  -9.696  -0.983  1.00  0.00    -0.218 OA
HETATM   17  O   UNL     1      41.292 -10.216  -2.317  1.00  0.00    -0.218 OA
HETATM   18  C   UNL     1      41.081 -11.100   0.126  1.00  0.00     0.144 A 
ENDBRANCH   1   8
BRANCH   4  19
HETATM   19  C   UNL     1      41.831 -15.671   4.965  1.00  0.00     0.188 C 
HETATM   20  C   UNL     1      42.509 -17.047   4.840  1.00  0.00     0.033 C 
HETATM   21  C   UNL     1      44.029 -16.977   4.978  1.00  0.00     0.002 C 
HETATM   22  C   UNL     1      44.444 -16.297   6.281  1.00  0.00     0.000 C 
HETATM   23  C   UNL     1      43.768 -14.941   6.464  1.00  0.00     0.002 C 
HETATM   24  C   UNL     1      42.251 -15.048   6.308  1.00  0.00     0.033 C 
ENDBRANCH   4  19
TORSDOF 2
ENDMDL
MODEL 10
REMARK VINA RESULT:      -6.8      3.429      4.155
REMARK  2 active torsions:
REMARK  status: ('A' for Active; 'I' for Inactive)
REMARK    1  A    between atoms: C_9  and  N_10 
REMARK    2  A    between atoms: N_13  and  C_15 
ROOT
HETATM    1  N   UNL     1      41.988 -13.583   4.546  1.00  0.00    -0.376 N 
HETATM    2  C   UNL     1      42.688 -12.585   3.715  1.00  0.00     0.150 C 
HETATM    3  C   UNL     1      42.108 -11.180   3.970  1.00  0.00     0.255 C 
HETATM    4  N   UNL     1      40.581 -11.120   3.741  1.00  0.00    -0.064 N 
HETATM    5  H   UNL     1      40.419 -11.296   2.743  1.00  0.00     0.280 HD
HETATM    6  C   UNL     1      39.892 -12.264   4.513  1.00  0.00     0.255 C 
HETATM    7  C   UNL     1      40.544 -13.632   4.236  1.00  0.00     0.150 C 
ENDROOT
BRANCH   1   8
HETATM    8  C   UNL     1      42.644 -14.725   4.998  1.00  0.00     0.053 A 
HETATM    9  C   UNL     1      42.948 -15.841   4.071  1.00  0.00     0.013 A 
HETATM   10  C   UNL     1      42.614 -15.983   2.729  1.00  0.00     0.015 A 
HETATM   11  C   UNL     1      43.616 -16.896   4.692  1.00  0.00     0.075 A 
HETATM   12  C   UNL     1      42.988 -17.150   2.046  1.00  0.00     0.001 A 
HETATM   13  C   UNL     1      43.676 -18.181   2.703  1.00  0.00     0.002 A 
HETATM   14  C   UNL     1      43.993 -18.065   4.054  1.00  0.00     0.025 A 
HETATM   15  S   UNL     1      43.830 -16.543   6.383  1.00  0.00     0.200 S 
HETATM   16  O   UNL     1      45.241 -16.341   6.629  1.00  0.00    -0.218 OA
HETATM   17  O   UNL     1      43.011 -17.458   7.148  1.00  0.00    -0.218 OA
HETATM   18  C   UNL     1      43.032 -15.009   6.255  1.00  0.00     0.144 A 
ENDBRANCH   1   8
BRANCH   4  19
HETATM   19  C   UNL     1      40.004  -9.737   4.103  1.00  0.00     0.188 C 
HETATM   20  C   UNL     1      40.665  -8.620   3.275  1.00  0.00     0.033 C 
HETATM   21  C   UNL     1      40.317  -8.695   1.789  1.00  0.00     0.002 C 
HETATM   22  C   UNL     1      38.807  -8.701   1.565  1.00  0.00     0.000 C 
HETATM   23  C   UNL     1      38.105  -9.773   2.394  1.00  0.00     0.002 C 
HETATM   24  C   UNL     1      38.484  -9.673   3.871  1.00  0.00     0.033 C 
ENDBRANCH   4  19
TORSDOF 2
ENDMDL
