MODEL 1
REMARK VINA RESULT:      -8.4      0.000      0.000
REMARK  5 active torsions:
REMARK  status: ('A' for Active; 'I' for Inactive)
REMARK    1  A    between atoms: C_4  and  O_5 
REMARK    2  A    between atoms: O_5  and  C_6 
REMARK    3  A    between atoms: C_6  and  C_7 
REMARK       I    between atoms: C_7  and  N_8 
REMARK    4  A    between atoms: N_8  and  N_9 
REMARK    5  A    between atoms: C_10  and  C_11 
ROOT
HETATM    1  C   UNL     1      41.227 -15.459   4.341  1.00  0.00     0.261 C 
HETATM    2  N   UNL     1      41.343 -14.244   3.677  1.00  0.00    -0.246 N 
HETATM    3  O   UNL     1      40.252 -16.208   4.333  1.00  0.00    -0.269 OA
HETATM    4  H   UNL     1      42.269 -13.817   3.662  1.00  0.00     0.192 HD
ENDROOT
BRANCH   2   5
HETATM    5  N   UNL     1      40.445 -13.658   2.819  1.00  0.00    -0.184 NA
HETATM    6  C   UNL     1      40.633 -13.729   1.540  1.00  0.00     0.152 C 
BRANCH   6   7
HETATM    7  C   UNL     1      39.698 -13.075   0.644  1.00  0.00     0.011 A 
HETATM    8  C   UNL     1      39.234 -13.572  -0.618  1.00  0.00     0.004 A 
HETATM    9  C   UNL     1      38.354 -12.626  -1.144  1.00  0.00     0.043 A 
HETATM   10  C   UNL     1      39.494 -14.739  -1.370  1.00  0.00     0.014 A 
HETATM   11  C   UNL     1      37.718 -12.788  -2.381  1.00  0.00     0.030 A 
HETATM   12  N   UNL     1      38.280 -11.595  -0.236  1.00  0.00    -0.364 N 
HETATM   13  C   UNL     1      37.996 -13.952  -3.106  1.00  0.00     0.002 A 
HETATM   14  C   UNL     1      38.870 -14.914  -2.610  1.00  0.00     0.001 A 
HETATM   15  H   UNL     1      37.713 -10.766  -0.356  1.00  0.00     0.165 HD
HETATM   16  C   UNL     1      39.089 -11.849   0.837  1.00  0.00     0.102 A 
ENDBRANCH   6   7
ENDBRANCH   2   5
BRANCH   1  17
HETATM   17  C   UNL     1      42.445 -15.777   5.204  1.00  0.00     0.280 C 
BRANCH  17  18
HETATM   18  O   UNL     1      43.580 -16.086   4.398  1.00  0.00    -0.342 OA
BRANCH  18  19
HETATM   19  C   UNL     1      43.653 -17.400   4.006  1.00  0.00     0.075 A 
HETATM   20  C   UNL     1      43.925 -18.450   4.894  1.00  0.00     0.044 A 
HETATM   21  C   UNL     1      43.985 -19.773   4.439  1.00  0.00    -0.059 A 
HETATM   22  C   UNL     1      44.231 -20.902   5.395  1.00  0.00     0.048 C 
HETATM   23  C   UNL     1      43.767 -20.037   3.084  1.00  0.00     0.007 A 
HETATM   24  C   UNL     1      43.523 -18.991   2.191  1.00  0.00     0.010 A 
HETATM   25  C   UNL     1      43.477 -17.663   2.640  1.00  0.00    -0.029 A 
HETATM   26  C   UNL     1      43.191 -16.556   1.667  1.00  0.00     0.051 C 
ENDBRANCH  18  19
ENDBRANCH  17  18
ENDBRANCH   1  17
TORSDOF 5
ENDMDL
MODEL 2
REMARK VINA RESULT:      -8.3      5.056      7.615
REMARK  5 active torsions:
REMARK  status: ('A' for Active; 'I' for Inactive)
REMARK    1  A    between atoms: C_4  and  O_5 
REMARK    2  A    between atoms: O_5  and  C_6 
REMARK    3  A    between atoms: C_6  and  C_7 
REMARK       I    between atoms: C_7  and  N_8 
REMARK    4  A    between atoms: N_8  and  N_9 
REMARK    5  A    between atoms: C_10  and  C_11 
ROOT
HETATM    1  C   UNL     1      42.482 -14.447   6.055  1.00  0.00     0.261 C 
HETATM    2  N   UNL     1      43.607 -14.140   6.811  1.00  0.00    -0.246 N 
HETATM    3  O   UNL     1      41.521 -13.710   5.840  1.00  0.00    -0.269 OA
HETATM    4  H   UNL     1      44.381 -14.802   6.767  1.00  0.00     0.192 HD
ENDROOT
BRANCH   2   5
HETATM    5  N   UNL     1      43.928 -12.945   7.407  1.00  0.00    -0.184 NA
HETATM    6  C   UNL     1      44.623 -12.066   6.761  1.00  0.00     0.152 C 
BRANCH   6   7
HETATM    7  C   UNL     1      44.987 -10.823   7.414  1.00  0.00     0.011 A 
HETATM    8  C   UNL     1      44.091  -9.794   7.853  1.00  0.00     0.004 A 
HETATM    9  C   UNL     1      44.863  -8.780   8.420  1.00  0.00     0.043 A 
HETATM   10  C   UNL     1      42.690  -9.626   7.808  1.00  0.00     0.014 A 
HETATM   11  C   UNL     1      44.305  -7.608   8.947  1.00  0.00     0.030 A 
HETATM   12  N   UNL     1      46.177  -9.177   8.335  1.00  0.00    -0.364 N 
HETATM   13  C   UNL     1      42.915  -7.467   8.887  1.00  0.00     0.002 A 
HETATM   14  C   UNL     1      42.117  -8.459   8.326  1.00  0.00     0.001 A 
HETATM   15  H   UNL     1      46.962  -8.634   8.670  1.00  0.00     0.165 HD
HETATM   16  C   UNL     1      46.265 -10.398   7.725  1.00  0.00     0.102 A 
ENDBRANCH   6   7
ENDBRANCH   2   5
BRANCH   1  17
HETATM   17  C   UNL     1      42.487 -15.886   5.548  1.00  0.00     0.280 C 
BRANCH  17  18
HETATM   18  O   UNL     1      43.502 -16.081   4.566  1.00  0.00    -0.342 OA
BRANCH  18  19
HETATM   19  C   UNL     1      43.598 -17.371   4.102  1.00  0.00     0.075 A 
HETATM   20  C   UNL     1      43.951 -18.453   4.919  1.00  0.00     0.044 A 
HETATM   21  C   UNL     1      44.031 -19.749   4.392  1.00  0.00    -0.059 A 
HETATM   22  C   UNL     1      44.365 -20.916   5.273  1.00  0.00     0.048 C 
HETATM   23  C   UNL     1      43.751 -19.952   3.038  1.00  0.00     0.007 A 
HETATM   24  C   UNL     1      43.425 -18.871   2.215  1.00  0.00     0.010 A 
HETATM   25  C   UNL     1      43.359 -17.571   2.734  1.00  0.00    -0.029 A 
HETATM   26  C   UNL     1      42.985 -16.426   1.837  1.00  0.00     0.051 C 
ENDBRANCH  18  19
ENDBRANCH  17  18
ENDBRANCH   1  17
TORSDOF 5
ENDMDL
MODEL 3
REMARK VINA RESULT:      -8.2      2.387      8.119
REMARK  5 active torsions:
REMARK  status: ('A' for Active; 'I' for Inactive)
REMARK    1  A    between atoms: C_4  and  O_5 
REMARK    2  A    between atoms: O_5  and  C_6 
REMARK    3  A    between atoms: C_6  and  C_7 
REMARK       I    between atoms: C_7  and  N_8 
REMARK    4  A    between atoms: N_8  and  N_9 
REMARK    5  A    between atoms: C_10  and  C_11 
ROOT
HETATM    1  C   UNL     1      42.474 -12.529   2.582  1.00  0.00     0.261 C 
HETATM    2  N   UNL     1      41.817 -13.712   2.895  1.00  0.00    -0.246 N 
HETATM    3  O   UNL     1      43.570 -12.166   3.004  1.00  0.00    -0.269 OA
HETATM    4  H   UNL     1      40.987 -13.934   2.346  1.00  0.00     0.192 HD
ENDROOT
BRANCH   2   5
HETATM    5  N   UNL     1      42.270 -14.754   3.666  1.00  0.00    -0.184 NA
HETATM    6  C   UNL     1      42.983 -15.693   3.131  1.00  0.00     0.152 C 
BRANCH   6   7
HETATM    7  C   UNL     1      43.424 -16.808   3.948  1.00  0.00     0.011 A 
HETATM    8  C   UNL     1      43.513 -18.180   3.543  1.00  0.00     0.004 A 
HETATM    9  C   UNL     1      43.977 -18.911   4.637  1.00  0.00     0.043 A 
HETATM   10  C   UNL     1      43.226 -18.872   2.347  1.00  0.00     0.014 A 
HETATM   11  C   UNL     1      44.173 -20.297   4.595  1.00  0.00     0.030 A 
HETATM   12  N   UNL     1      44.170 -18.018   5.666  1.00  0.00    -0.364 N 
HETATM   13  C   UNL     1      43.879 -20.957   3.398  1.00  0.00     0.002 A 
HETATM   14  C   UNL     1      43.412 -20.258   2.289  1.00  0.00     0.001 A 
HETATM   15  H   UNL     1      44.504 -18.269   6.587  1.00  0.00     0.165 HD
HETATM   16  C   UNL     1      43.832 -16.754   5.267  1.00  0.00     0.102 A 
ENDBRANCH   6   7
ENDBRANCH   2   5
BRANCH   1  17
HETATM   17  C   UNL     1      41.646 -11.615   1.683  1.00  0.00     0.280 C 
BRANCH  17  18
HETATM   18  O   UNL     1      40.504 -12.296   1.170  1.00  0.00    -0.342 OA
BRANCH  18  19
HETATM   19  C   UNL     1      40.474 -12.398  -0.200  1.00  0.00     0.075 A 
HETATM   20  C   UNL     1      40.648 -11.299  -1.052  1.00  0.00     0.044 A 
HETATM   21  C   UNL     1      40.611 -11.462  -2.444  1.00  0.00    -0.059 A 
HETATM   22  C   UNL     1      40.841 -10.295  -3.358  1.00  0.00     0.048 C 
HETATM   23  C   UNL     1      40.402 -12.737  -2.974  1.00  0.00     0.007 A 
HETATM   24  C   UNL     1      40.203 -13.830  -2.127  1.00  0.00     0.010 A 
HETATM   25  C   UNL     1      40.222 -13.670  -0.735  1.00  0.00    -0.029 A 
HETATM   26  C   UNL     1      40.028 -14.862   0.157  1.00  0.00     0.051 C 
ENDBRANCH  18  19
ENDBRANCH  17  18
ENDBRANCH   1  17
TORSDOF 5
ENDMDL
MODEL 4
REMARK VINA RESULT:      -8.1      1.905      3.124
REMARK  5 active torsions:
REMARK  status: ('A' for Active; 'I' for Inactive)
REMARK    1  A    between atoms: C_4  and  O_5 
REMARK    2  A    between atoms: O_5  and  C_6 
REMARK    3  A    between atoms: C_6  and  C_7 
REMARK       I    between atoms: C_7  and  N_8 
REMARK    4  A    between atoms: N_8  and  N_9 
REMARK    5  A    between atoms: C_10  and  C_11 
ROOT
HETATM    1  C   UNL     1      42.263 -13.841   1.675  1.00  0.00     0.261 C 
HETATM    2  N   UNL     1      41.610 -14.433   0.602  1.00  0.00    -0.246 N 
HETATM    3  O   UNL     1      42.212 -12.656   2.000  1.00  0.00    -0.269 OA
HETATM    4  H   UNL     1      41.634 -15.452   0.557  1.00  0.00     0.192 HD
ENDROOT
BRANCH   2   5
HETATM    5  N   UNL     1      40.718 -13.858  -0.269  1.00  0.00    -0.184 NA
HETATM    6  C   UNL     1      39.714 -14.544  -0.714  1.00  0.00     0.152 C 
BRANCH   6   7
HETATM    7  C   UNL     1      38.798 -13.938  -1.662  1.00  0.00     0.011 A 
HETATM    8  C   UNL     1      38.113 -12.689  -1.509  1.00  0.00     0.004 A 
HETATM    9  C   UNL     1      37.335 -12.494  -2.650  1.00  0.00     0.043 A 
HETATM   10  C   UNL     1      38.072 -11.708  -0.494  1.00  0.00     0.014 A 
HETATM   11  C   UNL     1      36.521 -11.368  -2.830  1.00  0.00     0.030 A 
HETATM   12  N   UNL     1      37.542 -13.579  -3.470  1.00  0.00    -0.364 N 
HETATM   13  C   UNL     1      36.498 -10.415  -1.808  1.00  0.00     0.002 A 
HETATM   14  C   UNL     1      37.261 -10.579  -0.656  1.00  0.00     0.001 A 
HETATM   15  H   UNL     1      37.104 -13.708  -4.372  1.00  0.00     0.165 HD
HETATM   16  C   UNL     1      38.412 -14.457  -2.883  1.00  0.00     0.102 A 
ENDBRANCH   6   7
ENDBRANCH   2   5
BRANCH   1  17
HETATM   17  C   UNL     1      43.174 -14.813   2.420  1.00  0.00     0.280 C 
BRANCH  17  18
HETATM   18  O   UNL     1      42.422 -15.670   3.275  1.00  0.00    -0.342 OA
BRANCH  18  19
HETATM   19  C   UNL     1      42.979 -16.912   3.462  1.00  0.00     0.075 A 
HETATM   20  C   UNL     1      42.927 -17.927   2.498  1.00  0.00     0.044 A 
HETATM   21  C   UNL     1      43.515 -19.175   2.742  1.00  0.00    -0.059 A 
HETATM   22  C   UNL     1      43.499 -20.248   1.695  1.00  0.00     0.048 C 
HETATM   23  C   UNL     1      44.161 -19.396   3.962  1.00  0.00     0.007 A 
HETATM   24  C   UNL     1      44.192 -18.395   4.936  1.00  0.00     0.010 A 
HETATM   25  C   UNL     1      43.590 -17.150   4.702  1.00  0.00    -0.029 A 
HETATM   26  C   UNL     1      43.655 -16.080   5.754  1.00  0.00     0.051 C 
ENDBRANCH  18  19
ENDBRANCH  17  18
ENDBRANCH   1  17
TORSDOF 5
ENDMDL
MODEL 5
REMARK VINA RESULT:      -8.0      5.612      8.984
REMARK  5 active torsions:
REMARK  status: ('A' for Active; 'I' for Inactive)
REMARK    1  A    between atoms: C_4  and  O_5 
REMARK    2  A    between atoms: O_5  and  C_6 
REMARK    3  A    between atoms: C_6  and  C_7 
REMARK       I    between atoms: C_7  and  N_8 
REMARK    4  A    between atoms: N_8  and  N_9 
REMARK    5  A    between atoms: C_10  and  C_11 
ROOT
HETATM    1  C   UNL     1      43.215 -11.142   6.195  1.00  0.00     0.261 C 
HETATM    2  N   UNL     1      42.852 -12.312   6.851  1.00  0.00    -0.246 N 
HETATM    3  O   UNL     1      44.087 -11.024   5.337  1.00  0.00    -0.269 OA
HETATM    4  H   UNL     1      42.010 -12.272   7.424  1.00  0.00     0.192 HD
ENDROOT
BRANCH   2   5
HETATM    5  N   UNL     1      43.321 -13.584   6.636  1.00  0.00    -0.184 NA
HETATM    6  C   UNL     1      42.600 -14.438   5.983  1.00  0.00     0.152 C 
BRANCH   6   7
HETATM    7  C   UNL     1      43.089 -15.790   5.793  1.00  0.00     0.011 A 
HETATM    8  C   UNL     1      43.197 -16.493   4.549  1.00  0.00     0.004 A 
HETATM    9  C   UNL     1      43.708 -17.761   4.826  1.00  0.00     0.043 A 
HETATM   10  C   UNL     1      42.892 -16.171   3.209  1.00  0.00     0.014 A 
HETATM   11  C   UNL     1      43.934 -18.722   3.832  1.00  0.00     0.030 A 
HETATM   12  N   UNL     1      43.910 -17.827   6.186  1.00  0.00    -0.364 N 
HETATM   13  C   UNL     1      43.621 -18.376   2.514  1.00  0.00     0.002 A 
HETATM   14  C   UNL     1      43.108 -17.120   2.203  1.00  0.00     0.001 A 
HETATM   15  H   UNL     1      44.275 -18.634   6.672  1.00  0.00     0.165 HD
HETATM   16  C   UNL     1      43.533 -16.652   6.778  1.00  0.00     0.102 A 
ENDBRANCH   6   7
ENDBRANCH   2   5
BRANCH   1  17
HETATM   17  C   UNL     1      42.461  -9.919   6.710  1.00  0.00     0.280 C 
BRANCH  17  18
HETATM   18  O   UNL     1      43.344  -9.007   7.359  1.00  0.00    -0.342 OA
BRANCH  18  19
HETATM   19  C   UNL     1      43.556  -9.276   8.689  1.00  0.00     0.075 A 
HETATM   20  C   UNL     1      42.518  -9.381   9.624  1.00  0.00     0.044 A 
HETATM   21  C   UNL     1      42.794  -9.660  10.969  1.00  0.00    -0.059 A 
HETATM   22  C   UNL     1      41.681  -9.817  11.963  1.00  0.00     0.048 C 
HETATM   23  C   UNL     1      44.120  -9.838  11.369  1.00  0.00     0.007 A 
HETATM   24  C   UNL     1      45.160  -9.709  10.445  1.00  0.00     0.010 A 
HETATM   25  C   UNL     1      44.890  -9.413   9.101  1.00  0.00    -0.029 A 
HETATM   26  C   UNL     1      46.021  -9.300   8.120  1.00  0.00     0.051 C 
ENDBRANCH  18  19
ENDBRANCH  17  18
ENDBRANCH   1  17
TORSDOF 5
ENDMDL
MODEL 6
REMARK VINA RESULT:      -7.9      2.182      7.931
REMARK  5 active torsions:
REMARK  status: ('A' for Active; 'I' for Inactive)
REMARK    1  A    between atoms: C_4  and  O_5 
REMARK    2  A    between atoms: O_5  and  C_6 
REMARK    3  A    between atoms: C_6  and  C_7 
REMARK       I    between atoms: C_7  and  N_8 
REMARK    4  A    between atoms: N_8  and  N_9 
REMARK    5  A    between atoms: C_10  and  C_11 
ROOT
HETATM    1  C   UNL     1      40.081 -13.584   2.560  1.00  0.00     0.261 C 
HETATM    2  N   UNL     1      41.276 -14.273   2.399  1.00  0.00    -0.246 N 
HETATM    3  O   UNL     1      39.167 -13.873   3.329  1.00  0.00    -0.269 OA
HETATM    4  H   UNL     1      41.993 -13.821   1.832  1.00  0.00     0.192 HD
ENDROOT
BRANCH   2   5
HETATM    5  N   UNL     1      41.729 -15.361   3.104  1.00  0.00    -0.184 NA
HETATM    6  C   UNL     1      43.000 -15.565   3.233  1.00  0.00     0.152 C 
BRANCH   6   7
HETATM    7  C   UNL     1      43.467 -16.738   3.948  1.00  0.00     0.011 A 
HETATM    8  C   UNL     1      43.488 -18.084   3.459  1.00  0.00     0.004 A 
HETATM    9  C   UNL     1      44.008 -18.891   4.472  1.00  0.00     0.043 A 
HETATM   10  C   UNL     1      43.099 -18.696   2.247  1.00  0.00     0.014 A 
HETATM   11  C   UNL     1      44.161 -20.276   4.334  1.00  0.00     0.030 A 
HETATM   12  N   UNL     1      44.297 -18.068   5.535  1.00  0.00    -0.364 N 
HETATM   13  C   UNL     1      43.765 -20.856   3.124  1.00  0.00     0.002 A 
HETATM   14  C   UNL     1      43.241 -20.080   2.094  1.00  0.00     0.001 A 
HETATM   15  H   UNL     1      44.689 -18.382   6.413  1.00  0.00     0.165 HD
HETATM   16  C   UNL     1      43.968 -16.774   5.236  1.00  0.00     0.102 A 
ENDBRANCH   6   7
ENDBRANCH   2   5
BRANCH   1  17
HETATM   17  C   UNL     1      39.940 -12.414   1.590  1.00  0.00     0.280 C 
BRANCH  17  18
HETATM   18  O   UNL     1      40.979 -12.427   0.615  1.00  0.00    -0.342 OA
BRANCH  18  19
HETATM   19  C   UNL     1      40.546 -12.646  -0.670  1.00  0.00     0.075 A 
HETATM   20  C   UNL     1      39.913 -13.829  -1.073  1.00  0.00     0.044 A 
HETATM   21  C   UNL     1      39.489 -13.997  -2.398  1.00  0.00    -0.059 A 
HETATM   22  C   UNL     1      38.771 -15.244  -2.821  1.00  0.00     0.048 C 
HETATM   23  C   UNL     1      39.702 -12.966  -3.316  1.00  0.00     0.007 A 
HETATM   24  C   UNL     1      40.356 -11.795  -2.925  1.00  0.00     0.010 A 
HETATM   25  C   UNL     1      40.797 -11.630  -1.604  1.00  0.00    -0.029 A 
HETATM   26  C   UNL     1      41.478 -10.354  -1.199  1.00  0.00     0.051 C 
ENDBRANCH  18  19
ENDBRANCH  17  18
ENDBRANCH   1  17
TORSDOF 5
ENDMDL
MODEL 7
REMARK VINA RESULT:      -7.9      4.482      7.233
REMARK  5 active torsions:
REMARK  status: ('A' for Active; 'I' for Inactive)
REMARK    1  A    between atoms: C_4  and  O_5 
REMARK    2  A    between atoms: O_5  and  C_6 
REMARK    3  A    between atoms: C_6  and  C_7 
REMARK       I    between atoms: C_7  and  N_8 
REMARK    4  A    between atoms: N_8  and  N_9 
REMARK    5  A    between atoms: C_10  and  C_11 
ROOT
HETATM    1  C   UNL     1      42.606 -13.679   2.658  1.00  0.00     0.261 C 
HETATM    2  N   UNL     1      43.044 -13.487   3.962  1.00  0.00    -0.246 N 
HETATM    3  O   UNL     1      42.117 -12.828   1.917  1.00  0.00    -0.269 OA
HETATM    4  H   UNL     1      43.563 -14.255   4.388  1.00  0.00     0.192 HD
ENDROOT
BRANCH   2   5
HETATM    5  N   UNL     1      43.103 -12.313   4.673  1.00  0.00    -0.184 NA
HETATM    6  C   UNL     1      42.736 -12.289   5.914  1.00  0.00     0.152 C 
BRANCH   6   7
HETATM    7  C   UNL     1      42.767 -11.036   6.644  1.00  0.00     0.011 A 
HETATM    8  C   UNL     1      43.912 -10.436   7.261  1.00  0.00     0.004 A 
HETATM    9  C   UNL     1      43.493  -9.245   7.855  1.00  0.00     0.043 A 
HETATM   10  C   UNL     1      45.270 -10.804   7.382  1.00  0.00     0.014 A 
HETATM   11  C   UNL     1      44.362  -8.402   8.560  1.00  0.00     0.030 A 
HETATM   12  N   UNL     1      42.146  -9.121   7.604  1.00  0.00    -0.364 N 
HETATM   13  C   UNL     1      45.700  -8.793   8.666  1.00  0.00     0.002 A 
HETATM   14  C   UNL     1      46.151  -9.975   8.086  1.00  0.00     0.001 A 
HETATM   15  H   UNL     1      41.573  -8.349   7.918  1.00  0.00     0.165 HD
HETATM   16  C   UNL     1      41.697 -10.196   6.886  1.00  0.00     0.102 A 
ENDBRANCH   6   7
ENDBRANCH   2   5
BRANCH   1  17
HETATM   17  C   UNL     1      42.704 -15.135   2.211  1.00  0.00     0.280 C 
BRANCH  17  18
HETATM   18  O   UNL     1      42.076 -16.004   3.151  1.00  0.00    -0.342 OA
BRANCH  18  19
HETATM   19  C   UNL     1      42.746 -17.183   3.366  1.00  0.00     0.075 A 
HETATM   20  C   UNL     1      42.860 -18.187   2.395  1.00  0.00     0.044 A 
HETATM   21  C   UNL     1      43.559 -19.370   2.669  1.00  0.00    -0.059 A 
HETATM   22  C   UNL     1      43.720 -20.427   1.616  1.00  0.00     0.048 C 
HETATM   23  C   UNL     1      44.148 -19.537   3.925  1.00  0.00     0.007 A 
HETATM   24  C   UNL     1      44.015 -18.550   4.904  1.00  0.00     0.010 A 
HETATM   25  C   UNL     1      43.302 -17.372   4.640  1.00  0.00    -0.029 A 
HETATM   26  C   UNL     1      43.190 -16.314   5.700  1.00  0.00     0.051 C 
ENDBRANCH  18  19
ENDBRANCH  17  18
ENDBRANCH   1  17
TORSDOF 5
ENDMDL
MODEL 8
REMARK VINA RESULT:      -7.8      6.805     10.173
REMARK  5 active torsions:
REMARK  status: ('A' for Active; 'I' for Inactive)
REMARK    1  A    between atoms: C_4  and  O_5 
REMARK    2  A    between atoms: O_5  and  C_6 
REMARK    3  A    between atoms: C_6  and  C_7 
REMARK       I    between atoms: C_7  and  N_8 
REMARK    4  A    between atoms: N_8  and  N_9 
REMARK    5  A    between atoms: C_10  and  C_11 
ROOT
HETATM    1  C   UNL     1      44.431 -10.940   8.119  1.00  0.00     0.261 C 
HETATM    2  N   UNL     1      43.603 -11.894   7.539  1.00  0.00    -0.246 N 
HETATM    3  O   UNL     1      45.593 -11.105   8.486  1.00  0.00    -0.269 OA
HETATM    4  H   UNL     1      42.720 -11.560   7.154  1.00  0.00     0.192 HD
ENDROOT
BRANCH   2   5
HETATM    5  N   UNL     1      43.916 -13.181   7.178  1.00  0.00    -0.184 NA
HETATM    6  C   UNL     1      43.102 -13.862   6.438  1.00  0.00     0.152 C 
BRANCH   6   7
HETATM    7  C   UNL     1      43.426 -15.234   6.094  1.00  0.00     0.011 A 
HETATM    8  C   UNL     1      43.357 -15.826   4.791  1.00  0.00     0.004 A 
HETATM    9  C   UNL     1      43.749 -17.160   4.916  1.00  0.00     0.043 A 
HETATM   10  C   UNL     1      42.983 -15.353   3.515  1.00  0.00     0.014 A 
HETATM   11  C   UNL     1      43.790 -18.042   3.829  1.00  0.00     0.030 A 
HETATM   12  N   UNL     1      44.050 -17.370   6.241  1.00  0.00    -0.364 N 
HETATM   13  C   UNL     1      43.412 -17.547   2.577  1.00  0.00     0.002 A 
HETATM   14  C   UNL     1      43.014 -16.223   2.419  1.00  0.00     0.001 A 
HETATM   15  H   UNL     1      44.364 -18.252   6.625  1.00  0.00     0.165 HD
HETATM   16  C   UNL     1      43.851 -16.223   6.960  1.00  0.00     0.102 A 
ENDBRANCH   6   7
ENDBRANCH   2   5
BRANCH   1  17
HETATM   17  C   UNL     1      43.720  -9.612   8.362  1.00  0.00     0.280 C 
BRANCH  17  18
HETATM   18  O   UNL     1      42.669  -9.758   9.315  1.00  0.00    -0.342 OA
BRANCH  18  19
HETATM   19  C   UNL     1      42.721  -8.863  10.355  1.00  0.00     0.075 A 
HETATM   20  C   UNL     1      42.382  -7.510  10.217  1.00  0.00     0.044 A 
HETATM   21  C   UNL     1      42.451  -6.641  11.314  1.00  0.00    -0.059 A 
HETATM   22  C   UNL     1      42.046  -5.203  11.179  1.00  0.00     0.048 C 
HETATM   23  C   UNL     1      42.859  -7.141  12.553  1.00  0.00     0.007 A 
HETATM   24  C   UNL     1      43.222  -8.482  12.689  1.00  0.00     0.010 A 
HETATM   25  C   UNL     1      43.171  -9.352  11.590  1.00  0.00    -0.029 A 
HETATM   26  C   UNL     1      43.545 -10.796  11.763  1.00  0.00     0.051 C 
ENDBRANCH  18  19
ENDBRANCH  17  18
ENDBRANCH   1  17
TORSDOF 5
ENDMDL
MODEL 9
REMARK VINA RESULT:      -7.8      2.084      3.014
REMARK  5 active torsions:
REMARK  status: ('A' for Active; 'I' for Inactive)
REMARK    1  A    between atoms: C_4  and  O_5 
REMARK    2  A    between atoms: O_5  and  C_6 
REMARK    3  A    between atoms: C_6  and  C_7 
REMARK       I    between atoms: C_7  and  N_8 
REMARK    4  A    between atoms: N_8  and  N_9 
REMARK    5  A    between atoms: C_10  and  C_11 
ROOT
HETATM    1  C   UNL     1      40.229 -14.730   2.651  1.00  0.00     0.261 C 
HETATM    2  N   UNL     1      40.197 -14.773   1.262  1.00  0.00    -0.246 N 
HETATM    3  O   UNL     1      39.856 -13.801   3.364  1.00  0.00    -0.269 OA
HETATM    4  H   UNL     1      40.400 -15.672   0.827  1.00  0.00     0.192 HD
ENDROOT
BRANCH   2   5
HETATM    5  N   UNL     1      39.678 -13.840   0.398  1.00  0.00    -0.184 NA
HETATM    6  C   UNL     1      39.535 -14.129  -0.856  1.00  0.00     0.152 C 
BRANCH   6   7
HETATM    7  C   UNL     1      39.021 -13.124  -1.767  1.00  0.00     0.011 A 
HETATM    8  C   UNL     1      39.665 -11.899  -2.138  1.00  0.00     0.004 A 
HETATM    9  C   UNL     1      38.820 -11.234  -3.027  1.00  0.00     0.043 A 
HETATM   10  C   UNL     1      40.887 -11.285  -1.788  1.00  0.00     0.014 A 
HETATM   11  C   UNL     1      39.136  -9.989  -3.586  1.00  0.00     0.030 A 
HETATM   12  N   UNL     1      37.707 -12.026  -3.196  1.00  0.00    -0.364 N 
HETATM   13  C   UNL     1      40.352  -9.403  -3.219  1.00  0.00     0.002 A 
HETATM   14  C   UNL     1      41.216 -10.039  -2.334  1.00  0.00     0.001 A 
HETATM   15  H   UNL     1      36.923 -11.792  -3.790  1.00  0.00     0.165 HD
HETATM   16  C   UNL     1      37.813 -13.159  -2.437  1.00  0.00     0.102 A 
ENDBRANCH   6   7
ENDBRANCH   2   5
BRANCH   1  17
HETATM   17  C   UNL     1      40.882 -15.966   3.263  1.00  0.00     0.280 C 
BRANCH  17  18
HETATM   18  O   UNL     1      42.302 -15.906   3.153  1.00  0.00    -0.342 OA
BRANCH  18  19
HETATM   19  C   UNL     1      42.936 -17.106   3.360  1.00  0.00     0.075 A 
HETATM   20  C   UNL     1      42.909 -18.156   2.433  1.00  0.00     0.044 A 
HETATM   21  C   UNL     1      43.578 -19.359   2.696  1.00  0.00    -0.059 A 
HETATM   22  C   UNL     1      43.587 -20.468   1.685  1.00  0.00     0.048 C 
HETATM   23  C   UNL     1      44.278 -19.499   3.896  1.00  0.00     0.007 A 
HETATM   24  C   UNL     1      44.286 -18.465   4.835  1.00  0.00     0.010 A 
HETATM   25  C   UNL     1      43.605 -17.266   4.583  1.00  0.00    -0.029 A 
HETATM   26  C   UNL     1      43.644 -16.158   5.596  1.00  0.00     0.051 C 
ENDBRANCH  18  19
ENDBRANCH  17  18
ENDBRANCH   1  17
TORSDOF 5
ENDMDL
MODEL 10
REMARK VINA RESULT:      -7.7      5.331      8.199
REMARK  5 active torsions:
REMARK  status: ('A' for Active; 'I' for Inactive)
REMARK    1  A    between atoms: C_4  and  O_5 
REMARK    2  A    between atoms: O_5  and  C_6 
REMARK    3  A    between atoms: C_6  and  C_7 
REMARK       I    between atoms: C_7  and  N_8 
REMARK    4  A    between atoms: N_8  and  N_9 
REMARK    5  A    between atoms: C_10  and  C_11 
ROOT
HETATM    1  C   UNL     1      41.190 -11.035   6.236  1.00  0.00     0.261 C 
HETATM    2  N   UNL     1      42.145 -11.244   5.249  1.00  0.00    -0.246 N 
HETATM    3  O   UNL     1      40.129 -11.643   6.369  1.00  0.00    -0.269 OA
HETATM    4  H   UNL     1      43.036 -10.763   5.366  1.00  0.00     0.192 HD
ENDROOT
BRANCH   2   5
HETATM    5  N   UNL     1      42.156 -12.208   4.270  1.00  0.00    -0.184 NA
HETATM    6  C   UNL     1      42.838 -13.294   4.439  1.00  0.00     0.152 C 
BRANCH   6   7
HETATM    7  C   UNL     1      42.872 -14.289   3.383  1.00  0.00     0.011 A 
HETATM    8  C   UNL     1      43.166 -15.683   3.533  1.00  0.00     0.004 A 
HETATM    9  C   UNL     1      43.093 -16.265   2.266  1.00  0.00     0.043 A 
HETATM   10  C   UNL     1      43.503 -16.504   4.630  1.00  0.00     0.014 A 
HETATM   11  C   UNL     1      43.336 -17.626   2.043  1.00  0.00     0.030 A 
HETATM   12  N   UNL     1      42.761 -15.266   1.381  1.00  0.00    -0.364 N 
HETATM   13  C   UNL     1      43.670 -18.416   3.148  1.00  0.00     0.002 A 
HETATM   14  C   UNL     1      43.752 -17.866   4.424  1.00  0.00     0.001 A 
HETATM   15  H   UNL     1      42.640 -15.399   0.386  1.00  0.00     0.165 HD
HETATM   16  C   UNL     1      42.635 -14.072   2.039  1.00  0.00     0.102 A 
ENDBRANCH   6   7
ENDBRANCH   2   5
BRANCH   1  17
HETATM   17  C   UNL     1      41.536  -9.866   7.153  1.00  0.00     0.280 C 
BRANCH  17  18
HETATM   18  O   UNL     1      42.906  -9.496   7.019  1.00  0.00    -0.342 OA
BRANCH  18  19
HETATM   19  C   UNL     1      43.626  -9.563   8.187  1.00  0.00     0.075 A 
HETATM   20  C   UNL     1      43.206  -8.964   9.381  1.00  0.00     0.044 A 
HETATM   21  C   UNL     1      43.980  -9.068  10.545  1.00  0.00    -0.059 A 
HETATM   22  C   UNL     1      43.510  -8.464  11.835  1.00  0.00     0.048 C 
HETATM   23  C   UNL     1      45.180  -9.782  10.501  1.00  0.00     0.007 A 
HETATM   24  C   UNL     1      45.615 -10.359   9.306  1.00  0.00     0.010 A 
HETATM   25  C   UNL     1      44.852 -10.244   8.136  1.00  0.00    -0.029 A 
HETATM   26  C   UNL     1      45.328 -10.891   6.867  1.00  0.00     0.051 C 
ENDBRANCH  18  19
ENDBRANCH  17  18
ENDBRANCH   1  17
TORSDOF 5
ENDMDL
