MODEL 1
REMARK VINA RESULT:      -8.5      0.000      0.000
REMARK  4 active torsions:
REMARK  status: ('A' for Active; 'I' for Inactive)
REMARK    1  A    between atoms: C_5  and  C_6 
REMARK    2  A    between atoms: C_6  and  N_7 
REMARK    3  A    between atoms: C_6  and  C_18 
REMARK    4  A    between atoms: N_7  and  C_8 
ROOT
HETATM    1  C   UNL     1      41.937 -15.839   3.247  1.00  0.00     0.290 C 
ENDROOT
BRANCH   1   2
HETATM    2  C   UNL     1      42.731 -17.146   3.289  1.00  0.00     0.021 A 
HETATM    3  C   UNL     1      42.558 -18.154   2.320  1.00  0.00     0.055 A 
HETATM    4  C   UNL     1      43.334 -19.314   2.342  1.00  0.00     0.117 A 
HETATM    5  C   UNL     1      44.328 -19.497   3.291  1.00  0.00     0.045 A 
HETATM    6  F   UNL     1      43.119 -20.261   1.422  1.00  0.00    -0.206 F 
HETATM    7  C   UNL     1      44.560 -18.494   4.225  1.00  0.00     0.046 A 
HETATM    8  C   UNL     1      43.779 -17.334   4.210  1.00  0.00     0.125 A 
HETATM    9  F   UNL     1      44.071 -16.392   5.118  1.00  0.00    -0.205 F 
ENDBRANCH   1   2
BRANCH   1  10
HETATM   10  N   UNL     1      42.635 -14.676   2.651  1.00  0.00     0.101 NA
HETATM   11  H   UNL     1      43.613 -14.951   2.546  1.00  0.00     0.317 HD
BRANCH  10  12
HETATM   12  C   UNL     1      42.146 -14.094   1.399  1.00  0.00     0.225 C 
HETATM   13  C   UNL     1      41.034 -14.918   0.721  1.00  0.00     0.069 C 
HETATM   14  C   UNL     1      40.501 -14.172  -0.487  1.00  0.00     0.190 C 
HETATM   15  N   UNL     1      39.954 -12.849  -0.028  1.00  0.00    -0.067 N 
HETATM   16  C   UNL     1      39.295 -14.764  -1.186  1.00  0.00     0.035 C 
HETATM   17  H   UNL     1      39.279 -13.033   0.731  1.00  0.00     0.280 HD
HETATM   18  C   UNL     1      41.015 -11.963   0.533  1.00  0.00     0.237 C 
HETATM   19  C   UNL     1      39.148 -12.320  -1.185  1.00  0.00     0.235 C 
HETATM   20  C   UNL     1      41.633 -12.670   1.736  1.00  0.00     0.063 C 
HETATM   21  C   UNL     1      38.735 -13.572  -1.961  1.00  0.00     0.030 C 
ENDBRANCH  10  12
ENDBRANCH   1  10
BRANCH   1  22
HETATM   22  C   UNL     1      41.163 -15.423   4.500  1.00  0.00    -0.018 A 
HETATM   23  C   UNL     1      41.044 -14.060   4.813  1.00  0.00     0.029 A 
HETATM   24  C   UNL     1      40.390 -13.690   5.978  1.00  0.00     0.116 A 
HETATM   25  N   UNL     1      39.860 -14.572   6.848  1.00  0.00    -0.273 NA
HETATM   26  C   UNL     1      39.968 -15.877   6.537  1.00  0.00     0.116 A 
HETATM   27  C   UNL     1      40.609 -16.345   5.399  1.00  0.00     0.029 A 
ENDBRANCH   1  22
TORSDOF 4
ENDMDL
MODEL 2
REMARK VINA RESULT:      -8.5      1.788      2.479
REMARK  4 active torsions:
REMARK  status: ('A' for Active; 'I' for Inactive)
REMARK    1  A    between atoms: C_5  and  C_6 
REMARK    2  A    between atoms: C_6  and  N_7 
REMARK    3  A    between atoms: C_6  and  C_18 
REMARK    4  A    between atoms: N_7  and  C_8 
ROOT
HETATM    1  C   UNL     1      41.573 -14.911   4.317  1.00  0.00     0.290 C 
ENDROOT
BRANCH   1   2
HETATM    2  C   UNL     1      42.432 -16.167   4.160  1.00  0.00     0.021 A 
HETATM    3  C   UNL     1      42.363 -16.979   3.012  1.00  0.00     0.055 A 
HETATM    4  C   UNL     1      43.198 -18.087   2.862  1.00  0.00     0.117 A 
HETATM    5  C   UNL     1      44.150 -18.405   3.818  1.00  0.00     0.045 A 
HETATM    6  F   UNL     1      43.081 -18.851   1.769  1.00  0.00    -0.206 F 
HETATM    7  C   UNL     1      44.280 -17.589   4.935  1.00  0.00     0.046 A 
HETATM    8  C   UNL     1      43.441 -16.482   5.091  1.00  0.00     0.125 A 
HETATM    9  F   UNL     1      43.635 -15.719   6.176  1.00  0.00    -0.205 F 
ENDBRANCH   1   2
BRANCH   1  10
HETATM   10  N   UNL     1      40.333 -14.870   3.507  1.00  0.00     0.101 NA
HETATM   11  H   UNL     1      39.586 -14.577   4.139  1.00  0.00     0.317 HD
BRANCH  10  12
HETATM   12  C   UNL     1      40.288 -14.069   2.282  1.00  0.00     0.225 C 
HETATM   13  C   UNL     1      39.987 -14.890   1.012  1.00  0.00     0.069 C 
HETATM   14  C   UNL     1      39.828 -13.963  -0.178  1.00  0.00     0.190 C 
HETATM   15  N   UNL     1      38.694 -13.016   0.104  1.00  0.00    -0.067 N 
HETATM   16  C   UNL     1      39.375 -14.586  -1.482  1.00  0.00     0.035 C 
HETATM   17  H   UNL     1      37.869 -13.580   0.359  1.00  0.00     0.280 HD
HETATM   18  C   UNL     1      38.984 -12.115   1.257  1.00  0.00     0.237 C 
HETATM   19  C   UNL     1      38.368 -12.371  -1.217  1.00  0.00     0.235 C 
HETATM   20  C   UNL     1      39.202 -12.984   2.492  1.00  0.00     0.063 C 
HETATM   21  C   UNL     1      38.836 -13.387  -2.260  1.00  0.00     0.030 C 
ENDBRANCH  10  12
ENDBRANCH   1  10
BRANCH   1  22
HETATM   22  C   UNL     1      42.272 -13.550   4.309  1.00  0.00    -0.018 A 
HETATM   23  C   UNL     1      41.886 -12.573   5.240  1.00  0.00     0.029 A 
HETATM   24  C   UNL     1      42.483 -11.323   5.193  1.00  0.00     0.116 A 
HETATM   25  N   UNL     1      43.420 -10.977   4.288  1.00  0.00    -0.273 NA
HETATM   26  C   UNL     1      43.793 -11.921   3.404  1.00  0.00     0.116 A 
HETATM   27  C   UNL     1      43.250 -13.197   3.368  1.00  0.00     0.029 A 
ENDBRANCH   1  22
TORSDOF 4
ENDMDL
MODEL 3
REMARK VINA RESULT:      -8.3      2.421      4.694
REMARK  4 active torsions:
REMARK  status: ('A' for Active; 'I' for Inactive)
REMARK    1  A    between atoms: C_5  and  C_6 
REMARK    2  A    between atoms: C_6  and  N_7 
REMARK    3  A    between atoms: C_6  and  C_18 
REMARK    4  A    between atoms: N_7  and  C_8 
ROOT
HETATM    1  C   UNL     1      43.743 -16.971   3.700  1.00  0.00     0.290 C 
ENDROOT
BRANCH   1   2
HETATM    2  C   UNL     1      43.209 -16.483   5.048  1.00  0.00     0.021 A 
HETATM    3  C   UNL     1      41.831 -16.436   5.332  1.00  0.00     0.055 A 
HETATM    4  C   UNL     1      41.368 -16.044   6.589  1.00  0.00     0.117 A 
HETATM    5  C   UNL     1      42.246 -15.726   7.613  1.00  0.00     0.045 A 
HETATM    6  F   UNL     1      40.049 -15.984   6.809  1.00  0.00    -0.206 F 
HETATM    7  C   UNL     1      43.613 -15.818   7.379  1.00  0.00     0.046 A 
HETATM    8  C   UNL     1      44.081 -16.204   6.119  1.00  0.00     0.125 A 
HETATM    9  F   UNL     1      45.409 -16.301   5.966  1.00  0.00    -0.205 F 
ENDBRANCH   1   2
BRANCH   1  10
HETATM   10  N   UNL     1      43.302 -16.201   2.513  1.00  0.00     0.101 NA
HETATM   11  H   UNL     1      42.999 -16.888   1.820  1.00  0.00     0.317 HD
BRANCH  10  12
HETATM   12  C   UNL     1      42.284 -15.158   2.656  1.00  0.00     0.225 C 
HETATM   13  C   UNL     1      42.793 -13.740   2.325  1.00  0.00     0.069 C 
HETATM   14  C   UNL     1      41.642 -12.754   2.370  1.00  0.00     0.190 C 
HETATM   15  N   UNL     1      40.610 -13.179   1.363  1.00  0.00    -0.067 N 
HETATM   16  C   UNL     1      41.930 -11.338   1.918  1.00  0.00     0.035 C 
HETATM   17  H   UNL     1      41.083 -13.288   0.453  1.00  0.00     0.280 HD
HETATM   18  C   UNL     1      39.998 -14.497   1.702  1.00  0.00     0.237 C 
HETATM   19  C   UNL     1      39.682 -12.002   1.213  1.00  0.00     0.235 C 
HETATM   20  C   UNL     1      41.111 -15.542   1.719  1.00  0.00     0.063 C 
HETATM   21  C   UNL     1      40.538 -10.795   1.600  1.00  0.00     0.030 C 
ENDBRANCH  10  12
ENDBRANCH   1  10
BRANCH   1  22
HETATM   22  C   UNL     1      43.718 -18.473   3.412  1.00  0.00    -0.018 A 
HETATM   23  C   UNL     1      44.103 -19.372   4.419  1.00  0.00     0.029 A 
HETATM   24  C   UNL     1      44.133 -20.729   4.136  1.00  0.00     0.116 A 
HETATM   25  N   UNL     1      43.818 -21.248   2.933  1.00  0.00    -0.273 NA
HETATM   26  C   UNL     1      43.440 -20.381   1.974  1.00  0.00     0.116 A 
HETATM   27  C   UNL     1      43.385 -19.007   2.159  1.00  0.00     0.029 A 
ENDBRANCH   1  22
TORSDOF 4
ENDMDL
MODEL 4
REMARK VINA RESULT:      -8.2      2.198      4.471
REMARK  4 active torsions:
REMARK  status: ('A' for Active; 'I' for Inactive)
REMARK    1  A    between atoms: C_5  and  C_6 
REMARK    2  A    between atoms: C_6  and  N_7 
REMARK    3  A    between atoms: C_6  and  C_18 
REMARK    4  A    between atoms: N_7  and  C_8 
ROOT
HETATM    1  C   UNL     1      42.754 -16.671   3.380  1.00  0.00     0.290 C 
ENDROOT
BRANCH   1   2
HETATM    2  C   UNL     1      42.762 -16.018   4.763  1.00  0.00     0.021 A 
HETATM    3  C   UNL     1      43.709 -15.039   5.121  1.00  0.00     0.055 A 
HETATM    4  C   UNL     1      43.663 -14.413   6.367  1.00  0.00     0.117 A 
HETATM    5  C   UNL     1      42.661 -14.702   7.280  1.00  0.00     0.045 A 
HETATM    6  F   UNL     1      44.600 -13.510   6.680  1.00  0.00    -0.206 F 
HETATM    7  C   UNL     1      41.679 -15.622   6.933  1.00  0.00     0.046 A 
HETATM    8  C   UNL     1      41.726 -16.256   5.688  1.00  0.00     0.125 A 
HETATM    9  F   UNL     1      40.735 -17.111   5.402  1.00  0.00    -0.205 F 
ENDBRANCH   1   2
BRANCH   1  10
HETATM   10  N   UNL     1      41.551 -16.420   2.552  1.00  0.00     0.101 NA
HETATM   11  H   UNL     1      40.758 -16.792   3.077  1.00  0.00     0.317 HD
BRANCH  10  12
HETATM   12  C   UNL     1      41.250 -15.061   2.095  1.00  0.00     0.225 C 
HETATM   13  C   UNL     1      40.954 -14.963   0.585  1.00  0.00     0.069 C 
HETATM   14  C   UNL     1      40.524 -13.552   0.233  1.00  0.00     0.190 C 
HETATM   15  N   UNL     1      39.289 -13.219   1.022  1.00  0.00    -0.067 N 
HETATM   16  C   UNL     1      40.044 -13.311  -1.183  1.00  0.00     0.035 C 
HETATM   17  H   UNL     1      38.596 -13.964   0.854  1.00  0.00     0.280 HD
HETATM   18  C   UNL     1      39.549 -13.185   2.491  1.00  0.00     0.237 C 
HETATM   19  C   UNL     1      38.727 -11.973   0.389  1.00  0.00     0.235 C 
HETATM   20  C   UNL     1      40.032 -14.569   2.916  1.00  0.00     0.063 C 
HETATM   21  C   UNL     1      39.241 -12.018  -1.051  1.00  0.00     0.030 C 
ENDBRANCH  10  12
ENDBRANCH   1  10
BRANCH   1  22
HETATM   22  C   UNL     1      43.195 -18.132   3.267  1.00  0.00    -0.018 A 
HETATM   23  C   UNL     1      42.886 -18.855   2.104  1.00  0.00     0.029 A 
HETATM   24  C   UNL     1      43.238 -20.194   2.029  1.00  0.00     0.116 A 
HETATM   25  N   UNL     1      43.860 -20.858   3.022  1.00  0.00    -0.273 NA
HETATM   26  C   UNL     1      44.162 -20.157   4.131  1.00  0.00     0.116 A 
HETATM   27  C   UNL     1      43.846 -18.817   4.302  1.00  0.00     0.029 A 
ENDBRANCH   1  22
TORSDOF 4
ENDMDL
MODEL 5
REMARK VINA RESULT:      -8.2      2.164      5.036
REMARK  4 active torsions:
REMARK  status: ('A' for Active; 'I' for Inactive)
REMARK    1  A    between atoms: C_5  and  C_6 
REMARK    2  A    between atoms: C_6  and  N_7 
REMARK    3  A    between atoms: C_6  and  C_18 
REMARK    4  A    between atoms: N_7  and  C_8 
ROOT
HETATM    1  C   UNL     1      42.351 -16.198   3.807  1.00  0.00     0.290 C 
ENDROOT
BRANCH   1   2
HETATM    2  C   UNL     1      42.947 -17.602   3.682  1.00  0.00     0.021 A 
HETATM    3  C   UNL     1      42.878 -18.337   2.483  1.00  0.00     0.055 A 
HETATM    4  C   UNL     1      43.479 -19.591   2.373  1.00  0.00     0.117 A 
HETATM    5  C   UNL     1      44.198 -20.140   3.423  1.00  0.00     0.045 A 
HETATM    6  F   UNL     1      43.365 -20.272   1.225  1.00  0.00    -0.206 F 
HETATM    7  C   UNL     1      44.331 -19.412   4.600  1.00  0.00     0.046 A 
HETATM    8  C   UNL     1      43.724 -18.158   4.716  1.00  0.00     0.125 A 
HETATM    9  F   UNL     1      43.914 -17.495   5.865  1.00  0.00    -0.205 F 
ENDBRANCH   1   2
BRANCH   1  10
HETATM   10  N   UNL     1      41.513 -15.955   5.004  1.00  0.00     0.101 NA
HETATM   11  H   UNL     1      41.567 -16.803   5.571  1.00  0.00     0.317 HD
BRANCH  10  12
HETATM   12  C   UNL     1      41.762 -14.780   5.843  1.00  0.00     0.225 C 
HETATM   13  C   UNL     1      43.229 -14.308   5.837  1.00  0.00     0.069 C 
HETATM   14  C   UNL     1      43.361 -13.016   6.620  1.00  0.00     0.190 C 
HETATM   15  N   UNL     1      42.483 -11.978   5.979  1.00  0.00    -0.067 N 
HETATM   16  C   UNL     1      44.708 -12.325   6.588  1.00  0.00     0.035 C 
HETATM   17  H   UNL     1      42.727 -11.933   4.978  1.00  0.00     0.280 HD
HETATM   18  C   UNL     1      41.036 -12.331   6.063  1.00  0.00     0.237 C 
HETATM   19  C   UNL     1      42.911 -10.662   6.574  1.00  0.00     0.235 C 
HETATM   20  C   UNL     1      40.830 -13.654   5.328  1.00  0.00     0.063 C 
HETATM   21  C   UNL     1      44.362 -10.894   6.997  1.00  0.00     0.030 C 
ENDBRANCH  10  12
ENDBRANCH   1  10
BRANCH   1  22
HETATM   22  C   UNL     1      41.718 -15.567   2.565  1.00  0.00    -0.018 A 
HETATM   23  C   UNL     1      42.320 -14.440   1.984  1.00  0.00     0.029 A 
HETATM   24  C   UNL     1      41.713 -13.838   0.892  1.00  0.00     0.116 A 
HETATM   25  N   UNL     1      40.557 -14.269   0.351  1.00  0.00    -0.273 NA
HETATM   26  C   UNL     1      39.989 -15.356   0.906  1.00  0.00     0.116 A 
HETATM   27  C   UNL     1      40.517 -16.022   2.002  1.00  0.00     0.029 A 
ENDBRANCH   1  22
TORSDOF 4
ENDMDL
MODEL 6
REMARK VINA RESULT:      -8.1      2.347      4.322
REMARK  4 active torsions:
REMARK  status: ('A' for Active; 'I' for Inactive)
REMARK    1  A    between atoms: C_5  and  C_6 
REMARK    2  A    between atoms: C_6  and  N_7 
REMARK    3  A    between atoms: C_6  and  C_18 
REMARK    4  A    between atoms: N_7  and  C_8 
ROOT
HETATM    1  C   UNL     1      42.472 -15.475   3.426  1.00  0.00     0.290 C 
ENDROOT
BRANCH   1   2
HETATM    2  C   UNL     1      42.772 -14.708   4.715  1.00  0.00     0.021 A 
HETATM    3  C   UNL     1      42.713 -15.324   5.980  1.00  0.00     0.055 A 
HETATM    4  C   UNL     1      43.048 -14.621   7.139  1.00  0.00     0.117 A 
HETATM    5  C   UNL     1      43.488 -13.308   7.082  1.00  0.00     0.045 A 
HETATM    6  F   UNL     1      42.951 -15.234   8.325  1.00  0.00    -0.206 F 
HETATM    7  C   UNL     1      43.611 -12.692   5.842  1.00  0.00     0.046 A 
HETATM    8  C   UNL     1      43.270 -13.391   4.680  1.00  0.00     0.125 A 
HETATM    9  F   UNL     1      43.437 -12.751   3.515  1.00  0.00    -0.205 F 
ENDBRANCH   1   2
BRANCH   1  10
HETATM   10  N   UNL     1      41.093 -15.342   2.900  1.00  0.00     0.101 NA
HETATM   11  H   UNL     1      40.505 -15.085   3.695  1.00  0.00     0.317 HD
BRANCH  10  12
HETATM   12  C   UNL     1      40.825 -14.445   1.773  1.00  0.00     0.225 C 
HETATM   13  C   UNL     1      40.212 -15.150   0.547  1.00  0.00     0.069 C 
HETATM   14  C   UNL     1      39.847 -14.125  -0.510  1.00  0.00     0.190 C 
HETATM   15  N   UNL     1      38.854 -13.164   0.081  1.00  0.00    -0.067 N 
HETATM   16  C   UNL     1      39.089 -14.625  -1.722  1.00  0.00     0.035 C 
HETATM   17  H   UNL     1      38.075 -13.716   0.472  1.00  0.00     0.280 HD
HETATM   18  C   UNL     1      39.435 -12.368   1.202  1.00  0.00     0.237 C 
HETATM   19  C   UNL     1      38.283 -12.403  -1.086  1.00  0.00     0.235 C 
HETATM   20  C   UNL     1      39.870 -13.341   2.294  1.00  0.00     0.063 C 
HETATM   21  C   UNL     1      38.458 -13.348  -2.276  1.00  0.00     0.030 C 
ENDBRANCH  10  12
ENDBRANCH   1  10
BRANCH   1  22
HETATM   22  C   UNL     1      42.957 -16.922   3.315  1.00  0.00    -0.018 A 
HETATM   23  C   UNL     1      43.900 -17.403   4.237  1.00  0.00     0.029 A 
HETATM   24  C   UNL     1      44.379 -18.697   4.099  1.00  0.00     0.116 A 
HETATM   25  N   UNL     1      43.997 -19.533   3.114  1.00  0.00    -0.273 NA
HETATM   26  C   UNL     1      43.085 -19.069   2.238  1.00  0.00     0.116 A 
HETATM   27  C   UNL     1      42.552 -17.789   2.290  1.00  0.00     0.029 A 
ENDBRANCH   1  22
TORSDOF 4
ENDMDL
MODEL 7
REMARK VINA RESULT:      -7.7      2.621      4.782
REMARK  4 active torsions:
REMARK  status: ('A' for Active; 'I' for Inactive)
REMARK    1  A    between atoms: C_5  and  C_6 
REMARK    2  A    between atoms: C_6  and  N_7 
REMARK    3  A    between atoms: C_6  and  C_18 
REMARK    4  A    between atoms: N_7  and  C_8 
ROOT
HETATM    1  C   UNL     1      41.994 -14.294   2.847  1.00  0.00     0.290 C 
ENDROOT
BRANCH   1   2
HETATM    2  C   UNL     1      41.971 -13.155   3.869  1.00  0.00     0.021 A 
HETATM    3  C   UNL     1      40.951 -13.040   4.833  1.00  0.00     0.055 A 
HETATM    4  C   UNL     1      40.980 -12.027   5.793  1.00  0.00     0.117 A 
HETATM    5  C   UNL     1      42.032 -11.126   5.858  1.00  0.00     0.045 A 
HETATM    6  F   UNL     1      39.977 -11.934   6.674  1.00  0.00    -0.206 F 
HETATM    7  C   UNL     1      43.081 -11.251   4.954  1.00  0.00     0.046 A 
HETATM    8  C   UNL     1      43.051 -12.260   3.987  1.00  0.00     0.125 A 
HETATM    9  F   UNL     1      44.106 -12.344   3.164  1.00  0.00    -0.205 F 
ENDBRANCH   1   2
BRANCH   1  10
HETATM   10  N   UNL     1      40.706 -14.588   2.177  1.00  0.00     0.101 NA
HETATM   11  H   UNL     1      39.971 -14.319   2.834  1.00  0.00     0.317 HD
BRANCH  10  12
HETATM   12  C   UNL     1      40.423 -14.021   0.856  1.00  0.00     0.225 C 
HETATM   13  C   UNL     1      39.851 -15.039  -0.150  1.00  0.00     0.069 C 
HETATM   14  C   UNL     1      39.466 -14.334  -1.437  1.00  0.00     0.190 C 
HETATM   15  N   UNL     1      38.433 -13.290  -1.118  1.00  0.00    -0.067 N 
HETATM   16  C   UNL     1      38.743 -15.156  -2.483  1.00  0.00     0.035 C 
HETATM   17  H   UNL     1      37.668 -13.750  -0.601  1.00  0.00     0.280 HD
HETATM   18  C   UNL     1      38.971 -12.213  -0.237  1.00  0.00     0.237 C 
HETATM   19  C   UNL     1      37.853 -12.875  -2.444  1.00  0.00     0.235 C 
HETATM   20  C   UNL     1      39.424 -12.856   1.072  1.00  0.00     0.063 C 
HETATM   21  C   UNL     1      38.076 -14.088  -3.349  1.00  0.00     0.030 C 
ENDBRANCH  10  12
ENDBRANCH   1  10
BRANCH   1  22
HETATM   22  C   UNL     1      42.719 -15.588   3.221  1.00  0.00    -0.018 A 
HETATM   23  C   UNL     1      42.842 -16.608   2.265  1.00  0.00     0.029 A 
HETATM   24  C   UNL     1      43.450 -17.801   2.626  1.00  0.00     0.116 A 
HETATM   25  N   UNL     1      43.930 -18.050   3.860  1.00  0.00    -0.273 NA
HETATM   26  C   UNL     1      43.817 -17.064   4.770  1.00  0.00     0.116 A 
HETATM   27  C   UNL     1      43.220 -15.840   4.506  1.00  0.00     0.029 A 
ENDBRANCH   1  22
TORSDOF 4
ENDMDL
MODEL 8
REMARK VINA RESULT:      -7.6      2.867      6.573
REMARK  4 active torsions:
REMARK  status: ('A' for Active; 'I' for Inactive)
REMARK    1  A    between atoms: C_5  and  C_6 
REMARK    2  A    between atoms: C_6  and  N_7 
REMARK    3  A    between atoms: C_6  and  C_18 
REMARK    4  A    between atoms: N_7  and  C_8 
ROOT
HETATM    1  C   UNL     1      40.962 -13.821   2.022  1.00  0.00     0.290 C 
ENDROOT
BRANCH   1   2
HETATM    2  C   UNL     1      40.324 -13.521   0.664  1.00  0.00     0.021 A 
HETATM    3  C   UNL     1      40.378 -12.241   0.081  1.00  0.00     0.055 A 
HETATM    4  C   UNL     1      39.841 -12.002  -1.184  1.00  0.00     0.117 A 
HETATM    5  C   UNL     1      39.273 -13.024  -1.929  1.00  0.00     0.045 A 
HETATM    6  F   UNL     1      39.885 -10.764  -1.691  1.00  0.00    -0.206 F 
HETATM    7  C   UNL     1      39.257 -14.311  -1.404  1.00  0.00     0.046 A 
HETATM    8  C   UNL     1      39.788 -14.551  -0.133  1.00  0.00     0.125 A 
HETATM    9  F   UNL     1      39.768 -15.818   0.305  1.00  0.00    -0.205 F 
ENDBRANCH   1   2
BRANCH   1  10
HETATM   10  N   UNL     1      40.149 -14.639   2.952  1.00  0.00     0.101 NA
HETATM   11  H   UNL     1      39.287 -14.869   2.455  1.00  0.00     0.317 HD
BRANCH  10  12
HETATM   12  C   UNL     1      40.718 -15.852   3.546  1.00  0.00     0.225 C 
HETATM   13  C   UNL     1      41.931 -16.412   2.777  1.00  0.00     0.069 C 
HETATM   14  C   UNL     1      42.530 -17.580   3.537  1.00  0.00     0.190 C 
HETATM   15  N   UNL     1      42.959 -17.097   4.894  1.00  0.00    -0.067 N 
HETATM   16  C   UNL     1      43.826 -18.157   3.006  1.00  0.00     0.035 C 
HETATM   17  H   UNL     1      43.570 -16.277   4.759  1.00  0.00     0.280 HD
HETATM   18  C   UNL     1      41.803 -16.650   5.726  1.00  0.00     0.237 C 
HETATM   19  C   UNL     1      43.836 -18.186   5.454  1.00  0.00     0.235 C 
HETATM   20  C   UNL     1      41.118 -15.496   5.000  1.00  0.00     0.063 C 
HETATM   21  C   UNL     1      44.387 -18.899   4.218  1.00  0.00     0.030 C 
ENDBRANCH  10  12
ENDBRANCH   1  10
BRANCH   1  22
HETATM   22  C   UNL     1      41.650 -12.676   2.767  1.00  0.00    -0.018 A 
HETATM   23  C   UNL     1      43.052 -12.629   2.811  1.00  0.00     0.029 A 
HETATM   24  C   UNL     1      43.671 -11.621   3.535  1.00  0.00     0.116 A 
HETATM   25  N   UNL     1      43.000 -10.672   4.216  1.00  0.00    -0.273 NA
HETATM   26  C   UNL     1      41.656 -10.716   4.162  1.00  0.00     0.116 A 
HETATM   27  C   UNL     1      40.947 -11.688   3.471  1.00  0.00     0.029 A 
ENDBRANCH   1  22
TORSDOF 4
ENDMDL
MODEL 9
REMARK VINA RESULT:      -7.6      2.378      4.656
REMARK  4 active torsions:
REMARK  status: ('A' for Active; 'I' for Inactive)
REMARK    1  A    between atoms: C_5  and  C_6 
REMARK    2  A    between atoms: C_6  and  N_7 
REMARK    3  A    between atoms: C_6  and  C_18 
REMARK    4  A    between atoms: N_7  and  C_8 
ROOT
HETATM    1  C   UNL     1      42.167 -15.902   3.637  1.00  0.00     0.290 C 
ENDROOT
BRANCH   1   2
HETATM    2  C   UNL     1      42.570 -15.031   4.829  1.00  0.00     0.021 A 
HETATM    3  C   UNL     1      42.579 -15.527   6.146  1.00  0.00     0.055 A 
HETATM    4  C   UNL     1      43.006 -14.734   7.212  1.00  0.00     0.117 A 
HETATM    5  C   UNL     1      43.474 -13.445   7.007  1.00  0.00     0.045 A 
HETATM    6  F   UNL     1      42.972 -15.233   8.453  1.00  0.00    -0.206 F 
HETATM    7  C   UNL     1      43.529 -12.948   5.710  1.00  0.00     0.046 A 
HETATM    8  C   UNL     1      43.096 -13.738   4.641  1.00  0.00     0.125 A 
HETATM    9  F   UNL     1      43.202 -13.211   3.414  1.00  0.00    -0.205 F 
ENDBRANCH   1   2
BRANCH   1  10
HETATM   10  N   UNL     1      40.711 -16.039   3.399  1.00  0.00     0.101 NA
HETATM   11  H   UNL     1      40.266 -16.026   4.318  1.00  0.00     0.317 HD
BRANCH  10  12
HETATM   12  C   UNL     1      40.026 -15.104   2.503  1.00  0.00     0.225 C 
HETATM   13  C   UNL     1      39.780 -13.714   3.123  1.00  0.00     0.069 C 
HETATM   14  C   UNL     1      39.193 -12.780   2.082  1.00  0.00     0.190 C 
HETATM   15  N   UNL     1      40.163 -12.669   0.939  1.00  0.00    -0.067 N 
HETATM   16  C   UNL     1      39.030 -11.326   2.473  1.00  0.00     0.035 C 
HETATM   17  H   UNL     1      41.080 -12.402   1.328  1.00  0.00     0.280 HD
HETATM   18  C   UNL     1      40.349 -13.968   0.228  1.00  0.00     0.237 C 
HETATM   19  C   UNL     1      39.695 -11.493   0.123  1.00  0.00     0.235 C 
HETATM   20  C   UNL     1      40.900 -14.979   1.229  1.00  0.00     0.063 C 
HETATM   21  C   UNL     1      38.930 -10.622   1.121  1.00  0.00     0.030 C 
ENDBRANCH  10  12
ENDBRANCH   1  10
BRANCH   1  22
HETATM   22  C   UNL     1      42.876 -17.245   3.450  1.00  0.00    -0.018 A 
HETATM   23  C   UNL     1      42.588 -18.022   2.317  1.00  0.00     0.029 A 
HETATM   24  C   UNL     1      43.190 -19.263   2.180  1.00  0.00     0.116 A 
HETATM   25  N   UNL     1      44.042 -19.783   3.085  1.00  0.00    -0.273 NA
HETATM   26  C   UNL     1      44.322 -19.029   4.164  1.00  0.00     0.116 A 
HETATM   27  C   UNL     1      43.765 -17.779   4.393  1.00  0.00     0.029 A 
ENDBRANCH   1  22
TORSDOF 4
ENDMDL
MODEL 10
REMARK VINA RESULT:      -7.5      2.984      6.125
REMARK  4 active torsions:
REMARK  status: ('A' for Active; 'I' for Inactive)
REMARK    1  A    between atoms: C_5  and  C_6 
REMARK    2  A    between atoms: C_6  and  N_7 
REMARK    3  A    between atoms: C_6  and  C_18 
REMARK    4  A    between atoms: N_7  and  C_8 
ROOT
HETATM    1  C   UNL     1      41.856 -13.243   1.605  1.00  0.00     0.290 C 
ENDROOT
BRANCH   1   2
HETATM    2  C   UNL     1      42.004 -14.549   2.389  1.00  0.00     0.021 A 
HETATM    3  C   UNL     1      40.987 -15.029   3.237  1.00  0.00     0.055 A 
HETATM    4  C   UNL     1      41.118 -16.251   3.897  1.00  0.00     0.117 A 
HETATM    5  C   UNL     1      42.233 -17.054   3.712  1.00  0.00     0.045 A 
HETATM    6  F   UNL     1      40.142 -16.658   4.718  1.00  0.00    -0.206 F 
HETATM    7  C   UNL     1      43.227 -16.632   2.837  1.00  0.00     0.046 A 
HETATM    8  C   UNL     1      43.102 -15.405   2.178  1.00  0.00     0.125 A 
HETATM    9  F   UNL     1      44.081 -15.069   1.327  1.00  0.00    -0.205 F 
ENDBRANCH   1   2
BRANCH   1  10
HETATM   10  N   UNL     1      42.111 -11.998   2.367  1.00  0.00     0.101 NA
HETATM   11  H   UNL     1      41.288 -11.407   2.236  1.00  0.00     0.317 HD
BRANCH  10  12
HETATM   12  C   UNL     1      42.449 -12.069   3.790  1.00  0.00     0.225 C 
HETATM   13  C   UNL     1      43.929 -11.764   4.095  1.00  0.00     0.069 C 
HETATM   14  C   UNL     1      44.151 -11.729   5.595  1.00  0.00     0.190 C 
HETATM   15  N   UNL     1      43.273 -10.660   6.183  1.00  0.00    -0.067 N 
HETATM   16  C   UNL     1      45.517 -11.289   6.079  1.00  0.00     0.035 C 
HETATM   17  H   UNL     1      43.459  -9.783   5.672  1.00  0.00     0.280 HD
HETATM   18  C   UNL     1      41.822 -10.966   6.017  1.00  0.00     0.237 C 
HETATM   19  C   UNL     1      43.781 -10.444   7.584  1.00  0.00     0.235 C 
HETATM   20  C   UNL     1      41.528 -11.061   4.523  1.00  0.00     0.063 C 
HETATM   21  C   UNL     1      45.246 -10.879   7.526  1.00  0.00     0.030 C 
ENDBRANCH  10  12
ENDBRANCH   1  10
BRANCH   1  22
HETATM   22  C   UNL     1      40.639 -13.082   0.692  1.00  0.00    -0.018 A 
HETATM   23  C   UNL     1      40.396 -14.040  -0.305  1.00  0.00     0.029 A 
HETATM   24  C   UNL     1      39.324 -13.859  -1.166  1.00  0.00     0.116 A 
HETATM   25  N   UNL     1      38.493 -12.800  -1.112  1.00  0.00    -0.273 NA
HETATM   26  C   UNL     1      38.726 -11.890  -0.148  1.00  0.00     0.116 A 
HETATM   27  C   UNL     1      39.775 -11.979   0.756  1.00  0.00     0.029 A 
ENDBRANCH   1  22
TORSDOF 4
ENDMDL
