MODEL 1
REMARK VINA RESULT:      -9.5      0.000      0.000
REMARK  6 active torsions:
REMARK  status: ('A' for Active; 'I' for Inactive)
REMARK    1  A    between atoms: C_4  and  C_5 
REMARK    2  A    between atoms: C_5  and  N_6 
REMARK    3  A    between atoms: C_7  and  N_8 
REMARK    4  A    between atoms: N_8  and  N_9 
REMARK       I    between atoms: N_9  and  C_10 
REMARK    5  A    between atoms: C_10  and  C_11 
REMARK    6  A    between atoms: C_19  and  C_20 
ROOT
HETATM    1  N   UNL     1      41.467 -12.656   2.762  1.00  0.00    -0.168 NA
HETATM    2  C   UNL     1      40.977 -12.653   4.059  1.00  0.00     0.250 C 
HETATM    3  O   UNL     1      39.783 -12.439   4.253  1.00  0.00    -0.272 OA
HETATM    4  H   UNL     1      40.742 -12.382   2.100  1.00  0.00     0.156 HD
ENDROOT
BRANCH   2   5
HETATM    5  C   UNL     1      41.920 -12.783   5.208  1.00  0.00     0.042 A 
HETATM    6  C   UNL     1      42.092 -14.041   5.843  1.00  0.00     0.008 A 
HETATM    7  C   UNL     1      43.022 -14.087   6.899  1.00  0.00     0.068 A 
HETATM    8  C   UNL     1      41.403 -15.238   5.506  1.00  0.00     0.015 A 
HETATM    9  C   UNL     1      43.248 -15.289   7.555  1.00  0.00     0.032 A 
HETATM   10  N   UNL     1      43.708 -13.013   7.318  1.00  0.00    -0.248 NA
HETATM   11  C   UNL     1      42.575 -16.462   7.206  1.00  0.00     0.002 A 
HETATM   12  C   UNL     1      41.646 -16.434   6.180  1.00  0.00     0.001 A 
HETATM   13  C   UNL     1      43.513 -11.818   6.716  1.00  0.00     0.069 A 
HETATM   14  C   UNL     1      42.657 -11.678   5.636  1.00  0.00     0.050 A 
BRANCH  13  15
HETATM   15  C   UNL     1      44.263 -10.690   7.294  1.00  0.00    -0.005 A 
HETATM   16  C   UNL     1      43.591  -9.593   7.852  1.00  0.00     0.033 A 
HETATM   17  C   UNL     1      44.326  -8.540   8.373  1.00  0.00     0.117 A 
HETATM   18  N   UNL     1      45.674  -8.495   8.377  1.00  0.00    -0.273 NA
HETATM   19  C   UNL     1      46.311  -9.543   7.819  1.00  0.00     0.117 A 
HETATM   20  C   UNL     1      45.663 -10.644   7.279  1.00  0.00     0.033 A 
ENDBRANCH  13  15
ENDBRANCH   2   5
BRANCH   1  21
HETATM   21  N   UNL     1      42.225 -13.753   2.306  1.00  0.00    -0.291 N 
HETATM   22  H   UNL     1      43.168 -13.791   2.673  1.00  0.00     0.183 HD
BRANCH  21  23
HETATM   23  C   UNL     1      41.635 -14.880   1.792  1.00  0.00     0.182 C 
HETATM   24  N   UNL     1      42.255 -16.065   2.040  1.00  0.00    -0.362 N 
HETATM   25  H   UNL     1      41.778 -16.858   1.624  1.00  0.00     0.162 HD
HETATM   26  S   UNL     1      40.269 -14.914   0.829  1.00  0.00    -0.040 SA
BRANCH  24  27
HETATM   27  C   UNL     1      43.390 -16.385   2.891  1.00  0.00     0.160 C 
BRANCH  27  28
HETATM   28  C   UNL     1      43.527 -17.871   3.087  1.00  0.00    -0.041 A 
HETATM   29  C   UNL     1      44.100 -18.385   4.259  1.00  0.00     0.009 A 
HETATM   30  C   UNL     1      44.217 -19.764   4.446  1.00  0.00     0.001 A 
HETATM   31  C   UNL     1      43.773 -20.642   3.460  1.00  0.00     0.000 A 
HETATM   32  C   UNL     1      43.210 -20.144   2.287  1.00  0.00     0.001 A 
HETATM   33  C   UNL     1      43.085 -18.766   2.101  1.00  0.00     0.009 A 
ENDBRANCH  27  28
ENDBRANCH  24  27
ENDBRANCH  21  23
ENDBRANCH   1  21
TORSDOF 6
ENDMDL
MODEL 2
REMARK VINA RESULT:      -8.6      2.292      7.659
REMARK  6 active torsions:
REMARK  status: ('A' for Active; 'I' for Inactive)
REMARK    1  A    between atoms: C_4  and  C_5 
REMARK    2  A    between atoms: C_5  and  N_6 
REMARK    3  A    between atoms: C_7  and  N_8 
REMARK    4  A    between atoms: N_8  and  N_9 
REMARK       I    between atoms: N_9  and  C_10 
REMARK    5  A    between atoms: C_10  and  C_11 
REMARK    6  A    between atoms: C_19  and  C_20 
ROOT
HETATM    1  N   UNL     1      41.788 -13.645   6.311  1.00  0.00    -0.168 NA
HETATM    2  C   UNL     1      40.957 -14.607   5.757  1.00  0.00     0.250 C 
HETATM    3  O   UNL     1      40.128 -15.170   6.469  1.00  0.00    -0.272 OA
HETATM    4  H   UNL     1      41.651 -13.584   7.319  1.00  0.00     0.156 HD
ENDROOT
BRANCH   2   5
HETATM    5  C   UNL     1      41.161 -15.037   4.344  1.00  0.00     0.042 A 
HETATM    6  C   UNL     1      42.051 -16.105   4.051  1.00  0.00     0.008 A 
HETATM    7  C   UNL     1      42.164 -16.470   2.696  1.00  0.00     0.068 A 
HETATM    8  C   UNL     1      42.829 -16.816   5.003  1.00  0.00     0.015 A 
HETATM    9  C   UNL     1      43.007 -17.514   2.341  1.00  0.00     0.032 A 
HETATM   10  N   UNL     1      41.498 -15.848   1.711  1.00  0.00    -0.248 NA
HETATM   11  C   UNL     1      43.757 -18.216   3.287  1.00  0.00     0.002 A 
HETATM   12  C   UNL     1      43.670 -17.863   4.623  1.00  0.00     0.001 A 
HETATM   13  C   UNL     1      40.673 -14.819   2.008  1.00  0.00     0.069 A 
HETATM   14  C   UNL     1      40.454 -14.414   3.314  1.00  0.00     0.050 A 
BRANCH  13  15
HETATM   15  C   UNL     1      40.042 -14.162   0.850  1.00  0.00    -0.005 A 
HETATM   16  C   UNL     1      39.611 -12.830   0.928  1.00  0.00     0.033 A 
HETATM   17  C   UNL     1      39.006 -12.246  -0.173  1.00  0.00     0.117 A 
HETATM   18  N   UNL     1      38.794 -12.886  -1.341  1.00  0.00    -0.273 NA
HETATM   19  C   UNL     1      39.191 -14.173  -1.400  1.00  0.00     0.117 A 
HETATM   20  C   UNL     1      39.810 -14.841  -0.353  1.00  0.00     0.033 A 
ENDBRANCH  13  15
ENDBRANCH   2   5
BRANCH   1  21
HETATM   21  N   UNL     1      41.889 -12.377   5.704  1.00  0.00    -0.291 N 
HETATM   22  H   UNL     1      41.359 -11.649   6.167  1.00  0.00     0.183 HD
BRANCH  21  23
HETATM   23  C   UNL     1      42.924 -12.055   4.864  1.00  0.00     0.182 C 
HETATM   24  N   UNL     1      44.168 -12.009   5.414  1.00  0.00    -0.362 N 
HETATM   25  H   UNL     1      44.889 -11.753   4.746  1.00  0.00     0.162 HD
HETATM   26  S   UNL     1      42.781 -11.641   3.251  1.00  0.00    -0.040 SA
BRANCH  24  27
HETATM   27  C   UNL     1      44.637 -12.383   6.739  1.00  0.00     0.160 C 
BRANCH  27  28
HETATM   28  C   UNL     1      44.912 -11.170   7.585  1.00  0.00    -0.041 A 
HETATM   29  C   UNL     1      46.079 -10.415   7.390  1.00  0.00     0.009 A 
HETATM   30  C   UNL     1      46.329  -9.283   8.168  1.00  0.00     0.001 A 
HETATM   31  C   UNL     1      45.424  -8.900   9.155  1.00  0.00     0.000 A 
HETATM   32  C   UNL     1      44.266  -9.646   9.365  1.00  0.00     0.001 A 
HETATM   33  C   UNL     1      44.010 -10.774   8.584  1.00  0.00     0.009 A 
ENDBRANCH  27  28
ENDBRANCH  24  27
ENDBRANCH  21  23
ENDBRANCH   1  21
TORSDOF 6
ENDMDL
MODEL 3
REMARK VINA RESULT:      -8.6      1.989      2.657
REMARK  6 active torsions:
REMARK  status: ('A' for Active; 'I' for Inactive)
REMARK    1  A    between atoms: C_4  and  C_5 
REMARK    2  A    between atoms: C_5  and  N_6 
REMARK    3  A    between atoms: C_7  and  N_8 
REMARK    4  A    between atoms: N_8  and  N_9 
REMARK       I    between atoms: N_9  and  C_10 
REMARK    5  A    between atoms: C_10  and  C_11 
REMARK    6  A    between atoms: C_19  and  C_20 
ROOT
HETATM    1  N   UNL     1      39.428 -11.520   4.360  1.00  0.00    -0.168 NA
HETATM    2  C   UNL     1      39.678 -11.974   5.645  1.00  0.00     0.250 C 
HETATM    3  O   UNL     1      38.770 -11.969   6.474  1.00  0.00    -0.272 OA
HETATM    4  H   UNL     1      38.486 -11.139   4.286  1.00  0.00     0.156 HD
ENDROOT
BRANCH   2   5
HETATM    5  C   UNL     1      41.067 -12.343   6.044  1.00  0.00     0.042 A 
HETATM    6  C   UNL     1      41.475 -13.703   6.008  1.00  0.00     0.008 A 
HETATM    7  C   UNL     1      42.810 -13.965   6.370  1.00  0.00     0.068 A 
HETATM    8  C   UNL     1      40.651 -14.804   5.648  1.00  0.00     0.015 A 
HETATM    9  C   UNL     1      43.278 -15.271   6.344  1.00  0.00     0.032 A 
HETATM   10  N   UNL     1      43.667 -13.006   6.754  1.00  0.00    -0.248 NA
HETATM   11  C   UNL     1      42.464 -16.344   5.975  1.00  0.00     0.002 A 
HETATM   12  C   UNL     1      41.143 -16.108   5.629  1.00  0.00     0.001 A 
HETATM   13  C   UNL     1      43.253 -11.721   6.804  1.00  0.00     0.069 A 
HETATM   14  C   UNL     1      41.974 -11.352   6.421  1.00  0.00     0.050 A 
BRANCH  13  15
HETATM   15  C   UNL     1      44.248 -10.755   7.302  1.00  0.00    -0.005 A 
HETATM   16  C   UNL     1      43.846  -9.582   7.955  1.00  0.00     0.033 A 
HETATM   17  C   UNL     1      44.807  -8.687   8.396  1.00  0.00     0.117 A 
HETATM   18  N   UNL     1      46.133  -8.868   8.234  1.00  0.00    -0.273 NA
HETATM   19  C   UNL     1      46.510  -9.988   7.584  1.00  0.00     0.117 A 
HETATM   20  C   UNL     1      45.623 -10.944   7.112  1.00  0.00     0.033 A 
ENDBRANCH  13  15
ENDBRANCH   2   5
BRANCH   1  21
HETATM   21  N   UNL     1      39.770 -12.327   3.256  1.00  0.00    -0.291 N 
HETATM   22  H   UNL     1      39.234 -13.182   3.182  1.00  0.00     0.183 HD
BRANCH  21  23
HETATM   23  C   UNL     1      40.424 -11.820   2.162  1.00  0.00     0.182 C 
HETATM   24  N   UNL     1      40.688 -12.689   1.148  1.00  0.00    -0.362 N 
HETATM   25  H   UNL     1      41.183 -12.259   0.374  1.00  0.00     0.162 HD
HETATM   26  S   UNL     1      40.988 -10.256   1.999  1.00  0.00    -0.040 SA
BRANCH  24  27
HETATM   27  C   UNL     1      40.272 -14.068   0.945  1.00  0.00     0.160 C 
BRANCH  27  28
HETATM   28  C   UNL     1      41.307 -15.033   1.458  1.00  0.00    -0.041 A 
HETATM   29  C   UNL     1      40.935 -16.321   1.875  1.00  0.00     0.009 A 
HETATM   30  C   UNL     1      41.896 -17.220   2.341  1.00  0.00     0.001 A 
HETATM   31  C   UNL     1      43.234 -16.840   2.407  1.00  0.00     0.000 A 
HETATM   32  C   UNL     1      43.615 -15.561   2.005  1.00  0.00     0.001 A 
HETATM   33  C   UNL     1      42.658 -14.662   1.531  1.00  0.00     0.009 A 
ENDBRANCH  27  28
ENDBRANCH  24  27
ENDBRANCH  21  23
ENDBRANCH   1  21
TORSDOF 6
ENDMDL
MODEL 4
REMARK VINA RESULT:      -8.5      2.881      7.135
REMARK  6 active torsions:
REMARK  status: ('A' for Active; 'I' for Inactive)
REMARK    1  A    between atoms: C_4  and  C_5 
REMARK    2  A    between atoms: C_5  and  N_6 
REMARK    3  A    between atoms: C_7  and  N_8 
REMARK    4  A    between atoms: N_8  and  N_9 
REMARK       I    between atoms: N_9  and  C_10 
REMARK    5  A    between atoms: C_10  and  C_11 
REMARK    6  A    between atoms: C_19  and  C_20 
ROOT
HETATM    1  N   UNL     1      42.386 -14.059   1.041  1.00  0.00    -0.168 NA
HETATM    2  C   UNL     1      42.960 -13.782   2.272  1.00  0.00     0.250 C 
HETATM    3  O   UNL     1      43.432 -12.666   2.480  1.00  0.00    -0.272 OA
HETATM    4  H   UNL     1      42.510 -13.278   0.399  1.00  0.00     0.156 HD
ENDROOT
BRANCH   2   5
HETATM    5  C   UNL     1      43.114 -14.870   3.281  1.00  0.00     0.042 A 
HETATM    6  C   UNL     1      43.144 -14.552   4.664  1.00  0.00     0.008 A 
HETATM    7  C   UNL     1      43.262 -15.639   5.552  1.00  0.00     0.068 A 
HETATM    8  C   UNL     1      43.075 -13.243   5.213  1.00  0.00     0.015 A 
HETATM    9  C   UNL     1      43.284 -15.400   6.920  1.00  0.00     0.032 A 
HETATM   10  N   UNL     1      43.362 -16.913   5.143  1.00  0.00    -0.248 NA
HETATM   11  C   UNL     1      43.202 -14.111   7.449  1.00  0.00     0.002 A 
HETATM   12  C   UNL     1      43.101 -13.028   6.591  1.00  0.00     0.001 A 
HETATM   13  C   UNL     1      43.354 -17.192   3.821  1.00  0.00     0.069 A 
HETATM   14  C   UNL     1      43.194 -16.200   2.867  1.00  0.00     0.050 A 
BRANCH  13  15
HETATM   15  C   UNL     1      43.538 -18.613   3.475  1.00  0.00    -0.005 A 
HETATM   16  C   UNL     1      43.989 -19.532   4.432  1.00  0.00     0.033 A 
HETATM   17  C   UNL     1      44.166 -20.857   4.069  1.00  0.00     0.117 A 
HETATM   18  N   UNL     1      43.933 -21.335   2.830  1.00  0.00    -0.273 NA
HETATM   19  C   UNL     1      43.521 -20.439   1.910  1.00  0.00     0.117 A 
HETATM   20  C   UNL     1      43.309 -19.095   2.179  1.00  0.00     0.033 A 
ENDBRANCH  13  15
ENDBRANCH   2   5
BRANCH   1  21
HETATM   21  N   UNL     1      41.086 -14.601   0.985  1.00  0.00    -0.291 N 
HETATM   22  H   UNL     1      41.001 -15.527   1.385  1.00  0.00     0.183 HD
BRANCH  21  23
HETATM   23  C   UNL     1      39.977 -13.810   0.825  1.00  0.00     0.182 C 
HETATM   24  N   UNL     1      39.221 -13.582   1.933  1.00  0.00    -0.362 N 
HETATM   25  H   UNL     1      38.409 -13.001   1.749  1.00  0.00     0.162 HD
HETATM   26  S   UNL     1      39.434 -13.170  -0.621  1.00  0.00    -0.040 SA
BRANCH  24  27
HETATM   27  C   UNL     1      39.453 -13.919   3.329  1.00  0.00     0.160 C 
BRANCH  27  28
HETATM   28  C   UNL     1      39.723 -12.688   4.152  1.00  0.00    -0.041 A 
HETATM   29  C   UNL     1      40.269 -11.540   3.559  1.00  0.00     0.009 A 
HETATM   30  C   UNL     1      40.510 -10.394   4.320  1.00  0.00     0.001 A 
HETATM   31  C   UNL     1      40.217 -10.387   5.682  1.00  0.00     0.000 A 
HETATM   32  C   UNL     1      39.683 -11.523   6.285  1.00  0.00     0.001 A 
HETATM   33  C   UNL     1      39.435 -12.668   5.525  1.00  0.00     0.009 A 
ENDBRANCH  27  28
ENDBRANCH  24  27
ENDBRANCH  21  23
ENDBRANCH   1  21
TORSDOF 6
ENDMDL
MODEL 5
REMARK VINA RESULT:      -8.5      2.060      7.802
REMARK  6 active torsions:
REMARK  status: ('A' for Active; 'I' for Inactive)
REMARK    1  A    between atoms: C_4  and  C_5 
REMARK    2  A    between atoms: C_5  and  N_6 
REMARK    3  A    between atoms: C_7  and  N_8 
REMARK    4  A    between atoms: N_8  and  N_9 
REMARK       I    between atoms: N_9  and  C_10 
REMARK    5  A    between atoms: C_10  and  C_11 
REMARK    6  A    between atoms: C_19  and  C_20 
ROOT
HETATM    1  N   UNL     1      41.432 -12.876   6.407  1.00  0.00    -0.168 NA
HETATM    2  C   UNL     1      40.544 -13.800   5.879  1.00  0.00     0.250 C 
HETATM    3  O   UNL     1      39.545 -14.113   6.523  1.00  0.00    -0.272 OA
HETATM    4  H   UNL     1      41.167 -12.620   7.357  1.00  0.00     0.156 HD
ENDROOT
BRANCH   2   5
HETATM    5  C   UNL     1      40.872 -14.497   4.602  1.00  0.00     0.042 A 
HETATM    6  C   UNL     1      40.368 -13.994   3.373  1.00  0.00     0.008 A 
HETATM    7  C   UNL     1      40.748 -14.691   2.210  1.00  0.00     0.068 A 
HETATM    8  C   UNL     1      39.518 -12.865   3.229  1.00  0.00     0.015 A 
HETATM    9  C   UNL     1      40.302 -14.245   0.973  1.00  0.00     0.032 A 
HETATM   10  N   UNL     1      41.524 -15.785   2.232  1.00  0.00    -0.248 NA
HETATM   11  C   UNL     1      39.478 -13.126   0.843  1.00  0.00     0.002 A 
HETATM   12  C   UNL     1      39.081 -12.435   1.976  1.00  0.00     0.001 A 
HETATM   13  C   UNL     1      41.974 -16.262   3.414  1.00  0.00     0.069 A 
HETATM   14  C   UNL     1      41.698 -15.621   4.610  1.00  0.00     0.050 A 
BRANCH  13  15
HETATM   15  C   UNL     1      42.762 -17.505   3.335  1.00  0.00    -0.005 A 
HETATM   16  C   UNL     1      42.619 -18.377   2.247  1.00  0.00     0.033 A 
HETATM   17  C   UNL     1      43.362 -19.545   2.211  1.00  0.00     0.117 A 
HETATM   18  N   UNL     1      44.232 -19.912   3.175  1.00  0.00    -0.273 NA
HETATM   19  C   UNL     1      44.346 -19.079   4.228  1.00  0.00     0.117 A 
HETATM   20  C   UNL     1      43.650 -17.886   4.350  1.00  0.00     0.033 A 
ENDBRANCH  13  15
ENDBRANCH   2   5
BRANCH   1  21
HETATM   21  N   UNL     1      41.817 -11.760   5.637  1.00  0.00    -0.291 N 
HETATM   22  H   UNL     1      41.400 -10.885   5.931  1.00  0.00     0.183 HD
BRANCH  21  23
HETATM   23  C   UNL     1      42.957 -11.763   4.874  1.00  0.00     0.182 C 
HETATM   24  N   UNL     1      44.129 -12.000   5.524  1.00  0.00    -0.362 N 
HETATM   25  H   UNL     1      44.936 -11.977   4.909  1.00  0.00     0.162 HD
HETATM   26  S   UNL     1      43.039 -11.428   3.239  1.00  0.00    -0.040 SA
BRANCH  24  27
HETATM   27  C   UNL     1      44.392 -12.398   6.898  1.00  0.00     0.160 C 
BRANCH  27  28
HETATM   28  C   UNL     1      44.844 -11.228   7.729  1.00  0.00    -0.041 A 
HETATM   29  C   UNL     1      44.201 -10.923   8.939  1.00  0.00     0.009 A 
HETATM   30  C   UNL     1      44.627  -9.844   9.716  1.00  0.00     0.001 A 
HETATM   31  C   UNL     1      45.692  -9.053   9.288  1.00  0.00     0.000 A 
HETATM   32  C   UNL     1      46.333  -9.340   8.085  1.00  0.00     0.001 A 
HETATM   33  C   UNL     1      45.913 -10.422   7.309  1.00  0.00     0.009 A 
ENDBRANCH  27  28
ENDBRANCH  24  27
ENDBRANCH  21  23
ENDBRANCH   1  21
TORSDOF 6
ENDMDL
MODEL 6
REMARK VINA RESULT:      -8.5      4.023      6.689
REMARK  6 active torsions:
REMARK  status: ('A' for Active; 'I' for Inactive)
REMARK    1  A    between atoms: C_4  and  C_5 
REMARK    2  A    between atoms: C_5  and  N_6 
REMARK    3  A    between atoms: C_7  and  N_8 
REMARK    4  A    between atoms: N_8  and  N_9 
REMARK       I    between atoms: N_9  and  C_10 
REMARK    5  A    between atoms: C_10  and  C_11 
REMARK    6  A    between atoms: C_19  and  C_20 
ROOT
HETATM    1  N   UNL     1      40.524 -11.255   4.503  1.00  0.00    -0.168 NA
HETATM    2  C   UNL     1      39.624 -11.070   3.465  1.00  0.00     0.250 C 
HETATM    3  O   UNL     1      38.492 -10.661   3.714  1.00  0.00    -0.272 OA
HETATM    4  H   UNL     1      40.076 -11.096   5.405  1.00  0.00     0.156 HD
ENDROOT
BRANCH   2   5
HETATM    5  C   UNL     1      39.993 -11.487   2.081  1.00  0.00     0.042 A 
HETATM    6  C   UNL     1      39.973 -12.862   1.728  1.00  0.00     0.008 A 
HETATM    7  C   UNL     1      40.305 -13.170   0.395  1.00  0.00     0.068 A 
HETATM    8  C   UNL     1      39.658 -13.936   2.604  1.00  0.00     0.015 A 
HETATM    9  C   UNL     1      40.293 -14.494  -0.021  1.00  0.00     0.032 A 
HETATM   10  N   UNL     1      40.646 -12.239  -0.509  1.00  0.00    -0.248 NA
HETATM   11  C   UNL     1      39.968 -15.540   0.845  1.00  0.00     0.002 A 
HETATM   12  C   UNL     1      39.652 -15.259   2.164  1.00  0.00     0.001 A 
HETATM   13  C   UNL     1      40.681 -10.937  -0.147  1.00  0.00     0.069 A 
HETATM   14  C   UNL     1      40.324 -10.525   1.126  1.00  0.00     0.050 A 
BRANCH  13  15
HETATM   15  C   UNL     1      41.132 -10.002  -1.193  1.00  0.00    -0.005 A 
HETATM   16  C   UNL     1      42.070  -9.001  -0.905  1.00  0.00     0.033 A 
HETATM   17  C   UNL     1      42.460  -8.128  -1.907  1.00  0.00     0.117 A 
HETATM   18  N   UNL     1      41.987  -8.173  -3.169  1.00  0.00    -0.273 NA
HETATM   19  C   UNL     1      41.069  -9.125  -3.432  1.00  0.00     0.117 A 
HETATM   20  C   UNL     1      40.621 -10.046  -2.497  1.00  0.00     0.033 A 
ENDBRANCH  13  15
ENDBRANCH   2   5
BRANCH   1  21
HETATM   21  N   UNL     1      41.804 -10.671   4.428  1.00  0.00    -0.291 N 
HETATM   22  H   UNL     1      41.802  -9.688   4.185  1.00  0.00     0.183 HD
BRANCH  21  23
HETATM   23  C   UNL     1      42.894 -11.230   5.046  1.00  0.00     0.182 C 
HETATM   24  N   UNL     1      43.563 -12.193   4.356  1.00  0.00    -0.362 N 
HETATM   25  H   UNL     1      44.350 -12.576   4.870  1.00  0.00     0.162 HD
HETATM   26  S   UNL     1      43.421 -10.887   6.595  1.00  0.00    -0.040 SA
BRANCH  24  27
HETATM   27  C   UNL     1      43.415 -12.659   2.986  1.00  0.00     0.160 C 
BRANCH  27  28
HETATM   28  C   UNL     1      43.262 -14.155   2.930  1.00  0.00    -0.041 A 
HETATM   29  C   UNL     1      43.498 -14.850   1.734  1.00  0.00     0.009 A 
HETATM   30  C   UNL     1      43.366 -16.239   1.684  1.00  0.00     0.001 A 
HETATM   31  C   UNL     1      42.987 -16.946   2.823  1.00  0.00     0.000 A 
HETATM   32  C   UNL     1      42.741 -16.267   4.014  1.00  0.00     0.001 A 
HETATM   33  C   UNL     1      42.879 -14.879   4.069  1.00  0.00     0.009 A 
ENDBRANCH  27  28
ENDBRANCH  24  27
ENDBRANCH  21  23
ENDBRANCH   1  21
TORSDOF 6
ENDMDL
MODEL 7
REMARK VINA RESULT:      -8.3      3.071      6.840
REMARK  6 active torsions:
REMARK  status: ('A' for Active; 'I' for Inactive)
REMARK    1  A    between atoms: C_4  and  C_5 
REMARK    2  A    between atoms: C_5  and  N_6 
REMARK    3  A    between atoms: C_7  and  N_8 
REMARK    4  A    between atoms: N_8  and  N_9 
REMARK       I    between atoms: N_9  and  C_10 
REMARK    5  A    between atoms: C_10  and  C_11 
REMARK    6  A    between atoms: C_19  and  C_20 
ROOT
HETATM    1  N   UNL     1      41.630 -10.998   3.385  1.00  0.00    -0.168 NA
HETATM    2  C   UNL     1      42.620 -11.909   3.049  1.00  0.00     0.250 C 
HETATM    3  O   UNL     1      43.800 -11.590   3.174  1.00  0.00    -0.272 OA
HETATM    4  H   UNL     1      42.035 -10.096   3.630  1.00  0.00     0.156 HD
ENDROOT
BRANCH   2   5
HETATM    5  C   UNL     1      42.247 -13.211   2.424  1.00  0.00     0.042 A 
HETATM    6  C   UNL     1      41.304 -13.242   1.364  1.00  0.00     0.008 A 
HETATM    7  C   UNL     1      41.030 -14.507   0.808  1.00  0.00     0.068 A 
HETATM    8  C   UNL     1      40.619 -12.116   0.833  1.00  0.00     0.015 A 
HETATM    9  C   UNL     1      40.126 -14.608  -0.241  1.00  0.00     0.032 A 
HETATM   10  N   UNL     1      41.597 -15.640   1.249  1.00  0.00    -0.248 NA
HETATM   11  C   UNL     1      39.470 -13.492  -0.764  1.00  0.00     0.002 A 
HETATM   12  C   UNL     1      39.715 -12.241  -0.222  1.00  0.00     0.001 A 
HETATM   13  C   UNL     1      42.475 -15.592   2.276  1.00  0.00     0.069 A 
HETATM   14  C   UNL     1      42.850 -14.393   2.859  1.00  0.00     0.050 A 
BRANCH  13  15
HETATM   15  C   UNL     1      42.989 -16.897   2.728  1.00  0.00    -0.005 A 
HETATM   16  C   UNL     1      43.738 -17.002   3.909  1.00  0.00     0.033 A 
HETATM   17  C   UNL     1      44.221 -18.241   4.298  1.00  0.00     0.117 A 
HETATM   18  N   UNL     1      44.019 -19.378   3.602  1.00  0.00    -0.273 NA
HETATM   19  C   UNL     1      43.317 -19.264   2.457  1.00  0.00     0.117 A 
HETATM   20  C   UNL     1      42.789 -18.070   1.989  1.00  0.00     0.033 A 
ENDBRANCH  13  15
ENDBRANCH   2   5
BRANCH   1  21
HETATM   21  N   UNL     1      40.599 -11.382   4.266  1.00  0.00    -0.291 N 
HETATM   22  H   UNL     1      39.956 -12.065   3.885  1.00  0.00     0.183 HD
BRANCH  21  23
HETATM   23  C   UNL     1      40.702 -11.208   5.623  1.00  0.00     0.182 C 
HETATM   24  N   UNL     1      40.522 -12.312   6.398  1.00  0.00    -0.362 N 
HETATM   25  H   UNL     1      40.598 -12.117   7.391  1.00  0.00     0.162 HD
HETATM   26  S   UNL     1      40.952  -9.752   6.404  1.00  0.00    -0.040 SA
BRANCH  24  27
HETATM   27  C   UNL     1      40.371 -13.713   6.039  1.00  0.00     0.160 C 
BRANCH  27  28
HETATM   28  C   UNL     1      41.578 -14.515   6.442  1.00  0.00    -0.041 A 
HETATM   29  C   UNL     1      42.858 -13.941   6.412  1.00  0.00     0.009 A 
HETATM   30  C   UNL     1      43.977 -14.681   6.796  1.00  0.00     0.001 A 
HETATM   31  C   UNL     1      43.832 -16.006   7.204  1.00  0.00     0.000 A 
HETATM   32  C   UNL     1      42.568 -16.591   7.230  1.00  0.00     0.001 A 
HETATM   33  C   UNL     1      41.446 -15.850   6.853  1.00  0.00     0.009 A 
ENDBRANCH  27  28
ENDBRANCH  24  27
ENDBRANCH  21  23
ENDBRANCH   1  21
TORSDOF 6
ENDMDL
MODEL 8
REMARK VINA RESULT:      -8.3      2.761      7.492
REMARK  6 active torsions:
REMARK  status: ('A' for Active; 'I' for Inactive)
REMARK    1  A    between atoms: C_4  and  C_5 
REMARK    2  A    between atoms: C_5  and  N_6 
REMARK    3  A    between atoms: C_7  and  N_8 
REMARK    4  A    between atoms: N_8  and  N_9 
REMARK       I    between atoms: N_9  and  C_10 
REMARK    5  A    between atoms: C_10  and  C_11 
REMARK    6  A    between atoms: C_19  and  C_20 
ROOT
HETATM    1  N   UNL     1      43.463 -14.547   6.495  1.00  0.00    -0.168 NA
HETATM    2  C   UNL     1      42.406 -15.362   6.120  1.00  0.00     0.250 C 
HETATM    3  O   UNL     1      41.687 -15.854   6.987  1.00  0.00    -0.272 OA
HETATM    4  H   UNL     1      43.563 -14.526   7.509  1.00  0.00     0.156 HD
ENDROOT
BRANCH   2   5
HETATM    5  C   UNL     1      42.229 -15.733   4.687  1.00  0.00     0.042 A 
HETATM    6  C   UNL     1      42.838 -16.912   4.182  1.00  0.00     0.008 A 
HETATM    7  C   UNL     1      42.598 -17.208   2.826  1.00  0.00     0.068 A 
HETATM    8  C   UNL     1      43.665 -17.798   4.923  1.00  0.00     0.015 A 
HETATM    9  C   UNL     1      43.153 -18.353   2.271  1.00  0.00     0.032 A 
HETATM   10  N   UNL     1      41.856 -16.428   2.025  1.00  0.00    -0.248 NA
HETATM   11  C   UNL     1      43.953 -19.224   3.013  1.00  0.00     0.002 A 
HETATM   12  C   UNL     1      44.212 -18.943   4.344  1.00  0.00     0.001 A 
HETATM   13  C   UNL     1      41.304 -15.297   2.519  1.00  0.00     0.069 A 
HETATM   14  C   UNL     1      41.440 -14.942   3.851  1.00  0.00     0.050 A 
BRANCH  13  15
HETATM   15  C   UNL     1      40.566 -14.476   1.544  1.00  0.00    -0.005 A 
HETATM   16  C   UNL     1      40.127 -13.187   1.877  1.00  0.00     0.033 A 
HETATM   17  C   UNL     1      39.422 -12.447   0.942  1.00  0.00     0.117 A 
HETATM   18  N   UNL     1      39.117 -12.893  -0.294  1.00  0.00    -0.273 NA
HETATM   19  C   UNL     1      39.523 -14.142  -0.598  1.00  0.00     0.117 A 
HETATM   20  C   UNL     1      40.239 -14.955   0.268  1.00  0.00     0.033 A 
ENDBRANCH  13  15
ENDBRANCH   2   5
BRANCH   1  21
HETATM   21  N   UNL     1      43.598 -13.269   5.915  1.00  0.00    -0.291 N 
HETATM   22  H   UNL     1      43.496 -13.254   4.908  1.00  0.00     0.183 HD
BRANCH  21  23
HETATM   23  C   UNL     1      43.435 -12.120   6.646  1.00  0.00     0.182 C 
HETATM   24  N   UNL     1      42.206 -11.536   6.604  1.00  0.00    -0.362 N 
HETATM   25  H   UNL     1      42.151 -10.684   7.153  1.00  0.00     0.162 HD
HETATM   26  S   UNL     1      44.628 -11.337   7.516  1.00  0.00    -0.040 SA
BRANCH  24  27
HETATM   27  C   UNL     1      40.955 -11.993   6.020  1.00  0.00     0.160 C 
BRANCH  27  28
HETATM   28  C   UNL     1      40.492 -11.069   4.926  1.00  0.00    -0.041 A 
HETATM   29  C   UNL     1      41.422 -10.436   4.087  1.00  0.00     0.009 A 
HETATM   30  C   UNL     1      40.992  -9.587   3.065  1.00  0.00     0.001 A 
HETATM   31  C   UNL     1      39.632  -9.353   2.877  1.00  0.00     0.000 A 
HETATM   32  C   UNL     1      38.698  -9.969   3.709  1.00  0.00     0.001 A 
HETATM   33  C   UNL     1      39.125 -10.824   4.727  1.00  0.00     0.009 A 
ENDBRANCH  27  28
ENDBRANCH  24  27
ENDBRANCH  21  23
ENDBRANCH   1  21
TORSDOF 6
ENDMDL
MODEL 9
REMARK VINA RESULT:      -8.3      3.129      6.515
REMARK  6 active torsions:
REMARK  status: ('A' for Active; 'I' for Inactive)
REMARK    1  A    between atoms: C_4  and  C_5 
REMARK    2  A    between atoms: C_5  and  N_6 
REMARK    3  A    between atoms: C_7  and  N_8 
REMARK    4  A    between atoms: N_8  and  N_9 
REMARK       I    between atoms: N_9  and  C_10 
REMARK    5  A    between atoms: C_10  and  C_11 
REMARK    6  A    between atoms: C_19  and  C_20 
ROOT
HETATM    1  N   UNL     1      43.219 -13.146   4.631  1.00  0.00    -0.168 NA
HETATM    2  C   UNL     1      43.212 -12.203   3.615  1.00  0.00     0.250 C 
HETATM    3  O   UNL     1      44.195 -11.482   3.455  1.00  0.00    -0.272 OA
HETATM    4  H   UNL     1      44.058 -13.059   5.202  1.00  0.00     0.156 HD
ENDROOT
BRANCH   2   5
HETATM    5  C   UNL     1      41.973 -11.986   2.813  1.00  0.00     0.042 A 
HETATM    6  C   UNL     1      40.853 -11.343   3.403  1.00  0.00     0.008 A 
HETATM    7  C   UNL     1      39.734 -11.150   2.570  1.00  0.00     0.068 A 
HETATM    8  C   UNL     1      40.771 -10.895   4.749  1.00  0.00     0.015 A 
HETATM    9  C   UNL     1      38.609 -10.516   3.080  1.00  0.00     0.032 A 
HETATM   10  N   UNL     1      39.691 -11.558   1.293  1.00  0.00    -0.248 NA
HETATM   11  C   UNL     1      38.545 -10.067   4.400  1.00  0.00     0.002 A 
HETATM   12  C   UNL     1      39.630 -10.260   5.239  1.00  0.00     0.001 A 
HETATM   13  C   UNL     1      40.759 -12.189   0.757  1.00  0.00     0.069 A 
HETATM   14  C   UNL     1      41.927 -12.384   1.477  1.00  0.00     0.050 A 
BRANCH  13  15
HETATM   15  C   UNL     1      40.587 -12.656  -0.630  1.00  0.00    -0.005 A 
HETATM   16  C   UNL     1      39.916 -13.856  -0.904  1.00  0.00     0.033 A 
HETATM   17  C   UNL     1      39.785 -14.275  -2.218  1.00  0.00     0.117 A 
HETATM   18  N   UNL     1      40.273 -13.596  -3.275  1.00  0.00    -0.273 NA
HETATM   19  C   UNL     1      40.937 -12.455  -3.001  1.00  0.00     0.117 A 
HETATM   20  C   UNL     1      41.113 -11.952  -1.720  1.00  0.00     0.033 A 
ENDBRANCH  13  15
ENDBRANCH   2   5
BRANCH   1  21
HETATM   21  N   UNL     1      42.905 -14.489   4.338  1.00  0.00    -0.291 N 
HETATM   22  H   UNL     1      43.478 -14.904   3.615  1.00  0.00     0.183 HD
BRANCH  21  23
HETATM   23  C   UNL     1      42.221 -15.283   5.223  1.00  0.00     0.182 C 
HETATM   24  N   UNL     1      42.767 -16.498   5.504  1.00  0.00    -0.362 N 
HETATM   25  H   UNL     1      42.209 -17.043   6.154  1.00  0.00     0.162 HD
HETATM   26  S   UNL     1      40.747 -14.923   5.922  1.00  0.00    -0.040 SA
BRANCH  24  27
HETATM   27  C   UNL     1      44.050 -17.073   5.134  1.00  0.00     0.160 C 
BRANCH  27  28
HETATM   28  C   UNL     1      43.876 -18.269   4.237  1.00  0.00    -0.041 A 
HETATM   29  C   UNL     1      44.150 -19.561   4.711  1.00  0.00     0.009 A 
HETATM   30  C   UNL     1      43.979 -20.672   3.883  1.00  0.00     0.001 A 
HETATM   31  C   UNL     1      43.543 -20.503   2.570  1.00  0.00     0.000 A 
HETATM   32  C   UNL     1      43.276 -19.225   2.084  1.00  0.00     0.001 A 
HETATM   33  C   UNL     1      43.440 -18.113   2.913  1.00  0.00     0.009 A 
ENDBRANCH  27  28
ENDBRANCH  24  27
ENDBRANCH  21  23
ENDBRANCH   1  21
TORSDOF 6
ENDMDL
MODEL 10
REMARK VINA RESULT:      -8.2      2.507      7.835
REMARK  6 active torsions:
REMARK  status: ('A' for Active; 'I' for Inactive)
REMARK    1  A    between atoms: C_4  and  C_5 
REMARK    2  A    between atoms: C_5  and  N_6 
REMARK    3  A    between atoms: C_7  and  N_8 
REMARK    4  A    between atoms: N_8  and  N_9 
REMARK       I    between atoms: N_9  and  C_10 
REMARK    5  A    between atoms: C_10  and  C_11 
REMARK    6  A    between atoms: C_19  and  C_20 
ROOT
HETATM    1  N   UNL     1      40.788 -11.068   3.752  1.00  0.00    -0.168 NA
HETATM    2  C   UNL     1      41.777 -11.549   2.908  1.00  0.00     0.250 C 
HETATM    3  O   UNL     1      42.678 -10.796   2.544  1.00  0.00    -0.272 OA
HETATM    4  H   UNL     1      40.898 -10.067   3.906  1.00  0.00     0.156 HD
ENDROOT
BRANCH   2   5
HETATM    5  C   UNL     1      41.670 -12.929   2.351  1.00  0.00     0.042 A 
HETATM    6  C   UNL     1      40.841 -13.174   1.224  1.00  0.00     0.008 A 
HETATM    7  C   UNL     1      40.818 -14.497   0.741  1.00  0.00     0.068 A 
HETATM    8  C   UNL     1      40.039 -12.206   0.562  1.00  0.00     0.015 A 
HETATM    9  C   UNL     1      40.039 -14.803  -0.366  1.00  0.00     0.032 A 
HETATM   10  N   UNL     1      41.514 -15.495   1.306  1.00  0.00    -0.248 NA
HETATM   11  C   UNL     1      39.265 -13.841  -1.017  1.00  0.00     0.002 A 
HETATM   12  C   UNL     1      39.263 -12.537  -0.549  1.00  0.00     0.001 A 
HETATM   13  C   UNL     1      42.279 -15.246   2.392  1.00  0.00     0.069 A 
HETATM   14  C   UNL     1      42.408 -13.970   2.915  1.00  0.00     0.050 A 
BRANCH  13  15
HETATM   15  C   UNL     1      42.948 -16.422   2.977  1.00  0.00    -0.005 A 
HETATM   16  C   UNL     1      43.021 -17.630   2.271  1.00  0.00     0.033 A 
HETATM   17  C   UNL     1      43.643 -18.721   2.856  1.00  0.00     0.117 A 
HETATM   18  N   UNL     1      44.192 -18.702   4.087  1.00  0.00    -0.273 NA
HETATM   19  C   UNL     1      44.097 -17.542   4.768  1.00  0.00     0.117 A 
HETATM   20  C   UNL     1      43.500 -16.396   4.264  1.00  0.00     0.033 A 
ENDBRANCH  13  15
ENDBRANCH   2   5
BRANCH   1  21
HETATM   21  N   UNL     1      40.486 -11.766   4.940  1.00  0.00    -0.291 N 
HETATM   22  H   UNL     1      40.587 -12.771   4.871  1.00  0.00     0.183 HD
BRANCH  21  23
HETATM   23  C   UNL     1      40.493 -11.149   6.165  1.00  0.00     0.182 C 
HETATM   24  N   UNL     1      41.662 -11.180   6.860  1.00  0.00    -0.362 N 
HETATM   25  H   UNL     1      41.600 -10.719   7.762  1.00  0.00     0.162 HD
HETATM   26  S   UNL     1      39.176 -10.434   6.906  1.00  0.00    -0.040 SA
BRANCH  24  27
HETATM   27  C   UNL     1      42.986 -11.641   6.475  1.00  0.00     0.160 C 
BRANCH  27  28
HETATM   28  C   UNL     1      44.064 -10.820   7.129  1.00  0.00    -0.041 A 
HETATM   29  C   UNL     1      45.408 -11.218   7.054  1.00  0.00     0.009 A 
HETATM   30  C   UNL     1      46.409 -10.451   7.652  1.00  0.00     0.001 A 
HETATM   31  C   UNL     1      46.079  -9.284   8.339  1.00  0.00     0.000 A 
HETATM   32  C   UNL     1      44.748  -8.882   8.428  1.00  0.00     0.001 A 
HETATM   33  C   UNL     1      43.745  -9.644   7.826  1.00  0.00     0.009 A 
ENDBRANCH  27  28
ENDBRANCH  24  27
ENDBRANCH  21  23
ENDBRANCH   1  21
TORSDOF 6
ENDMDL
