MODEL 1
REMARK VINA RESULT:      -9.0      0.000      0.000
REMARK  10 active torsions:
REMARK  status: ('A' for Active; 'I' for Inactive)
REMARK    1  A    between atoms: C_2  and  O_3 
REMARK    2  A    between atoms: O_3  and  C_4 
REMARK    3  A    between atoms: C_6  and  O_7 
REMARK    4  A    between atoms: O_7  and  C_8 
REMARK    5  A    between atoms: C_11  and  C_12 
REMARK       I    between atoms: C_12  and  N_13 
REMARK    6  A    between atoms: N_13  and  C_14 
REMARK    7  A    between atoms: C_14  and  N_15 
REMARK    8  A    between atoms: N_15  and  C_16 
REMARK    9  A    between atoms: C_18  and  C_19 
REMARK   10  A    between atoms: C_28  and  O_29 
ROOT
HETATM    1  N   UNL     1      43.756 -12.404   7.773  1.00  0.00    -0.333 N 
HETATM    2  H   UNL     1      43.717 -13.072   8.545  1.00  0.00     0.168 HD
ENDROOT
BRANCH   1   3
HETATM    3  C   UNL     1      44.242 -11.173   8.145  1.00  0.00     0.179 C 
HETATM    4  S   UNL     1      45.607 -10.367   7.611  1.00  0.00    -0.040 SA
BRANCH   3   5
HETATM    5  N   UNL     1      43.500 -10.513   9.109  1.00  0.00    -0.299 N 
HETATM    6  C   UNL     1      43.657 -10.515  10.490  1.00  0.00     0.258 C 
HETATM    7  O   UNL     1      44.656 -10.963  11.050  1.00  0.00    -0.267 OA
HETATM    8  H   UNL     1      42.679 -10.084   8.710  1.00  0.00     0.171 HD
BRANCH   6   9
HETATM    9  C   UNL     1      42.538  -9.943  11.298  1.00  0.00     0.037 A 
HETATM   10  C   UNL     1      41.387  -9.523  10.615  1.00  0.00     0.054 A 
HETATM   11  C   UNL     1      40.331  -8.935  11.312  1.00  0.00     0.072 A 
HETATM   12  C   UNL     1      40.431  -8.749  12.694  1.00  0.00     0.073 A 
HETATM   13  C   UNL     1      41.562  -9.175  13.386  1.00  0.00     0.072 A 
HETATM   14  C   UNL     1      42.605  -9.790  12.689  1.00  0.00     0.054 A 
BRANCH  11  15
HETATM   15  O   UNL     1      39.161  -8.483  10.764  1.00  0.00    -0.351 OA
BRANCH  15  16
HETATM   16  C   UNL     1      39.181  -7.188  10.163  1.00  0.00     0.171 C 
HETATM   17  C   UNL     1      38.893  -7.358   8.683  1.00  0.00     0.034 C 
ENDBRANCH  15  16
ENDBRANCH  11  15
BRANCH  13  18
HETATM   18  O   UNL     1      41.774  -9.059  14.732  1.00  0.00    -0.351 OA
BRANCH  18  19
HETATM   19  C   UNL     1      41.635  -7.756  15.299  1.00  0.00     0.171 C 
HETATM   20  C   UNL     1      42.840  -6.932  14.878  1.00  0.00     0.034 C 
ENDBRANCH  18  19
ENDBRANCH  13  18
ENDBRANCH   6   9
ENDBRANCH   3   5
ENDBRANCH   1   3
BRANCH   1  21
HETATM   21  C   UNL     1      43.331 -12.902   6.521  1.00  0.00     0.035 A 
HETATM   22  C   UNL     1      43.478 -14.280   6.294  1.00  0.00     0.046 A 
HETATM   23  C   UNL     1      43.055 -14.881   5.092  1.00  0.00     0.036 A 
HETATM   24  C   UNL     1      42.427 -14.060   4.134  1.00  0.00     0.084 A 
HETATM   25  C   UNL     1      42.250 -12.688   4.347  1.00  0.00    -0.026 A 
HETATM   26  C   UNL     1      41.576 -11.827   3.317  1.00  0.00     0.051 C 
HETATM   27  C   UNL     1      42.710 -12.123   5.544  1.00  0.00     0.039 A 
BRANCH  23  28
HETATM   28  C   UNL     1      43.240 -16.322   4.818  1.00  0.00     0.112 A 
HETATM   29  S   UNL     1      43.591 -17.462   6.057  1.00  0.00    -0.067 SA
HETATM   30  C   UNL     1      43.710 -18.719   4.888  1.00  0.00     0.035 A 
HETATM   31  C   UNL     1      43.468 -18.184   3.623  1.00  0.00     0.075 A 
HETATM   32  C   UNL     1      43.998 -20.082   5.073  1.00  0.00     0.021 A 
HETATM   33  N   UNL     1      43.220 -16.822   3.595  1.00  0.00    -0.239 NA
HETATM   34  C   UNL     1      43.504 -19.040   2.504  1.00  0.00     0.033 A 
HETATM   35  C   UNL     1      43.786 -20.399   2.676  1.00  0.00     0.002 A 
HETATM   36  C   UNL     1      44.032 -20.910   3.946  1.00  0.00     0.002 A 
ENDBRANCH  23  28
BRANCH  24  37
HETATM   37  O   UNL     1      41.949 -14.564   2.947  1.00  0.00    -0.359 OA
HETATM   38  H   UNL     1      41.482 -15.405   3.141  1.00  0.00     0.218 HD
ENDBRANCH  24  37
ENDBRANCH   1  21
TORSDOF 10
ENDMDL
MODEL 2
REMARK VINA RESULT:      -9.0      1.807      2.577
REMARK  10 active torsions:
REMARK  status: ('A' for Active; 'I' for Inactive)
REMARK    1  A    between atoms: C_2  and  O_3 
REMARK    2  A    between atoms: O_3  and  C_4 
REMARK    3  A    between atoms: C_6  and  O_7 
REMARK    4  A    between atoms: O_7  and  C_8 
REMARK    5  A    between atoms: C_11  and  C_12 
REMARK       I    between atoms: C_12  and  N_13 
REMARK    6  A    between atoms: N_13  and  C_14 
REMARK    7  A    between atoms: C_14  and  N_15 
REMARK    8  A    between atoms: N_15  and  C_16 
REMARK    9  A    between atoms: C_18  and  C_19 
REMARK   10  A    between atoms: C_28  and  O_29 
ROOT
HETATM    1  N   UNL     1      43.634 -12.580   7.511  1.00  0.00    -0.333 N 
HETATM    2  H   UNL     1      43.632 -13.020   8.433  1.00  0.00     0.168 HD
ENDROOT
BRANCH   1   3
HETATM    3  C   UNL     1      44.458 -11.483   7.435  1.00  0.00     0.179 C 
HETATM    4  S   UNL     1      45.781 -11.218   6.447  1.00  0.00    -0.040 SA
BRANCH   3   5
HETATM    5  N   UNL     1      44.155 -10.456   8.312  1.00  0.00    -0.299 N 
HETATM    6  C   UNL     1      44.592 -10.260   9.616  1.00  0.00     0.258 C 
HETATM    7  O   UNL     1      45.516 -10.897  10.116  1.00  0.00    -0.267 OA
HETATM    8  H   UNL     1      43.425  -9.864   7.945  1.00  0.00     0.171 HD
BRANCH   6   9
HETATM    9  C   UNL     1      43.878  -9.220  10.418  1.00  0.00     0.037 A 
HETATM   10  C   UNL     1      43.488  -9.555  11.724  1.00  0.00     0.054 A 
HETATM   11  C   UNL     1      42.776  -8.642  12.502  1.00  0.00     0.072 A 
HETATM   12  C   UNL     1      42.434  -7.395  11.967  1.00  0.00     0.073 A 
HETATM   13  C   UNL     1      42.828  -7.045  10.679  1.00  0.00     0.072 A 
HETATM   14  C   UNL     1      43.567  -7.951   9.914  1.00  0.00     0.054 A 
BRANCH  11  15
HETATM   15  O   UNL     1      42.337  -8.848  13.782  1.00  0.00    -0.351 OA
BRANCH  15  16
HETATM   16  C   UNL     1      40.927  -8.825  13.999  1.00  0.00     0.171 C 
HETATM   17  C   UNL     1      40.333 -10.045  13.320  1.00  0.00     0.034 C 
ENDBRANCH  15  16
ENDBRANCH  11  15
BRANCH  13  18
HETATM   18  O   UNL     1      42.565  -5.859  10.051  1.00  0.00    -0.351 OA
BRANCH  18  19
HETATM   19  C   UNL     1      41.895  -4.856  10.815  1.00  0.00     0.171 C 
HETATM   20  C   UNL     1      42.855  -3.694  11.004  1.00  0.00     0.034 C 
ENDBRANCH  18  19
ENDBRANCH  13  18
ENDBRANCH   6   9
ENDBRANCH   3   5
ENDBRANCH   1   3
BRANCH   1  21
HETATM   21  C   UNL     1      42.822 -13.209   6.540  1.00  0.00     0.035 A 
HETATM   22  C   UNL     1      43.168 -14.516   6.162  1.00  0.00     0.046 A 
HETATM   23  C   UNL     1      42.405 -15.242   5.227  1.00  0.00     0.036 A 
HETATM   24  C   UNL     1      41.242 -14.633   4.715  1.00  0.00     0.084 A 
HETATM   25  C   UNL     1      40.865 -13.339   5.094  1.00  0.00    -0.026 A 
HETATM   26  C   UNL     1      39.621 -12.704   4.542  1.00  0.00     0.051 C 
HETATM   27  C   UNL     1      41.666 -12.639   6.005  1.00  0.00     0.039 A 
BRANCH  23  28
HETATM   28  C   UNL     1      42.777 -16.603   4.784  1.00  0.00     0.112 A 
HETATM   29  S   UNL     1      43.471 -17.764   5.846  1.00  0.00    -0.067 SA
HETATM   30  C   UNL     1      43.627 -18.882   4.547  1.00  0.00     0.035 A 
HETATM   31  C   UNL     1      43.133 -18.294   3.383  1.00  0.00     0.075 A 
HETATM   32  C   UNL     1      44.151 -20.185   4.554  1.00  0.00     0.021 A 
HETATM   33  N   UNL     1      42.670 -16.997   3.527  1.00  0.00    -0.239 NA
HETATM   34  C   UNL     1      43.152 -19.036   2.185  1.00  0.00     0.033 A 
HETATM   35  C   UNL     1      43.666 -20.336   2.180  1.00  0.00     0.002 A 
HETATM   36  C   UNL     1      44.162 -20.900   3.351  1.00  0.00     0.002 A 
ENDBRANCH  23  28
BRANCH  24  37
HETATM   37  O   UNL     1      40.414 -15.277   3.826  1.00  0.00    -0.359 OA
HETATM   38  H   UNL     1      40.897 -16.055   3.472  1.00  0.00     0.218 HD
ENDBRANCH  24  37
ENDBRANCH   1  21
TORSDOF 10
ENDMDL
MODEL 3
REMARK VINA RESULT:      -9.0      0.636      2.779
REMARK  10 active torsions:
REMARK  status: ('A' for Active; 'I' for Inactive)
REMARK    1  A    between atoms: C_2  and  O_3 
REMARK    2  A    between atoms: O_3  and  C_4 
REMARK    3  A    between atoms: C_6  and  O_7 
REMARK    4  A    between atoms: O_7  and  C_8 
REMARK    5  A    between atoms: C_11  and  C_12 
REMARK       I    between atoms: C_12  and  N_13 
REMARK    6  A    between atoms: N_13  and  C_14 
REMARK    7  A    between atoms: C_14  and  N_15 
REMARK    8  A    between atoms: N_15  and  C_16 
REMARK    9  A    between atoms: C_18  and  C_19 
REMARK   10  A    between atoms: C_28  and  O_29 
ROOT
HETATM    1  N   UNL     1      43.569 -12.248   7.788  1.00  0.00    -0.333 N 
HETATM    2  H   UNL     1      43.131 -12.764   8.554  1.00  0.00     0.168 HD
ENDROOT
BRANCH   1   3
HETATM    3  C   UNL     1      44.258 -11.136   8.208  1.00  0.00     0.179 C 
HETATM    4  S   UNL     1      45.758 -10.574   7.726  1.00  0.00    -0.040 SA
BRANCH   3   5
HETATM    5  N   UNL     1      43.623 -10.381   9.178  1.00  0.00    -0.299 N 
HETATM    6  C   UNL     1      43.616 -10.551  10.557  1.00  0.00     0.258 C 
HETATM    7  O   UNL     1      44.383 -11.313  11.142  1.00  0.00    -0.267 OA
HETATM    8  H   UNL     1      43.003  -9.700   8.765  1.00  0.00     0.171 HD
BRANCH   6   9
HETATM    9  C   UNL     1      42.615  -9.757  11.331  1.00  0.00     0.037 A 
HETATM   10  C   UNL     1      42.993  -9.284  12.597  1.00  0.00     0.054 A 
HETATM   11  C   UNL     1      42.083  -8.579  13.385  1.00  0.00     0.072 A 
HETATM   12  C   UNL     1      40.783  -8.361  12.916  1.00  0.00     0.073 A 
HETATM   13  C   UNL     1      40.400  -8.812  11.656  1.00  0.00     0.072 A 
HETATM   14  C   UNL     1      41.324  -9.491  10.857  1.00  0.00     0.054 A 
BRANCH  11  15
HETATM   15  O   UNL     1      42.326  -8.071  14.633  1.00  0.00    -0.351 OA
BRANCH  15  16
HETATM   16  C   UNL     1      41.270  -8.155  15.588  1.00  0.00     0.171 C 
HETATM   17  C   UNL     1      41.635  -7.267  16.764  1.00  0.00     0.034 C 
ENDBRANCH  15  16
ENDBRANCH  11  15
BRANCH  13  18
HETATM   18  O   UNL     1      39.168  -8.653  11.083  1.00  0.00    -0.351 OA
BRANCH  18  19
HETATM   19  C   UNL     1      39.104  -8.714   9.658  1.00  0.00     0.171 C 
HETATM   20  C   UNL     1      38.792  -7.319   9.145  1.00  0.00     0.034 C 
ENDBRANCH  18  19
ENDBRANCH  13  18
ENDBRANCH   6   9
ENDBRANCH   3   5
ENDBRANCH   1   3
BRANCH   1  21
HETATM   21  C   UNL     1      43.386 -12.806   6.502  1.00  0.00     0.035 A 
HETATM   22  C   UNL     1      43.463 -14.203   6.391  1.00  0.00     0.046 A 
HETATM   23  C   UNL     1      43.264 -14.859   5.160  1.00  0.00     0.036 A 
HETATM   24  C   UNL     1      42.929 -14.068   4.043  1.00  0.00     0.084 A 
HETATM   25  C   UNL     1      42.824 -12.676   4.134  1.00  0.00    -0.026 A 
HETATM   26  C   UNL     1      42.465 -11.847   2.935  1.00  0.00     0.051 C 
HETATM   27  C   UNL     1      43.059 -12.059   5.370  1.00  0.00     0.039 A 
BRANCH  23  28
HETATM   28  C   UNL     1      43.383 -16.326   5.014  1.00  0.00     0.112 A 
HETATM   29  S   UNL     1      43.493 -17.384   6.365  1.00  0.00    -0.067 SA
HETATM   30  C   UNL     1      43.674 -18.734   5.313  1.00  0.00     0.035 A 
HETATM   31  C   UNL     1      43.635 -18.285   3.993  1.00  0.00     0.075 A 
HETATM   32  C   UNL     1      43.842 -20.092   5.629  1.00  0.00     0.021 A 
HETATM   33  N   UNL     1      43.486 -16.918   3.837  1.00  0.00    -0.239 NA
HETATM   34  C   UNL     1      43.756 -19.226   2.951  1.00  0.00     0.033 A 
HETATM   35  C   UNL     1      43.919 -20.582   3.254  1.00  0.00     0.002 A 
HETATM   36  C   UNL     1      43.965 -21.006   4.578  1.00  0.00     0.002 A 
ENDBRANCH  23  28
BRANCH  24  37
HETATM   37  O   UNL     1      42.680 -14.622   2.808  1.00  0.00    -0.359 OA
HETATM   38  H   UNL     1      43.059 -14.026   2.127  1.00  0.00     0.218 HD
ENDBRANCH  24  37
ENDBRANCH   1  21
TORSDOF 10
ENDMDL
MODEL 4
REMARK VINA RESULT:      -8.7      1.567      1.662
REMARK  10 active torsions:
REMARK  status: ('A' for Active; 'I' for Inactive)
REMARK    1  A    between atoms: C_2  and  O_3 
REMARK    2  A    between atoms: O_3  and  C_4 
REMARK    3  A    between atoms: C_6  and  O_7 
REMARK    4  A    between atoms: O_7  and  C_8 
REMARK    5  A    between atoms: C_11  and  C_12 
REMARK       I    between atoms: C_12  and  N_13 
REMARK    6  A    between atoms: N_13  and  C_14 
REMARK    7  A    between atoms: C_14  and  N_15 
REMARK    8  A    between atoms: N_15  and  C_16 
REMARK    9  A    between atoms: C_18  and  C_19 
REMARK   10  A    between atoms: C_28  and  O_29 
ROOT
HETATM    1  N   UNL     1      43.561 -12.419   7.492  1.00  0.00    -0.333 N 
HETATM    2  H   UNL     1      43.445 -12.820   8.424  1.00  0.00     0.168 HD
ENDROOT
BRANCH   1   3
HETATM    3  C   UNL     1      44.453 -11.374   7.458  1.00  0.00     0.179 C 
HETATM    4  S   UNL     1      45.853 -11.203   6.560  1.00  0.00    -0.040 SA
BRANCH   3   5
HETATM    5  N   UNL     1      44.152 -10.316   8.299  1.00  0.00    -0.299 N 
HETATM    6  C   UNL     1      44.514 -10.122   9.627  1.00  0.00     0.258 C 
HETATM    7  O   UNL     1      45.366 -10.802  10.196  1.00  0.00    -0.267 OA
HETATM    8  H   UNL     1      43.484  -9.690   7.877  1.00  0.00     0.171 HD
BRANCH   6   9
HETATM    9  C   UNL     1      43.810  -9.030  10.366  1.00  0.00     0.037 A 
HETATM   10  C   UNL     1      43.296  -7.960   9.617  1.00  0.00     0.054 A 
HETATM   11  C   UNL     1      42.673  -6.889  10.258  1.00  0.00     0.072 A 
HETATM   12  C   UNL     1      42.579  -6.876  11.654  1.00  0.00     0.073 A 
HETATM   13  C   UNL     1      43.073  -7.938  12.407  1.00  0.00     0.072 A 
HETATM   14  C   UNL     1      43.669  -9.023  11.760  1.00  0.00     0.054 A 
BRANCH  11  15
HETATM   15  O   UNL     1      42.136  -5.790   9.645  1.00  0.00    -0.351 OA
BRANCH  15  16
HETATM   16  C   UNL     1      41.230  -6.023   8.567  1.00  0.00     0.171 C 
HETATM   17  C   UNL     1      39.901  -6.450   9.161  1.00  0.00     0.034 C 
ENDBRANCH  15  16
ENDBRANCH  11  15
BRANCH  13  18
HETATM   18  O   UNL     1      43.033  -8.046  13.770  1.00  0.00    -0.351 OA
BRANCH  18  19
HETATM   19  C   UNL     1      42.057  -8.931  14.320  1.00  0.00     0.171 C 
HETATM   20  C   UNL     1      41.023  -8.091  15.050  1.00  0.00     0.034 C 
ENDBRANCH  18  19
ENDBRANCH  13  18
ENDBRANCH   6   9
ENDBRANCH   3   5
ENDBRANCH   1   3
BRANCH   1  21
HETATM   21  C   UNL     1      42.810 -13.041   6.469  1.00  0.00     0.035 A 
HETATM   22  C   UNL     1      43.143 -14.364   6.140  1.00  0.00     0.046 A 
HETATM   23  C   UNL     1      42.434 -15.084   5.158  1.00  0.00     0.036 A 
HETATM   24  C   UNL     1      41.336 -14.448   4.545  1.00  0.00     0.084 A 
HETATM   25  C   UNL     1      40.971 -13.137   4.873  1.00  0.00    -0.026 A 
HETATM   26  C   UNL     1      39.796 -12.474   4.212  1.00  0.00     0.051 C 
HETATM   27  C   UNL     1      41.719 -12.445   5.834  1.00  0.00     0.039 A 
BRANCH  23  28
HETATM   28  C   UNL     1      42.797 -16.463   4.768  1.00  0.00     0.112 A 
HETATM   29  S   UNL     1      43.443 -17.601   5.884  1.00  0.00    -0.067 SA
HETATM   30  C   UNL     1      43.617 -18.761   4.625  1.00  0.00     0.035 A 
HETATM   31  C   UNL     1      43.164 -18.202   3.431  1.00  0.00     0.075 A 
HETATM   32  C   UNL     1      44.119 -20.071   4.687  1.00  0.00     0.021 A 
HETATM   33  N   UNL     1      42.718 -16.894   3.522  1.00  0.00    -0.239 NA
HETATM   34  C   UNL     1      43.204 -18.981   2.257  1.00  0.00     0.033 A 
HETATM   35  C   UNL     1      43.698 -20.288   2.306  1.00  0.00     0.002 A 
HETATM   36  C   UNL     1      44.152 -20.823   3.508  1.00  0.00     0.002 A 
ENDBRANCH  23  28
BRANCH  24  37
HETATM   37  O   UNL     1      40.561 -15.083   3.602  1.00  0.00    -0.359 OA
HETATM   38  H   UNL     1      39.660 -14.695   3.640  1.00  0.00     0.218 HD
ENDBRANCH  24  37
ENDBRANCH   1  21
TORSDOF 10
ENDMDL
MODEL 5
REMARK VINA RESULT:      -8.5      4.157      9.945
REMARK  10 active torsions:
REMARK  status: ('A' for Active; 'I' for Inactive)
REMARK    1  A    between atoms: C_2  and  O_3 
REMARK    2  A    between atoms: O_3  and  C_4 
REMARK    3  A    between atoms: C_6  and  O_7 
REMARK    4  A    between atoms: O_7  and  C_8 
REMARK    5  A    between atoms: C_11  and  C_12 
REMARK       I    between atoms: C_12  and  N_13 
REMARK    6  A    between atoms: N_13  and  C_14 
REMARK    7  A    between atoms: C_14  and  N_15 
REMARK    8  A    between atoms: N_15  and  C_16 
REMARK    9  A    between atoms: C_18  and  C_19 
REMARK   10  A    between atoms: C_28  and  O_29 
ROOT
HETATM    1  N   UNL     1      39.017 -12.703   1.970  1.00  0.00    -0.333 N 
HETATM    2  H   UNL     1      38.049 -13.028   1.936  1.00  0.00     0.168 HD
ENDROOT
BRANCH   1   3
HETATM    3  C   UNL     1      39.854 -13.402   1.134  1.00  0.00     0.179 C 
HETATM    4  S   UNL     1      40.007 -13.313  -0.529  1.00  0.00    -0.040 SA
BRANCH   3   5
HETATM    5  N   UNL     1      40.680 -14.319   1.760  1.00  0.00    -0.299 N 
HETATM    6  C   UNL     1      40.505 -15.688   1.924  1.00  0.00     0.258 C 
HETATM    7  O   UNL     1      39.646 -16.330   1.323  1.00  0.00    -0.267 OA
HETATM    8  H   UNL     1      41.438 -13.861   2.243  1.00  0.00     0.171 HD
BRANCH   6   9
HETATM    9  C   UNL     1      41.418 -16.376   2.887  1.00  0.00     0.037 A 
HETATM   10  C   UNL     1      41.262 -16.091   4.253  1.00  0.00     0.054 A 
HETATM   11  C   UNL     1      42.118 -16.666   5.192  1.00  0.00     0.072 A 
HETATM   12  C   UNL     1      43.146 -17.514   4.767  1.00  0.00     0.073 A 
HETATM   13  C   UNL     1      43.301 -17.816   3.416  1.00  0.00     0.072 A 
HETATM   14  C   UNL     1      42.424 -17.262   2.481  1.00  0.00     0.054 A 
BRANCH  11  15
HETATM   15  O   UNL     1      42.073 -16.466   6.546  1.00  0.00    -0.351 OA
BRANCH  15  16
HETATM   16  C   UNL     1      41.950 -15.120   7.002  1.00  0.00     0.171 C 
HETATM   17  C   UNL     1      43.324 -14.479   6.934  1.00  0.00     0.034 C 
ENDBRANCH  15  16
ENDBRANCH  11  15
BRANCH  13  18
HETATM   18  O   UNL     1      44.256 -18.634   2.879  1.00  0.00    -0.351 OA
BRANCH  18  19
HETATM   19  C   UNL     1      44.028 -20.041   2.970  1.00  0.00     0.171 C 
HETATM   20  C   UNL     1      43.519 -20.520   1.622  1.00  0.00     0.034 C 
ENDBRANCH  18  19
ENDBRANCH  13  18
ENDBRANCH   6   9
ENDBRANCH   3   5
ENDBRANCH   1   3
BRANCH   1  21
HETATM   21  C   UNL     1      39.258 -11.613   2.837  1.00  0.00     0.035 A 
HETATM   22  C   UNL     1      40.448 -11.635   3.582  1.00  0.00     0.046 A 
HETATM   23  C   UNL     1      40.797 -10.581   4.449  1.00  0.00     0.036 A 
HETATM   24  C   UNL     1      39.934  -9.469   4.510  1.00  0.00     0.084 A 
HETATM   25  C   UNL     1      38.753  -9.414   3.760  1.00  0.00    -0.026 A 
HETATM   26  C   UNL     1      37.845  -8.221   3.834  1.00  0.00     0.051 C 
HETATM   27  C   UNL     1      38.427 -10.496   2.930  1.00  0.00     0.039 A 
BRANCH  23  28
HETATM   28  C   UNL     1      42.024 -10.606   5.274  1.00  0.00     0.112 A 
HETATM   29  S   UNL     1      43.505 -11.272   4.709  1.00  0.00    -0.067 SA
HETATM   30  C   UNL     1      44.243 -10.963   6.232  1.00  0.00     0.035 A 
HETATM   31  C   UNL     1      43.307 -10.365   7.075  1.00  0.00     0.075 A 
HETATM   32  C   UNL     1      45.555 -11.233   6.656  1.00  0.00     0.021 A 
HETATM   33  N   UNL     1      42.049 -10.183   6.526  1.00  0.00    -0.239 NA
HETATM   34  C   UNL     1      43.695 -10.013   8.383  1.00  0.00     0.033 A 
HETATM   35  C   UNL     1      45.000 -10.272   8.814  1.00  0.00     0.002 A 
HETATM   36  C   UNL     1      45.916 -10.877   7.959  1.00  0.00     0.002 A 
ENDBRANCH  23  28
BRANCH  24  37
HETATM   37  O   UNL     1      40.209  -8.377   5.300  1.00  0.00    -0.359 OA
HETATM   38  H   UNL     1      39.825  -7.585   4.866  1.00  0.00     0.218 HD
ENDBRANCH  24  37
ENDBRANCH   1  21
TORSDOF 10
ENDMDL
MODEL 6
REMARK VINA RESULT:      -8.4      2.770      4.520
REMARK  10 active torsions:
REMARK  status: ('A' for Active; 'I' for Inactive)
REMARK    1  A    between atoms: C_2  and  O_3 
REMARK    2  A    between atoms: O_3  and  C_4 
REMARK    3  A    between atoms: C_6  and  O_7 
REMARK    4  A    between atoms: O_7  and  C_8 
REMARK    5  A    between atoms: C_11  and  C_12 
REMARK       I    between atoms: C_12  and  N_13 
REMARK    6  A    between atoms: N_13  and  C_14 
REMARK    7  A    between atoms: C_14  and  N_15 
REMARK    8  A    between atoms: N_15  and  C_16 
REMARK    9  A    between atoms: C_18  and  C_19 
REMARK   10  A    between atoms: C_28  and  O_29 
ROOT
HETATM    1  N   UNL     1      43.429 -12.911   7.449  1.00  0.00    -0.333 N 
HETATM    2  H   UNL     1      42.926 -13.028   8.331  1.00  0.00     0.168 HD
ENDROOT
BRANCH   1   3
HETATM    3  C   UNL     1      44.185 -11.764   7.402  1.00  0.00     0.179 C 
HETATM    4  S   UNL     1      45.514 -11.408   6.452  1.00  0.00    -0.040 SA
BRANCH   3   5
HETATM    5  N   UNL     1      43.795 -10.766   8.278  1.00  0.00    -0.299 N 
HETATM    6  C   UNL     1      44.349 -10.407   9.501  1.00  0.00     0.258 C 
HETATM    7  O   UNL     1      45.442 -10.816   9.887  1.00  0.00    -0.267 OA
HETATM    8  H   UNL     1      42.918 -10.354   7.998  1.00  0.00     0.171 HD
BRANCH   6   9
HETATM    9  C   UNL     1      43.549  -9.482  10.360  1.00  0.00     0.037 A 
HETATM   10  C   UNL     1      42.897 -10.027  11.477  1.00  0.00     0.054 A 
HETATM   11  C   UNL     1      42.097  -9.220  12.287  1.00  0.00     0.072 A 
HETATM   12  C   UNL     1      41.929  -7.868  11.969  1.00  0.00     0.073 A 
HETATM   13  C   UNL     1      42.582  -7.313  10.872  1.00  0.00     0.072 A 
HETATM   14  C   UNL     1      43.407  -8.116  10.082  1.00  0.00     0.054 A 
BRANCH  11  15
HETATM   15  O   UNL     1      41.409  -9.630  13.397  1.00  0.00    -0.351 OA
BRANCH  15  16
HETATM   16  C   UNL     1      39.986  -9.529  13.356  1.00  0.00     0.171 C 
HETATM   17  C   UNL     1      39.434 -10.896  12.996  1.00  0.00     0.034 C 
ENDBRANCH  15  16
ENDBRANCH  11  15
BRANCH  13  18
HETATM   18  O   UNL     1      42.508  -6.008  10.467  1.00  0.00    -0.351 OA
BRANCH  18  19
HETATM   19  C   UNL     1      42.305  -5.026  11.482  1.00  0.00     0.171 C 
HETATM   20  C   UNL     1      42.848  -3.704  10.968  1.00  0.00     0.034 C 
ENDBRANCH  18  19
ENDBRANCH  13  18
ENDBRANCH   6   9
ENDBRANCH   3   5
ENDBRANCH   1   3
BRANCH   1  21
HETATM   21  C   UNL     1      43.251 -13.952   6.510  1.00  0.00     0.035 A 
HETATM   22  C   UNL     1      42.743 -13.600   5.249  1.00  0.00     0.046 A 
HETATM   23  C   UNL     1      42.558 -14.558   4.233  1.00  0.00     0.036 A 
HETATM   24  C   UNL     1      42.952 -15.884   4.502  1.00  0.00     0.084 A 
HETATM   25  C   UNL     1      43.481 -16.254   5.744  1.00  0.00    -0.026 A 
HETATM   26  C   UNL     1      43.898 -17.671   6.015  1.00  0.00     0.051 C 
HETATM   27  C   UNL     1      43.622 -15.277   6.738  1.00  0.00     0.039 A 
BRANCH  23  28
HETATM   28  C   UNL     1      41.985 -14.214   2.914  1.00  0.00     0.112 A 
HETATM   29  S   UNL     1      42.216 -12.679   2.175  1.00  0.00    -0.067 SA
HETATM   30  C   UNL     1      41.209 -13.142   0.860  1.00  0.00     0.035 A 
HETATM   31  C   UNL     1      40.764 -14.447   1.069  1.00  0.00     0.075 A 
HETATM   32  C   UNL     1      40.836 -12.405  -0.277  1.00  0.00     0.021 A 
HETATM   33  N   UNL     1      41.197 -15.037   2.244  1.00  0.00    -0.239 NA
HETATM   34  C   UNL     1      39.925 -15.042   0.106  1.00  0.00     0.033 A 
HETATM   35  C   UNL     1      39.550 -14.321  -1.031  1.00  0.00     0.002 A 
HETATM   36  C   UNL     1      39.999 -13.017  -1.216  1.00  0.00     0.002 A 
ENDBRANCH  23  28
BRANCH  24  37
HETATM   37  O   UNL     1      42.844 -16.880   3.560  1.00  0.00    -0.359 OA
HETATM   38  H   UNL     1      43.552 -17.538   3.733  1.00  0.00     0.218 HD
ENDBRANCH  24  37
ENDBRANCH   1  21
TORSDOF 10
ENDMDL
MODEL 7
REMARK VINA RESULT:      -8.3      1.862      2.007
REMARK  10 active torsions:
REMARK  status: ('A' for Active; 'I' for Inactive)
REMARK    1  A    between atoms: C_2  and  O_3 
REMARK    2  A    between atoms: O_3  and  C_4 
REMARK    3  A    between atoms: C_6  and  O_7 
REMARK    4  A    between atoms: O_7  and  C_8 
REMARK    5  A    between atoms: C_11  and  C_12 
REMARK       I    between atoms: C_12  and  N_13 
REMARK    6  A    between atoms: N_13  and  C_14 
REMARK    7  A    between atoms: C_14  and  N_15 
REMARK    8  A    between atoms: N_15  and  C_16 
REMARK    9  A    between atoms: C_18  and  C_19 
REMARK   10  A    between atoms: C_28  and  O_29 
ROOT
HETATM    1  N   UNL     1      43.597 -12.383   7.489  1.00  0.00    -0.333 N 
HETATM    2  H   UNL     1      43.190 -12.938   8.244  1.00  0.00     0.168 HD
ENDROOT
BRANCH   1   3
HETATM    3  C   UNL     1      44.304 -11.293   7.937  1.00  0.00     0.179 C 
HETATM    4  S   UNL     1      45.846 -10.790   7.530  1.00  0.00    -0.040 SA
BRANCH   3   5
HETATM    5  N   UNL     1      43.647 -10.507   8.868  1.00  0.00    -0.299 N 
HETATM    6  C   UNL     1      42.577  -9.640   8.685  1.00  0.00     0.258 C 
HETATM    7  O   UNL     1      41.907  -9.612   7.655  1.00  0.00    -0.267 OA
HETATM    8  H   UNL     1      44.124 -10.516   9.758  1.00  0.00     0.171 HD
BRANCH   6   9
HETATM    9  C   UNL     1      42.260  -8.711   9.811  1.00  0.00     0.037 A 
HETATM   10  C   UNL     1      42.629  -7.364   9.672  1.00  0.00     0.054 A 
HETATM   11  C   UNL     1      42.402  -6.461  10.711  1.00  0.00     0.072 A 
HETATM   12  C   UNL     1      41.821  -6.908  11.902  1.00  0.00     0.073 A 
HETATM   13  C   UNL     1      41.436  -8.238  12.047  1.00  0.00     0.072 A 
HETATM   14  C   UNL     1      41.638  -9.132  10.993  1.00  0.00     0.054 A 
BRANCH  11  15
HETATM   15  O   UNL     1      42.718  -5.130  10.700  1.00  0.00    -0.351 OA
BRANCH  15  16
HETATM   16  C   UNL     1      41.932  -4.280   9.865  1.00  0.00     0.171 C 
HETATM   17  C   UNL     1      41.258  -3.251  10.754  1.00  0.00     0.034 C 
ENDBRANCH  15  16
ENDBRANCH  11  15
BRANCH  13  18
HETATM   18  O   UNL     1      40.852  -8.792  13.153  1.00  0.00    -0.351 OA
BRANCH  18  19
HETATM   19  C   UNL     1      40.551  -7.910  14.235  1.00  0.00     0.171 C 
HETATM   20  C   UNL     1      41.468  -8.262  15.394  1.00  0.00     0.034 C 
ENDBRANCH  18  19
ENDBRANCH  13  18
ENDBRANCH   6   9
ENDBRANCH   3   5
ENDBRANCH   1   3
BRANCH   1  21
HETATM   21  C   UNL     1      43.363 -12.874   6.185  1.00  0.00     0.035 A 
HETATM   22  C   UNL     1      43.459 -14.262   5.995  1.00  0.00     0.046 A 
HETATM   23  C   UNL     1      43.212 -14.855   4.741  1.00  0.00     0.036 A 
HETATM   24  C   UNL     1      42.810 -14.013   3.685  1.00  0.00     0.084 A 
HETATM   25  C   UNL     1      42.686 -12.629   3.857  1.00  0.00    -0.026 A 
HETATM   26  C   UNL     1      42.255 -11.745   2.722  1.00  0.00     0.051 C 
HETATM   27  C   UNL     1      42.969 -12.075   5.112  1.00  0.00     0.039 A 
BRANCH  23  28
HETATM   28  C   UNL     1      43.349 -16.309   4.510  1.00  0.00     0.112 A 
HETATM   29  S   UNL     1      43.793 -17.407   5.757  1.00  0.00    -0.067 SA
HETATM   30  C   UNL     1      43.787 -18.710   4.634  1.00  0.00     0.035 A 
HETATM   31  C   UNL     1      43.441 -18.220   3.376  1.00  0.00     0.075 A 
HETATM   32  C   UNL     1      44.070 -20.069   4.848  1.00  0.00     0.021 A 
HETATM   33  N   UNL     1      43.211 -16.856   3.315  1.00  0.00    -0.239 NA
HETATM   34  C   UNL     1      43.363 -19.120   2.293  1.00  0.00     0.033 A 
HETATM   35  C   UNL     1      43.639 -20.476   2.495  1.00  0.00     0.002 A 
HETATM   36  C   UNL     1      43.990 -20.942   3.757  1.00  0.00     0.002 A 
ENDBRANCH  23  28
BRANCH  24  37
HETATM   37  O   UNL     1      42.512 -14.505   2.435  1.00  0.00    -0.359 OA
HETATM   38  H   UNL     1      41.600 -14.221   2.208  1.00  0.00     0.218 HD
ENDBRANCH  24  37
ENDBRANCH   1  21
TORSDOF 10
ENDMDL
MODEL 8
REMARK VINA RESULT:      -8.3      3.581     10.512
REMARK  10 active torsions:
REMARK  status: ('A' for Active; 'I' for Inactive)
REMARK    1  A    between atoms: C_2  and  O_3 
REMARK    2  A    between atoms: O_3  and  C_4 
REMARK    3  A    between atoms: C_6  and  O_7 
REMARK    4  A    between atoms: O_7  and  C_8 
REMARK    5  A    between atoms: C_11  and  C_12 
REMARK       I    between atoms: C_12  and  N_13 
REMARK    6  A    between atoms: N_13  and  C_14 
REMARK    7  A    between atoms: C_14  and  N_15 
REMARK    8  A    between atoms: N_15  and  C_16 
REMARK    9  A    between atoms: C_18  and  C_19 
REMARK   10  A    between atoms: C_28  and  O_29 
ROOT
HETATM    1  N   UNL     1      41.151  -9.596   5.286  1.00  0.00    -0.333 N 
HETATM    2  H   UNL     1      41.386  -8.805   4.684  1.00  0.00     0.168 HD
ENDROOT
BRANCH   1   3
HETATM    3  C   UNL     1      39.960 -10.197   4.954  1.00  0.00     0.179 C 
HETATM    4  S   UNL     1      38.414  -9.559   4.957  1.00  0.00    -0.040 SA
BRANCH   3   5
HETATM    5  N   UNL     1      40.056 -11.524   4.573  1.00  0.00    -0.299 N 
HETATM    6  C   UNL     1      39.938 -12.670   5.350  1.00  0.00     0.258 C 
HETATM    7  O   UNL     1      39.505 -12.657   6.501  1.00  0.00    -0.267 OA
HETATM    8  H   UNL     1      40.369 -11.610   3.617  1.00  0.00     0.171 HD
BRANCH   6   9
HETATM    9  C   UNL     1      40.370 -13.957   4.726  1.00  0.00     0.037 A 
HETATM   10  C   UNL     1      41.127 -14.842   5.509  1.00  0.00     0.054 A 
HETATM   11  C   UNL     1      41.599 -16.036   4.964  1.00  0.00     0.072 A 
HETATM   12  C   UNL     1      41.332 -16.340   3.625  1.00  0.00     0.073 A 
HETATM   13  C   UNL     1      40.569 -15.478   2.842  1.00  0.00     0.072 A 
HETATM   14  C   UNL     1      40.073 -14.297   3.400  1.00  0.00     0.054 A 
BRANCH  11  15
HETATM   15  O   UNL     1      42.347 -16.977   5.619  1.00  0.00    -0.351 OA
BRANCH  15  16
HETATM   16  C   UNL     1      43.001 -16.568   6.820  1.00  0.00     0.171 C 
HETATM   17  C   UNL     1      44.473 -16.377   6.504  1.00  0.00     0.034 C 
ENDBRANCH  15  16
ENDBRANCH  11  15
BRANCH  13  18
HETATM   18  O   UNL     1      40.233 -15.667   1.529  1.00  0.00    -0.351 OA
BRANCH  18  19
HETATM   19  C   UNL     1      40.869 -14.822   0.570  1.00  0.00     0.171 C 
HETATM   20  C   UNL     1      39.822 -14.399  -0.446  1.00  0.00     0.034 C 
ENDBRANCH  18  19
ENDBRANCH  13  18
ENDBRANCH   6   9
ENDBRANCH   3   5
ENDBRANCH   1   3
BRANCH   1  21
HETATM   21  C   UNL     1      42.102  -9.897   6.287  1.00  0.00     0.035 A 
HETATM   22  C   UNL     1      41.806  -9.490   7.598  1.00  0.00     0.046 A 
HETATM   23  C   UNL     1      42.673  -9.770   8.673  1.00  0.00     0.036 A 
HETATM   24  C   UNL     1      43.833 -10.522   8.401  1.00  0.00     0.084 A 
HETATM   25  C   UNL     1      44.138 -10.957   7.106  1.00  0.00    -0.026 A 
HETATM   26  C   UNL     1      45.377 -11.761   6.832  1.00  0.00     0.051 C 
HETATM   27  C   UNL     1      43.264 -10.634   6.059  1.00  0.00     0.039 A 
BRANCH  23  28
HETATM   28  C   UNL     1      42.399  -9.313  10.052  1.00  0.00     0.112 A 
HETATM   29  S   UNL     1      40.829  -9.367  10.751  1.00  0.00    -0.067 SA
HETATM   30  C   UNL     1      41.423  -8.624  12.184  1.00  0.00     0.035 A 
HETATM   31  C   UNL     1      42.789  -8.386  12.036  1.00  0.00     0.075 A 
HETATM   32  C   UNL     1      40.733  -8.273  13.356  1.00  0.00     0.021 A 
HETATM   33  N   UNL     1      43.327  -8.766  10.818  1.00  0.00    -0.239 NA
HETATM   34  C   UNL     1      43.494  -7.787  13.099  1.00  0.00     0.033 A 
HETATM   35  C   UNL     1      42.819  -7.437  14.272  1.00  0.00     0.002 A 
HETATM   36  C   UNL     1      41.454  -7.676  14.395  1.00  0.00     0.002 A 
ENDBRANCH  23  28
BRANCH  24  37
HETATM   37  O   UNL     1      44.720 -10.875   9.391  1.00  0.00    -0.359 OA
HETATM   38  H   UNL     1      44.386 -11.694   9.818  1.00  0.00     0.218 HD
ENDBRANCH  24  37
ENDBRANCH   1  21
TORSDOF 10
ENDMDL
MODEL 9
REMARK VINA RESULT:      -8.2      2.971      4.702
REMARK  10 active torsions:
REMARK  status: ('A' for Active; 'I' for Inactive)
REMARK    1  A    between atoms: C_2  and  O_3 
REMARK    2  A    between atoms: O_3  and  C_4 
REMARK    3  A    between atoms: C_6  and  O_7 
REMARK    4  A    between atoms: O_7  and  C_8 
REMARK    5  A    between atoms: C_11  and  C_12 
REMARK       I    between atoms: C_12  and  N_13 
REMARK    6  A    between atoms: N_13  and  C_14 
REMARK    7  A    between atoms: C_14  and  N_15 
REMARK    8  A    between atoms: N_15  and  C_16 
REMARK    9  A    between atoms: C_18  and  C_19 
REMARK   10  A    between atoms: C_28  and  O_29 
ROOT
HETATM    1  N   UNL     1      38.945 -11.353   4.043  1.00  0.00    -0.333 N 
HETATM    2  H   UNL     1      38.259 -11.885   4.581  1.00  0.00     0.168 HD
ENDROOT
BRANCH   1   3
HETATM    3  C   UNL     1      39.056 -10.044   4.449  1.00  0.00     0.179 C 
HETATM    4  S   UNL     1      38.319  -8.676   3.830  1.00  0.00    -0.040 SA
BRANCH   3   5
HETATM    5  N   UNL     1      39.910  -9.830   5.517  1.00  0.00    -0.299 N 
HETATM    6  C   UNL     1      41.297  -9.902   5.558  1.00  0.00     0.258 C 
HETATM    7  O   UNL     1      41.995  -9.967   4.548  1.00  0.00    -0.267 OA
HETATM    8  H   UNL     1      39.399  -9.725   6.380  1.00  0.00     0.171 HD
BRANCH   6   9
HETATM    9  C   UNL     1      41.934  -9.901   6.910  1.00  0.00     0.037 A 
HETATM   10  C   UNL     1      41.287  -9.197   7.937  1.00  0.00     0.054 A 
HETATM   11  C   UNL     1      41.860  -9.121   9.206  1.00  0.00     0.072 A 
HETATM   12  C   UNL     1      43.094  -9.734   9.448  1.00  0.00     0.073 A 
HETATM   13  C   UNL     1      43.738 -10.448   8.441  1.00  0.00     0.072 A 
HETATM   14  C   UNL     1      43.147 -10.547   7.180  1.00  0.00     0.054 A 
BRANCH  11  15
HETATM   15  O   UNL     1      41.333  -8.465  10.286  1.00  0.00    -0.351 OA
BRANCH  15  16
HETATM   16  C   UNL     1      39.958  -8.703  10.586  1.00  0.00     0.171 C 
HETATM   17  C   UNL     1      39.878  -9.960  11.432  1.00  0.00     0.034 C 
ENDBRANCH  15  16
ENDBRANCH  11  15
BRANCH  13  18
HETATM   18  O   UNL     1      44.937 -11.097   8.555  1.00  0.00    -0.351 OA
BRANCH  18  19
HETATM   19  C   UNL     1      45.969 -10.714   7.646  1.00  0.00     0.171 C 
HETATM   20  C   UNL     1      46.409  -9.305   8.007  1.00  0.00     0.034 C 
ENDBRANCH  18  19
ENDBRANCH  13  18
ENDBRANCH   6   9
ENDBRANCH   3   5
ENDBRANCH   1   3
BRANCH   1  21
HETATM   21  C   UNL     1      39.624 -12.082   3.040  1.00  0.00     0.035 A 
HETATM   22  C   UNL     1      40.324 -13.229   3.445  1.00  0.00     0.046 A 
HETATM   23  C   UNL     1      41.007 -14.043   2.519  1.00  0.00     0.036 A 
HETATM   24  C   UNL     1      40.921 -13.698   1.155  1.00  0.00     0.084 A 
HETATM   25  C   UNL     1      40.210 -12.572   0.726  1.00  0.00    -0.026 A 
HETATM   26  C   UNL     1      40.127 -12.219  -0.731  1.00  0.00     0.051 C 
HETATM   27  C   UNL     1      39.569 -11.772   1.681  1.00  0.00     0.039 A 
BRANCH  23  28
HETATM   28  C   UNL     1      41.785 -15.231   2.930  1.00  0.00     0.112 A 
HETATM   29  S   UNL     1      42.754 -15.257   4.350  1.00  0.00    -0.067 SA
HETATM   30  C   UNL     1      43.286 -16.850   3.978  1.00  0.00     0.035 A 
HETATM   31  C   UNL     1      42.683 -17.261   2.790  1.00  0.00     0.075 A 
HETATM   32  C   UNL     1      44.175 -17.678   4.683  1.00  0.00     0.021 A 
HETATM   33  N   UNL     1      41.848 -16.329   2.197  1.00  0.00    -0.239 NA
HETATM   34  C   UNL     1      42.968 -18.549   2.292  1.00  0.00     0.033 A 
HETATM   35  C   UNL     1      43.847 -19.384   2.988  1.00  0.00     0.002 A 
HETATM   36  C   UNL     1      44.445 -18.950   4.167  1.00  0.00     0.002 A 
ENDBRANCH  23  28
BRANCH  24  37
HETATM   37  O   UNL     1      41.524 -14.453   0.175  1.00  0.00    -0.359 OA
HETATM   38  H   UNL     1      41.082 -14.249  -0.678  1.00  0.00     0.218 HD
ENDBRANCH  24  37
ENDBRANCH   1  21
TORSDOF 10
ENDMDL
MODEL 10
REMARK VINA RESULT:      -8.1      3.333     10.754
REMARK  10 active torsions:
REMARK  status: ('A' for Active; 'I' for Inactive)
REMARK    1  A    between atoms: C_2  and  O_3 
REMARK    2  A    between atoms: O_3  and  C_4 
REMARK    3  A    between atoms: C_6  and  O_7 
REMARK    4  A    between atoms: O_7  and  C_8 
REMARK    5  A    between atoms: C_11  and  C_12 
REMARK       I    between atoms: C_12  and  N_13 
REMARK    6  A    between atoms: N_13  and  C_14 
REMARK    7  A    between atoms: C_14  and  N_15 
REMARK    8  A    between atoms: N_15  and  C_16 
REMARK    9  A    between atoms: C_18  and  C_19 
REMARK   10  A    between atoms: C_28  and  O_29 
ROOT
HETATM    1  N   UNL     1      41.155  -9.557   5.221  1.00  0.00    -0.333 N 
HETATM    2  H   UNL     1      41.294  -8.675   4.726  1.00  0.00     0.168 HD
ENDROOT
BRANCH   1   3
HETATM    3  C   UNL     1      40.031 -10.236   4.814  1.00  0.00     0.179 C 
HETATM    4  S   UNL     1      38.424  -9.792   4.933  1.00  0.00    -0.040 SA
BRANCH   3   5
HETATM    5  N   UNL     1      40.267 -11.470   4.233  1.00  0.00    -0.299 N 
HETATM    6  C   UNL     1      41.018 -11.779   3.105  1.00  0.00     0.258 C 
HETATM    7  O   UNL     1      41.780 -10.978   2.568  1.00  0.00    -0.267 OA
HETATM    8  H   UNL     1      39.700 -12.189   4.657  1.00  0.00     0.171 HD
BRANCH   6   9
HETATM    9  C   UNL     1      40.862 -13.156   2.547  1.00  0.00     0.037 A 
HETATM   10  C   UNL     1      40.298 -13.284   1.268  1.00  0.00     0.054 A 
HETATM   11  C   UNL     1      40.084 -14.547   0.716  1.00  0.00     0.072 A 
HETATM   12  C   UNL     1      40.416 -15.690   1.452  1.00  0.00     0.073 A 
HETATM   13  C   UNL     1      40.990 -15.577   2.715  1.00  0.00     0.072 A 
HETATM   14  C   UNL     1      41.231 -14.310   3.251  1.00  0.00     0.054 A 
BRANCH  11  15
HETATM   15  O   UNL     1      39.541 -14.804  -0.514  1.00  0.00    -0.351 OA
BRANCH  15  16
HETATM   16  C   UNL     1      39.369 -13.694  -1.394  1.00  0.00     0.171 C 
HETATM   17  C   UNL     1      40.222 -13.940  -2.624  1.00  0.00     0.034 C 
ENDBRANCH  15  16
ENDBRANCH  11  15
BRANCH  13  18
HETATM   18  O   UNL     1      41.366 -16.613   3.524  1.00  0.00    -0.351 OA
BRANCH  18  19
HETATM   19  C   UNL     1      42.696 -17.108   3.366  1.00  0.00     0.171 C 
HETATM   20  C   UNL     1      43.346 -17.149   4.738  1.00  0.00     0.034 C 
ENDBRANCH  18  19
ENDBRANCH  13  18
ENDBRANCH   6   9
ENDBRANCH   3   5
ENDBRANCH   1   3
BRANCH   1  21
HETATM   21  C   UNL     1      42.147  -9.878   6.175  1.00  0.00     0.035 A 
HETATM   22  C   UNL     1      41.967  -9.390   7.479  1.00  0.00     0.046 A 
HETATM   23  C   UNL     1      42.881  -9.680   8.511  1.00  0.00     0.036 A 
HETATM   24  C   UNL     1      43.966 -10.526   8.206  1.00  0.00     0.084 A 
HETATM   25  C   UNL     1      44.154 -11.043   6.919  1.00  0.00    -0.026 A 
HETATM   26  C   UNL     1      45.315 -11.945   6.610  1.00  0.00     0.051 C 
HETATM   27  C   UNL     1      43.238 -10.707   5.913  1.00  0.00     0.039 A 
BRANCH  23  28
HETATM   28  C   UNL     1      42.731  -9.141   9.879  1.00  0.00     0.112 A 
HETATM   29  S   UNL     1      43.020  -7.489  10.260  1.00  0.00    -0.067 SA
HETATM   30  C   UNL     1      42.714  -7.802  11.924  1.00  0.00     0.035 A 
HETATM   31  C   UNL     1      42.406  -9.153  12.079  1.00  0.00     0.075 A 
HETATM   32  C   UNL     1      42.746  -6.919  13.015  1.00  0.00     0.021 A 
HETATM   33  N   UNL     1      42.435  -9.904  10.917  1.00  0.00    -0.239 NA
HETATM   34  C   UNL     1      42.108  -9.639  13.368  1.00  0.00     0.033 A 
HETATM   35  C   UNL     1      42.132  -8.768  14.462  1.00  0.00     0.002 A 
HETATM   36  C   UNL     1      42.451  -7.426  14.285  1.00  0.00     0.002 A 
ENDBRANCH  23  28
BRANCH  24  37
HETATM   37  O   UNL     1      44.890 -10.895   9.156  1.00  0.00    -0.359 OA
HETATM   38  H   UNL     1      45.036 -10.128   9.750  1.00  0.00     0.218 HD
ENDBRANCH  24  37
ENDBRANCH   1  21
TORSDOF 10
ENDMDL
