MODEL 1
REMARK VINA RESULT:      -8.7      0.000      0.000
REMARK  6 active torsions:
REMARK  status: ('A' for Active; 'I' for Inactive)
REMARK    1  A    between atoms: C_2  and  C_3 
REMARK       I    between atoms: C_3  and  N_4 
REMARK    2  A    between atoms: N_4  and  C_5 
REMARK    3  A    between atoms: C_8  and  N_9 
REMARK       I    between atoms: N_9  and  C_10 
REMARK    4  A    between atoms: C_10  and  C_11 
REMARK    5  A    between atoms: C_16  and  C_17 
REMARK    6  A    between atoms: C_23  and  C_24 
ROOT
HETATM    1  C   UNL     1      43.123 -10.799   5.739  1.00  0.00     0.148 C 
HETATM    2  N   UNL     1      44.123 -11.182   6.570  1.00  0.00    -0.165 NA
HETATM    3  N   UNL     1      43.915 -10.427   7.661  1.00  0.00    -0.240 N 
HETATM    4  C   UNL     1      42.739  -9.736   7.645  1.00  0.00     0.123 C 
HETATM    5  N   UNL     1      42.302  -9.094   8.745  1.00  0.00    -0.364 N 
HETATM    6  C   UNL     1      42.857  -9.340  10.085  1.00  0.00     0.143 C 
HETATM    7  C   UNL     1      43.911 -10.474  10.076  1.00  0.00     0.068 C 
HETATM    8  C   UNL     1      44.785 -10.467   8.818  1.00  0.00     0.221 C 
HETATM    9  C   UNL     1      42.247  -9.874   6.375  1.00  0.00     0.089 C 
HETATM   10  H   UNL     1      41.437  -8.556   8.734  1.00  0.00     0.162 HD
ENDROOT
BRANCH   1  11
HETATM   11  C   UNL     1      42.992 -11.354   4.380  1.00  0.00     0.276 C 
HETATM   12  N   UNL     1      41.824 -12.080   4.246  1.00  0.00    -0.322 N 
HETATM   13  H   UNL     1      41.245 -12.064   5.081  1.00  0.00     0.169 HD
HETATM   14  O   UNL     1      43.821 -11.126   3.507  1.00  0.00    -0.266 OA
BRANCH  12  15
HETATM   15  C   UNL     1      41.355 -12.781   3.126  1.00  0.00     0.035 A 
HETATM   16  C   UNL     1      41.966 -13.921   2.611  1.00  0.00     0.032 A 
HETATM   17  C   UNL     1      41.405 -14.598   1.519  1.00  0.00     0.032 A 
HETATM   18  C   UNL     1      40.240 -14.129   0.914  1.00  0.00     0.034 A 
HETATM   19  C   UNL     1      39.646 -12.965   1.412  1.00  0.00     0.032 A 
HETATM   20  C   UNL     1      40.188 -12.307   2.520  1.00  0.00     0.032 A 
BRANCH  18  21
HETATM   21  N   UNL     1      39.605 -14.755  -0.179  1.00  0.00    -0.327 N 
HETATM   22  C   UNL     1      39.644 -14.369  -1.506  1.00  0.00     0.221 C 
HETATM   23  O   UNL     1      40.225 -13.391  -1.965  1.00  0.00    -0.273 OA
HETATM   24  H   UNL     1      39.113 -15.611   0.035  1.00  0.00     0.169 HD
BRANCH  22  25
HETATM   25  C   UNL     1      38.837 -15.279  -2.420  1.00  0.00     0.098 C 
HETATM   26  C   UNL     1      38.144 -14.543  -3.554  1.00  0.00     0.014 C 
ENDBRANCH  22  25
ENDBRANCH  18  21
ENDBRANCH  12  15
ENDBRANCH   1  11
BRANCH   8  27
HETATM   27  C   UNL     1      45.757  -9.309   8.781  1.00  0.00     0.409 C 
HETATM   28  F   UNL     1      46.846  -9.581   8.029  1.00  0.00    -0.169 F 
HETATM   29  F   UNL     1      45.217  -8.160   8.326  1.00  0.00    -0.169 F 
HETATM   30  F   UNL     1      46.208  -9.054  10.037  1.00  0.00    -0.169 F 
ENDBRANCH   8  27
BRANCH   6  31
HETATM   31  C   UNL     1      41.798  -9.685  11.089  1.00  0.00     0.075 A 
HETATM   32  O   UNL     1      40.507  -9.691  10.648  1.00  0.00    -0.325 OA
HETATM   33  C   UNL     1      39.726  -9.992  11.718  1.00  0.00     0.142 A 
HETATM   34  C   UNL     1      40.495 -10.174  12.843  1.00  0.00     0.027 A 
HETATM   35  C   UNL     1      41.836  -9.977  12.438  1.00  0.00     0.037 A 
ENDBRANCH   6  31
TORSDOF 6
ENDMDL
MODEL 2
REMARK VINA RESULT:      -8.5      4.341     10.607
REMARK  6 active torsions:
REMARK  status: ('A' for Active; 'I' for Inactive)
REMARK    1  A    between atoms: C_2  and  C_3 
REMARK       I    between atoms: C_3  and  N_4 
REMARK    2  A    between atoms: N_4  and  C_5 
REMARK    3  A    between atoms: C_8  and  N_9 
REMARK       I    between atoms: N_9  and  C_10 
REMARK    4  A    between atoms: C_10  and  C_11 
REMARK    5  A    between atoms: C_16  and  C_17 
REMARK    6  A    between atoms: C_23  and  C_24 
ROOT
HETATM    1  C   UNL     1      42.405 -12.365   4.137  1.00  0.00     0.148 C 
HETATM    2  N   UNL     1      41.208 -12.947   3.880  1.00  0.00    -0.165 NA
HETATM    3  N   UNL     1      41.535 -13.965   3.068  1.00  0.00    -0.240 N 
HETATM    4  C   UNL     1      42.877 -14.178   2.952  1.00  0.00     0.123 C 
HETATM    5  N   UNL     1      43.350 -15.276   2.333  1.00  0.00    -0.364 N 
HETATM    6  C   UNL     1      42.511 -16.445   2.033  1.00  0.00     0.143 C 
HETATM    7  C   UNL     1      41.077 -16.289   2.596  1.00  0.00     0.068 C 
HETATM    8  C   UNL     1      40.549 -14.855   2.493  1.00  0.00     0.221 C 
HETATM    9  C   UNL     1      43.474 -13.100   3.550  1.00  0.00     0.089 C 
HETATM   10  H   UNL     1      44.352 -15.429   2.221  1.00  0.00     0.162 HD
ENDROOT
BRANCH   1  11
HETATM   11  C   UNL     1      42.514 -11.155   4.972  1.00  0.00     0.276 C 
HETATM   12  N   UNL     1      42.695 -11.479   6.302  1.00  0.00    -0.322 N 
HETATM   13  H   UNL     1      42.769 -12.480   6.464  1.00  0.00     0.169 HD
HETATM   14  O   UNL     1      42.490 -10.031   4.485  1.00  0.00    -0.266 OA
BRANCH  12  15
HETATM   15  C   UNL     1      42.813 -10.619   7.402  1.00  0.00     0.035 A 
HETATM   16  C   UNL     1      41.849  -9.681   7.762  1.00  0.00     0.032 A 
HETATM   17  C   UNL     1      42.016  -8.892   8.909  1.00  0.00     0.032 A 
HETATM   18  C   UNL     1      43.159  -9.015   9.697  1.00  0.00     0.034 A 
HETATM   19  C   UNL     1      44.142  -9.934   9.315  1.00  0.00     0.032 A 
HETATM   20  C   UNL     1      43.962 -10.742   8.188  1.00  0.00     0.032 A 
BRANCH  18  21
HETATM   21  N   UNL     1      43.399  -8.271  10.870  1.00  0.00    -0.327 N 
HETATM   22  C   UNL     1      43.125  -8.645  12.172  1.00  0.00     0.221 C 
HETATM   23  O   UNL     1      42.597  -9.691  12.536  1.00  0.00    -0.273 OA
HETATM   24  H   UNL     1      43.875  -7.389  10.738  1.00  0.00     0.169 HD
BRANCH  22  25
HETATM   25  C   UNL     1      43.515  -7.589  13.196  1.00  0.00     0.098 C 
HETATM   26  C   UNL     1      42.593  -7.540  14.402  1.00  0.00     0.014 C 
ENDBRANCH  22  25
ENDBRANCH  18  21
ENDBRANCH  12  15
ENDBRANCH   1  11
BRANCH   8  27
HETATM   27  C   UNL     1      40.236 -14.442   1.073  1.00  0.00     0.409 C 
HETATM   28  F   UNL     1      41.313 -13.922   0.443  1.00  0.00    -0.169 F 
HETATM   29  F   UNL     1      39.754 -15.442   0.309  1.00  0.00    -0.169 F 
HETATM   30  F   UNL     1      39.287 -13.469   1.081  1.00  0.00    -0.169 F 
ENDBRANCH   8  27
BRANCH   6  31
HETATM   31  C   UNL     1      43.093 -17.720   2.566  1.00  0.00     0.075 A 
HETATM   32  O   UNL     1      43.805 -17.636   3.727  1.00  0.00    -0.325 OA
HETATM   33  C   UNL     1      44.262 -18.886   4.001  1.00  0.00     0.142 A 
HETATM   34  C   UNL     1      43.858 -19.773   3.030  1.00  0.00     0.027 A 
HETATM   35  C   UNL     1      43.101 -19.021   2.101  1.00  0.00     0.037 A 
ENDBRANCH   6  31
TORSDOF 6
ENDMDL
MODEL 3
REMARK VINA RESULT:      -8.2      5.616      8.322
REMARK  6 active torsions:
REMARK  status: ('A' for Active; 'I' for Inactive)
REMARK    1  A    between atoms: C_2  and  C_3 
REMARK       I    between atoms: C_3  and  N_4 
REMARK    2  A    between atoms: N_4  and  C_5 
REMARK    3  A    between atoms: C_8  and  N_9 
REMARK       I    between atoms: N_9  and  C_10 
REMARK    4  A    between atoms: C_10  and  C_11 
REMARK    5  A    between atoms: C_16  and  C_17 
REMARK    6  A    between atoms: C_23  and  C_24 
ROOT
HETATM    1  C   UNL     1      40.587 -13.748   0.664  1.00  0.00     0.148 C 
HETATM    2  N   UNL     1      41.671 -13.335   1.365  1.00  0.00    -0.165 NA
HETATM    3  N   UNL     1      41.804 -14.286   2.303  1.00  0.00    -0.240 N 
HETATM    4  C   UNL     1      40.994 -15.368   2.119  1.00  0.00     0.123 C 
HETATM    5  N   UNL     1      41.151 -16.481   2.861  1.00  0.00    -0.364 N 
HETATM    6  C   UNL     1      42.354 -16.740   3.666  1.00  0.00     0.143 C 
HETATM    7  C   UNL     1      43.427 -15.640   3.472  1.00  0.00     0.068 C 
HETATM    8  C   UNL     1      42.826 -14.239   3.328  1.00  0.00     0.221 C 
HETATM    9  C   UNL     1      40.122 -15.012   1.125  1.00  0.00     0.089 C 
HETATM   10  H   UNL     1      40.534 -17.284   2.746  1.00  0.00     0.162 HD
ENDROOT
BRANCH   1  11
HETATM   11  C   UNL     1      40.047 -12.960  -0.459  1.00  0.00     0.276 C 
HETATM   12  N   UNL     1      38.666 -12.954  -0.448  1.00  0.00    -0.322 N 
HETATM   13  H   UNL     1      38.270 -13.445   0.349  1.00  0.00     0.169 HD
HETATM   14  O   UNL     1      40.779 -12.368  -1.243  1.00  0.00    -0.266 OA
BRANCH  12  15
HETATM   15  C   UNL     1      37.787 -12.347  -1.356  1.00  0.00     0.035 A 
HETATM   16  C   UNL     1      37.402 -11.011  -1.289  1.00  0.00     0.032 A 
HETATM   17  C   UNL     1      36.559 -10.463  -2.267  1.00  0.00     0.032 A 
HETATM   18  C   UNL     1      36.075 -11.250  -3.310  1.00  0.00     0.034 A 
HETATM   19  C   UNL     1      36.437 -12.600  -3.358  1.00  0.00     0.032 A 
HETATM   20  C   UNL     1      37.301 -13.140  -2.399  1.00  0.00     0.032 A 
BRANCH  18  21
HETATM   21  N   UNL     1      35.235 -10.776  -4.339  1.00  0.00    -0.327 N 
HETATM   22  C   UNL     1      33.925 -11.141  -4.589  1.00  0.00     0.221 C 
HETATM   23  O   UNL     1      33.266 -11.968  -3.967  1.00  0.00    -0.273 OA
HETATM   24  H   UNL     1      35.627 -10.049  -4.922  1.00  0.00     0.169 HD
BRANCH  22  25
HETATM   25  C   UNL     1      33.321 -10.429  -5.790  1.00  0.00     0.098 C 
HETATM   26  C   UNL     1      33.634 -11.099  -7.117  1.00  0.00     0.014 C 
ENDBRANCH  22  25
ENDBRANCH  18  21
ENDBRANCH  12  15
ENDBRANCH   1  11
BRANCH   8  27
HETATM   27  C   UNL     1      42.247 -13.708   4.620  1.00  0.00     0.409 C 
HETATM   28  F   UNL     1      42.434 -12.377   4.755  1.00  0.00    -0.169 F 
HETATM   29  F   UNL     1      40.930 -13.958   4.769  1.00  0.00    -0.169 F 
HETATM   30  F   UNL     1      42.874 -14.295   5.674  1.00  0.00    -0.169 F 
ENDBRANCH   8  27
BRANCH   6  31
HETATM   31  C   UNL     1      42.977 -18.068   3.354  1.00  0.00     0.075 A 
HETATM   32  O   UNL     1      43.691 -18.665   4.352  1.00  0.00    -0.325 OA
HETATM   33  C   UNL     1      44.186 -19.824   3.844  1.00  0.00     0.142 A 
HETATM   34  C   UNL     1      43.806 -19.978   2.531  1.00  0.00     0.027 A 
HETATM   35  C   UNL     1      43.023 -18.844   2.213  1.00  0.00     0.037 A 
ENDBRANCH   6  31
TORSDOF 6
ENDMDL
MODEL 4
REMARK VINA RESULT:      -8.0      3.755      5.133
REMARK  6 active torsions:
REMARK  status: ('A' for Active; 'I' for Inactive)
REMARK    1  A    between atoms: C_2  and  C_3 
REMARK       I    between atoms: C_3  and  N_4 
REMARK    2  A    between atoms: N_4  and  C_5 
REMARK    3  A    between atoms: C_8  and  N_9 
REMARK       I    between atoms: N_9  and  C_10 
REMARK    4  A    between atoms: C_10  and  C_11 
REMARK    5  A    between atoms: C_16  and  C_17 
REMARK    6  A    between atoms: C_23  and  C_24 
ROOT
HETATM    1  C   UNL     1      43.865  -9.793   8.821  1.00  0.00     0.148 C 
HETATM    2  N   UNL     1      42.990  -9.916   9.849  1.00  0.00    -0.165 NA
HETATM    3  N   UNL     1      42.886  -8.659  10.308  1.00  0.00    -0.240 N 
HETATM    4  C   UNL     1      43.486  -7.724   9.517  1.00  0.00     0.123 C 
HETATM    5  N   UNL     1      43.301  -6.409   9.742  1.00  0.00    -0.364 N 
HETATM    6  C   UNL     1      42.231  -5.891  10.607  1.00  0.00     0.143 C 
HETATM    7  C   UNL     1      41.311  -7.022  11.130  1.00  0.00     0.068 C 
HETATM    8  C   UNL     1      42.075  -8.310  11.456  1.00  0.00     0.221 C 
HETATM    9  C   UNL     1      44.215  -8.431   8.599  1.00  0.00     0.089 C 
HETATM   10  H   UNL     1      43.767  -5.705   9.170  1.00  0.00     0.162 HD
ENDROOT
BRANCH   1  11
HETATM   11  C   UNL     1      44.311 -10.962   8.041  1.00  0.00     0.276 C 
HETATM   12  N   UNL     1      43.251 -11.566   7.393  1.00  0.00    -0.322 N 
HETATM   13  H   UNL     1      42.370 -11.078   7.526  1.00  0.00     0.169 HD
HETATM   14  O   UNL     1      45.493 -11.280   7.973  1.00  0.00    -0.266 OA
BRANCH  12  15
HETATM   15  C   UNL     1      43.260 -12.710   6.583  1.00  0.00     0.035 A 
HETATM   16  C   UNL     1      43.425 -14.004   7.069  1.00  0.00     0.032 A 
HETATM   17  C   UNL     1      43.369 -15.104   6.200  1.00  0.00     0.032 A 
HETATM   18  C   UNL     1      43.171 -14.921   4.833  1.00  0.00     0.034 A 
HETATM   19  C   UNL     1      43.038 -13.618   4.343  1.00  0.00     0.032 A 
HETATM   20  C   UNL     1      43.064 -12.522   5.212  1.00  0.00     0.032 A 
BRANCH  18  21
HETATM   21  N   UNL     1      43.089 -15.969   3.894  1.00  0.00    -0.327 N 
HETATM   22  C   UNL     1      41.946 -16.512   3.338  1.00  0.00     0.221 C 
HETATM   23  O   UNL     1      40.789 -16.187   3.586  1.00  0.00    -0.273 OA
HETATM   24  H   UNL     1      43.974 -16.322   3.556  1.00  0.00     0.169 HD
BRANCH  22  25
HETATM   25  C   UNL     1      42.231 -17.639   2.357  1.00  0.00     0.098 C 
HETATM   26  C   UNL     1      43.592 -18.284   2.549  1.00  0.00     0.014 C 
ENDBRANCH  22  25
ENDBRANCH  18  21
ENDBRANCH  12  15
ENDBRANCH   1  11
BRANCH   8  27
HETATM   27  C   UNL     1      42.939  -8.187  12.690  1.00  0.00     0.409 C 
HETATM   28  F   UNL     1      44.257  -8.233  12.396  1.00  0.00    -0.169 F 
HETATM   29  F   UNL     1      42.713  -7.066  13.403  1.00  0.00    -0.169 F 
HETATM   30  F   UNL     1      42.693  -9.232  13.523  1.00  0.00    -0.169 F 
ENDBRANCH   8  27
BRANCH   6  31
HETATM   31  C   UNL     1      41.379  -4.870   9.915  1.00  0.00     0.075 A 
HETATM   32  O   UNL     1      41.978  -3.693   9.575  1.00  0.00    -0.325 OA
HETATM   33  C   UNL     1      41.024  -2.915   8.999  1.00  0.00     0.142 A 
HETATM   34  C   UNL     1      39.817  -3.574   8.969  1.00  0.00     0.027 A 
HETATM   35  C   UNL     1      40.044  -4.839   9.560  1.00  0.00     0.037 A 
ENDBRANCH   6  31
TORSDOF 6
ENDMDL
MODEL 5
REMARK VINA RESULT:      -7.9      4.016     10.738
REMARK  6 active torsions:
REMARK  status: ('A' for Active; 'I' for Inactive)
REMARK    1  A    between atoms: C_2  and  C_3 
REMARK       I    between atoms: C_3  and  N_4 
REMARK    2  A    between atoms: N_4  and  C_5 
REMARK    3  A    between atoms: C_8  and  N_9 
REMARK       I    between atoms: N_9  and  C_10 
REMARK    4  A    between atoms: C_10  and  C_11 
REMARK    5  A    between atoms: C_16  and  C_17 
REMARK    6  A    between atoms: C_23  and  C_24 
ROOT
HETATM    1  C   UNL     1      43.138 -11.345   6.322  1.00  0.00     0.148 C 
HETATM    2  N   UNL     1      41.849 -11.757   6.259  1.00  0.00    -0.165 NA
HETATM    3  N   UNL     1      41.807 -12.440   5.104  1.00  0.00    -0.240 N 
HETATM    4  C   UNL     1      43.028 -12.646   4.533  1.00  0.00     0.123 C 
HETATM    5  N   UNL     1      43.166 -13.476   3.481  1.00  0.00    -0.364 N 
HETATM    6  C   UNL     1      42.126 -14.437   3.082  1.00  0.00     0.143 C 
HETATM    7  C   UNL     1      40.929 -14.435   4.064  1.00  0.00     0.068 C 
HETATM    8  C   UNL     1      40.591 -13.038   4.592  1.00  0.00     0.221 C 
HETATM    9  C   UNL     1      43.903 -11.867   5.241  1.00  0.00     0.089 C 
HETATM   10  H   UNL     1      44.071 -13.616   3.034  1.00  0.00     0.162 HD
ENDROOT
BRANCH   1  11
HETATM   11  C   UNL     1      43.629 -10.506   7.431  1.00  0.00     0.276 C 
HETATM   12  N   UNL     1      42.722 -10.470   8.472  1.00  0.00    -0.322 N 
HETATM   13  H   UNL     1      41.909 -11.059   8.315  1.00  0.00     0.169 HD
HETATM   14  O   UNL     1      44.733  -9.973   7.398  1.00  0.00    -0.266 OA
BRANCH  12  15
HETATM   15  C   UNL     1      42.808  -9.767   9.682  1.00  0.00     0.035 A 
HETATM   16  C   UNL     1      43.914  -9.806  10.525  1.00  0.00     0.032 A 
HETATM   17  C   UNL     1      43.946  -9.032  11.695  1.00  0.00     0.032 A 
HETATM   18  C   UNL     1      42.861  -8.229  12.045  1.00  0.00     0.034 A 
HETATM   19  C   UNL     1      41.738  -8.218  11.213  1.00  0.00     0.032 A 
HETATM   20  C   UNL     1      41.717  -8.966  10.032  1.00  0.00     0.032 A 
BRANCH  18  21
HETATM   21  N   UNL     1      42.816  -7.413  13.194  1.00  0.00    -0.327 N 
HETATM   22  C   UNL     1      42.375  -7.764  14.457  1.00  0.00     0.221 C 
HETATM   23  O   UNL     1      41.920  -8.851  14.795  1.00  0.00    -0.273 OA
HETATM   24  H   UNL     1      43.201  -6.484  13.085  1.00  0.00     0.169 HD
BRANCH  22  25
HETATM   25  C   UNL     1      42.465  -6.626  15.463  1.00  0.00     0.098 C 
HETATM   26  C   UNL     1      41.918  -6.980  16.834  1.00  0.00     0.014 C 
ENDBRANCH  22  25
ENDBRANCH  18  21
ENDBRANCH  12  15
ENDBRANCH   1  11
BRANCH   8  27
HETATM   27  C   UNL     1      39.971 -12.144   3.542  1.00  0.00     0.409 C 
HETATM   28  F   UNL     1      40.877 -11.317   2.975  1.00  0.00    -0.169 F 
HETATM   29  F   UNL     1      39.350 -12.818   2.552  1.00  0.00    -0.169 F 
HETATM   30  F   UNL     1      39.031 -11.350   4.118  1.00  0.00    -0.169 F 
ENDBRANCH   8  27
BRANCH   6  31
HETATM   31  C   UNL     1      42.651 -15.838   2.977  1.00  0.00     0.075 A 
HETATM   32  O   UNL     1      43.032 -16.443   4.139  1.00  0.00    -0.325 OA
HETATM   33  C   UNL     1      43.501 -17.675   3.806  1.00  0.00     0.142 A 
HETATM   34  C   UNL     1      43.432 -17.868   2.446  1.00  0.00     0.027 A 
HETATM   35  C   UNL     1      42.882 -16.681   1.908  1.00  0.00     0.037 A 
ENDBRANCH   6  31
TORSDOF 6
ENDMDL
MODEL 6
REMARK VINA RESULT:      -7.9      6.440     10.278
REMARK  6 active torsions:
REMARK  status: ('A' for Active; 'I' for Inactive)
REMARK    1  A    between atoms: C_2  and  C_3 
REMARK       I    between atoms: C_3  and  N_4 
REMARK    2  A    between atoms: N_4  and  C_5 
REMARK    3  A    between atoms: C_8  and  N_9 
REMARK       I    between atoms: N_9  and  C_10 
REMARK    4  A    between atoms: C_10  and  C_11 
REMARK    5  A    between atoms: C_16  and  C_17 
REMARK    6  A    between atoms: C_23  and  C_24 
ROOT
HETATM    1  C   UNL     1      41.863  -7.197  14.859  1.00  0.00     0.148 C 
HETATM    2  N   UNL     1      42.229  -6.188  15.686  1.00  0.00    -0.165 NA
HETATM    3  N   UNL     1      41.683  -6.545  16.859  1.00  0.00    -0.240 N 
HETATM    4  C   UNL     1      41.161  -7.805  16.871  1.00  0.00     0.123 C 
HETATM    5  N   UNL     1      40.757  -8.373  18.023  1.00  0.00    -0.364 N 
HETATM    6  C   UNL     1      41.125  -7.844  19.345  1.00  0.00     0.143 C 
HETATM    7  C   UNL     1      42.093  -6.640  19.237  1.00  0.00     0.068 C 
HETATM    8  C   UNL     1      41.779  -5.726  18.049  1.00  0.00     0.221 C 
HETATM    9  C   UNL     1      41.170  -8.221  15.566  1.00  0.00     0.089 C 
HETATM   10  H   UNL     1      40.344  -9.305  18.036  1.00  0.00     0.162 HD
ENDROOT
BRANCH   1  11
HETATM   11  C   UNL     1      42.220  -7.194  13.429  1.00  0.00     0.276 C 
HETATM   12  N   UNL     1      42.435  -8.475  12.963  1.00  0.00    -0.322 N 
HETATM   13  H   UNL     1      42.266  -9.191  13.665  1.00  0.00     0.169 HD
HETATM   14  O   UNL     1      42.256  -6.157  12.775  1.00  0.00    -0.266 OA
BRANCH  12  15
HETATM   15  C   UNL     1      42.817  -8.886  11.678  1.00  0.00     0.035 A 
HETATM   16  C   UNL     1      41.940  -8.982  10.601  1.00  0.00     0.032 A 
HETATM   17  C   UNL     1      42.409  -9.350   9.331  1.00  0.00     0.032 A 
HETATM   18  C   UNL     1      43.756  -9.647   9.129  1.00  0.00     0.034 A 
HETATM   19  C   UNL     1      44.629  -9.581  10.220  1.00  0.00     0.032 A 
HETATM   20  C   UNL     1      44.168  -9.186  11.479  1.00  0.00     0.032 A 
BRANCH  18  21
HETATM   21  N   UNL     1      44.311 -10.012   7.886  1.00  0.00    -0.327 N 
HETATM   22  C   UNL     1      44.415 -11.284   7.354  1.00  0.00     0.221 C 
HETATM   23  O   UNL     1      44.060 -12.330   7.888  1.00  0.00    -0.273 OA
HETATM   24  H   UNL     1      44.615  -9.246   7.302  1.00  0.00     0.169 HD
BRANCH  22  25
HETATM   25  C   UNL     1      45.075 -11.310   5.983  1.00  0.00     0.098 C 
HETATM   26  C   UNL     1      44.104 -11.569   4.844  1.00  0.00     0.014 C 
ENDBRANCH  22  25
ENDBRANCH  18  21
ENDBRANCH  12  15
ENDBRANCH   1  11
BRANCH   8  27
HETATM   27  C   UNL     1      40.509  -4.927  18.238  1.00  0.00     0.409 C 
HETATM   28  F   UNL     1      39.456  -5.484  17.601  1.00  0.00    -0.169 F 
HETATM   29  F   UNL     1      40.165  -4.751  19.530  1.00  0.00    -0.169 F 
HETATM   30  F   UNL     1      40.669  -3.686  17.707  1.00  0.00    -0.169 F 
ENDBRANCH   8  27
BRANCH   6  31
HETATM   31  C   UNL     1      41.757  -8.883  20.222  1.00  0.00     0.075 A 
HETATM   32  O   UNL     1      43.053  -8.674  20.592  1.00  0.00    -0.325 OA
HETATM   33  C   UNL     1      43.426  -9.742  21.344  1.00  0.00     0.142 A 
HETATM   34  C   UNL     1      42.390 -10.639  21.458  1.00  0.00     0.027 A 
HETATM   35  C   UNL     1      41.309 -10.085  20.734  1.00  0.00     0.037 A 
ENDBRANCH   6  31
TORSDOF 6
ENDMDL
MODEL 7
REMARK VINA RESULT:      -7.8      8.007     10.948
REMARK  6 active torsions:
REMARK  status: ('A' for Active; 'I' for Inactive)
REMARK    1  A    between atoms: C_2  and  C_3 
REMARK       I    between atoms: C_3  and  N_4 
REMARK    2  A    between atoms: N_4  and  C_5 
REMARK    3  A    between atoms: C_8  and  N_9 
REMARK       I    between atoms: N_9  and  C_10 
REMARK    4  A    between atoms: C_10  and  C_11 
REMARK    5  A    between atoms: C_16  and  C_17 
REMARK    6  A    between atoms: C_23  and  C_24 
ROOT
HETATM    1  C   UNL     1      39.959 -12.897  -0.679  1.00  0.00     0.148 C 
HETATM    2  N   UNL     1      39.201 -12.755  -1.793  1.00  0.00    -0.165 NA
HETATM    3  N   UNL     1      39.187 -11.425  -1.981  1.00  0.00    -0.240 N 
HETATM    4  C   UNL     1      40.044 -10.738  -1.172  1.00  0.00     0.123 C 
HETATM    5  N   UNL     1      40.283  -9.429  -1.376  1.00  0.00    -0.364 N 
HETATM    6  C   UNL     1      39.919  -8.736  -2.621  1.00  0.00     0.143 C 
HETATM    7  C   UNL     1      39.329  -9.708  -3.673  1.00  0.00     0.068 C 
HETATM    8  C   UNL     1      38.446 -10.794  -3.053  1.00  0.00     0.221 C 
HETATM    9  C   UNL     1      40.487 -11.646  -0.248  1.00  0.00     0.089 C 
HETATM   10  H   UNL     1      40.903  -8.904  -0.760  1.00  0.00     0.162 HD
ENDROOT
BRANCH   1  11
HETATM   11  C   UNL     1      40.207 -14.219  -0.075  1.00  0.00     0.276 C 
HETATM   12  N   UNL     1      41.200 -14.154   0.882  1.00  0.00    -0.322 N 
HETATM   13  H   UNL     1      41.547 -13.211   1.036  1.00  0.00     0.169 HD
HETATM   14  O   UNL     1      39.551 -15.205  -0.389  1.00  0.00    -0.266 OA
BRANCH  12  15
HETATM   15  C   UNL     1      41.739 -15.193   1.654  1.00  0.00     0.035 A 
HETATM   16  C   UNL     1      41.109 -15.741   2.768  1.00  0.00     0.032 A 
HETATM   17  C   UNL     1      41.689 -16.815   3.457  1.00  0.00     0.032 A 
HETATM   18  C   UNL     1      42.916 -17.339   3.055  1.00  0.00     0.034 A 
HETATM   19  C   UNL     1      43.563 -16.766   1.956  1.00  0.00     0.032 A 
HETATM   20  C   UNL     1      42.972 -15.714   1.250  1.00  0.00     0.032 A 
BRANCH  18  21
HETATM   21  N   UNL     1      43.561 -18.424   3.684  1.00  0.00    -0.327 N 
HETATM   22  C   UNL     1      43.660 -19.724   3.222  1.00  0.00     0.221 C 
HETATM   23  O   UNL     1      43.178 -20.169   2.186  1.00  0.00    -0.273 OA
HETATM   24  H   UNL     1      44.049 -18.205   4.541  1.00  0.00     0.169 HD
BRANCH  22  25
HETATM   25  C   UNL     1      44.429 -20.639   4.164  1.00  0.00     0.098 C 
HETATM   26  C   UNL     1      43.951 -20.573   5.603  1.00  0.00     0.014 C 
ENDBRANCH  22  25
ENDBRANCH  18  21
ENDBRANCH  12  15
ENDBRANCH   1  11
BRANCH   8  27
HETATM   27  C   UNL     1      37.129 -10.260  -2.535  1.00  0.00     0.409 C 
HETATM   28  F   UNL     1      36.106 -11.110  -2.771  1.00  0.00    -0.169 F 
HETATM   29  F   UNL     1      37.137  -9.979  -1.217  1.00  0.00    -0.169 F 
HETATM   30  F   UNL     1      36.825  -9.101  -3.177  1.00  0.00    -0.169 F 
ENDBRANCH   8  27
BRANCH   6  31
HETATM   31  C   UNL     1      41.081  -8.018  -3.238  1.00  0.00     0.075 A 
HETATM   32  O   UNL     1      40.929  -7.586  -4.523  1.00  0.00    -0.325 OA
HETATM   33  C   UNL     1      42.102  -7.003  -4.885  1.00  0.00     0.142 A 
HETATM   34  C   UNL     1      43.009  -7.058  -3.852  1.00  0.00     0.027 A 
HETATM   35  C   UNL     1      42.351  -7.714  -2.786  1.00  0.00     0.037 A 
ENDBRANCH   6  31
TORSDOF 6
ENDMDL
MODEL 8
REMARK VINA RESULT:      -7.7     19.355     22.319
REMARK  6 active torsions:
REMARK  status: ('A' for Active; 'I' for Inactive)
REMARK    1  A    between atoms: C_2  and  C_3 
REMARK       I    between atoms: C_3  and  N_4 
REMARK    2  A    between atoms: N_4  and  C_5 
REMARK    3  A    between atoms: C_8  and  N_9 
REMARK       I    between atoms: N_9  and  C_10 
REMARK    4  A    between atoms: C_10  and  C_11 
REMARK    5  A    between atoms: C_16  and  C_17 
REMARK    6  A    between atoms: C_23  and  C_24 
ROOT
HETATM    1  C   UNL     1      43.392 -30.301   0.454  1.00  0.00     0.148 C 
HETATM    2  N   UNL     1      43.849 -29.105   0.011  1.00  0.00    -0.165 NA
HETATM    3  N   UNL     1      44.677 -29.450  -0.988  1.00  0.00    -0.240 N 
HETATM    4  C   UNL     1      44.622 -30.770  -1.328  1.00  0.00     0.123 C 
HETATM    5  N   UNL     1      45.246 -31.225  -2.432  1.00  0.00    -0.364 N 
HETATM    6  C   UNL     1      45.738 -30.333  -3.493  1.00  0.00     0.143 C 
HETATM    7  C   UNL     1      45.367 -28.854  -3.225  1.00  0.00     0.068 C 
HETATM    8  C   UNL     1      45.442 -28.479  -1.742  1.00  0.00     0.221 C 
HETATM    9  C   UNL     1      43.876 -31.372  -0.350  1.00  0.00     0.089 C 
HETATM   10  H   UNL     1      45.229 -32.214  -2.678  1.00  0.00     0.162 HD
ENDROOT
BRANCH   1  11
HETATM   11  C   UNL     1      42.468 -30.400   1.599  1.00  0.00     0.276 C 
HETATM   12  N   UNL     1      42.097 -31.710   1.832  1.00  0.00    -0.322 N 
HETATM   13  H   UNL     1      42.558 -32.373   1.214  1.00  0.00     0.169 HD
HETATM   14  O   UNL     1      42.143 -29.416   2.253  1.00  0.00    -0.266 OA
BRANCH  12  15
HETATM   15  C   UNL     1      41.218 -32.210   2.803  1.00  0.00     0.035 A 
HETATM   16  C   UNL     1      39.838 -32.278   2.639  1.00  0.00     0.032 A 
HETATM   17  C   UNL     1      39.029 -32.841   3.638  1.00  0.00     0.032 A 
HETATM   18  C   UNL     1      39.590 -33.321   4.820  1.00  0.00     0.034 A 
HETATM   19  C   UNL     1      40.973 -33.222   4.996  1.00  0.00     0.032 A 
HETATM   20  C   UNL     1      41.784 -32.687   3.989  1.00  0.00     0.032 A 
BRANCH  18  21
HETATM   21  N   UNL     1      38.852 -33.911   5.867  1.00  0.00    -0.327 N 
HETATM   22  C   UNL     1      38.378 -33.296   7.011  1.00  0.00     0.221 C 
HETATM   23  O   UNL     1      38.539 -32.123   7.329  1.00  0.00    -0.273 OA
HETATM   24  H   UNL     1      38.600 -34.881   5.730  1.00  0.00     0.169 HD
BRANCH  22  25
HETATM   25  C   UNL     1      37.620 -34.241   7.931  1.00  0.00     0.098 C 
HETATM   26  C   UNL     1      36.309 -34.740   7.347  1.00  0.00     0.014 C 
ENDBRANCH  22  25
ENDBRANCH  18  21
ENDBRANCH  12  15
ENDBRANCH   1  11
BRANCH   8  27
HETATM   27  C   UNL     1      46.860 -28.412  -1.221  1.00  0.00     0.409 C 
HETATM   28  F   UNL     1      47.021 -27.435  -0.302  1.00  0.00    -0.169 F 
HETATM   29  F   UNL     1      47.295 -29.567  -0.677  1.00  0.00    -0.169 F 
HETATM   30  F   UNL     1      47.707 -28.123  -2.244  1.00  0.00    -0.169 F 
ENDBRANCH   8  27
BRANCH   6  31
HETATM   31  C   UNL     1      45.219 -30.714  -4.847  1.00  0.00     0.075 A 
HETATM   32  O   UNL     1      46.041 -31.465  -5.635  1.00  0.00    -0.325 OA
HETATM   33  C   UNL     1      45.391 -31.659  -6.812  1.00  0.00     0.142 A 
HETATM   34  C   UNL     1      44.163 -31.038  -6.795  1.00  0.00     0.027 A 
HETATM   35  C   UNL     1      44.050 -30.427  -5.524  1.00  0.00     0.037 A 
ENDBRANCH   6  31
TORSDOF 6
ENDMDL
MODEL 9
REMARK VINA RESULT:      -7.7     19.171     21.469
REMARK  6 active torsions:
REMARK  status: ('A' for Active; 'I' for Inactive)
REMARK    1  A    between atoms: C_2  and  C_3 
REMARK       I    between atoms: C_3  and  N_4 
REMARK    2  A    between atoms: N_4  and  C_5 
REMARK    3  A    between atoms: C_8  and  N_9 
REMARK       I    between atoms: N_9  and  C_10 
REMARK    4  A    between atoms: C_10  and  C_11 
REMARK    5  A    between atoms: C_16  and  C_17 
REMARK    6  A    between atoms: C_23  and  C_24 
ROOT
HETATM    1  C   UNL     1      43.670 -29.985   1.364  1.00  0.00     0.148 C 
HETATM    2  N   UNL     1      44.024 -30.120   0.063  1.00  0.00    -0.165 NA
HETATM    3  N   UNL     1      45.274 -29.631   0.038  1.00  0.00    -0.240 N 
HETATM    4  C   UNL     1      45.799 -29.376   1.271  1.00  0.00     0.123 C 
HETATM    5  N   UNL     1      47.102 -29.069   1.416  1.00  0.00    -0.364 N 
HETATM    6  C   UNL     1      48.096 -29.292   0.355  1.00  0.00     0.143 C 
HETATM    7  C   UNL     1      47.479 -29.997  -0.878  1.00  0.00     0.068 C 
HETATM    8  C   UNL     1      46.051 -29.531  -1.180  1.00  0.00     0.221 C 
HETATM    9  C   UNL     1      44.755 -29.499   2.148  1.00  0.00     0.089 C 
HETATM   10  H   UNL     1      47.495 -28.854   2.331  1.00  0.00     0.162 HD
ENDROOT
BRANCH   1  11
HETATM   11  C   UNL     1      42.330 -30.366   1.845  1.00  0.00     0.276 C 
HETATM   12  N   UNL     1      42.397 -31.416   2.739  1.00  0.00    -0.322 N 
HETATM   13  H   UNL     1      43.350 -31.707   2.944  1.00  0.00     0.169 HD
HETATM   14  O   UNL     1      41.323 -29.759   1.497  1.00  0.00    -0.266 OA
BRANCH  12  15
HETATM   15  C   UNL     1      41.348 -32.078   3.391  1.00  0.00     0.035 A 
HETATM   16  C   UNL     1      40.770 -33.259   2.932  1.00  0.00     0.032 A 
HETATM   17  C   UNL     1      39.758 -33.890   3.669  1.00  0.00     0.032 A 
HETATM   18  C   UNL     1      39.295 -33.336   4.862  1.00  0.00     0.034 A 
HETATM   19  C   UNL     1      39.854 -32.132   5.304  1.00  0.00     0.032 A 
HETATM   20  C   UNL     1      40.884 -31.518   4.585  1.00  0.00     0.032 A 
BRANCH  18  21
HETATM   21  N   UNL     1      38.292 -33.911   5.668  1.00  0.00    -0.327 N 
HETATM   22  C   UNL     1      36.934 -33.656   5.627  1.00  0.00     0.221 C 
HETATM   23  O   UNL     1      36.362 -32.859   4.890  1.00  0.00    -0.273 OA
HETATM   24  H   UNL     1      38.604 -34.627   6.309  1.00  0.00     0.169 HD
BRANCH  22  25
HETATM   25  C   UNL     1      36.141 -34.457   6.649  1.00  0.00     0.098 C 
HETATM   26  C   UNL     1      36.818 -34.554   8.005  1.00  0.00     0.014 C 
ENDBRANCH  22  25
ENDBRANCH  18  21
ENDBRANCH  12  15
ENDBRANCH   1  11
BRANCH   8  27
HETATM   27  C   UNL     1      45.993 -28.122  -1.724  1.00  0.00     0.409 C 
HETATM   28  F   UNL     1      45.065 -27.369  -1.094  1.00  0.00    -0.169 F 
HETATM   29  F   UNL     1      47.169 -27.465  -1.661  1.00  0.00    -0.169 F 
HETATM   30  F   UNL     1      45.638 -28.155  -3.035  1.00  0.00    -0.169 F 
ENDBRANCH   8  27
BRANCH   6  31
HETATM   31  C   UNL     1      49.266 -30.102   0.828  1.00  0.00     0.075 A 
HETATM   32  O   UNL     1      50.179 -30.476  -0.114  1.00  0.00    -0.325 OA
HETATM   33  C   UNL     1      51.121 -31.220   0.523  1.00  0.00     0.142 A 
HETATM   34  C   UNL     1      50.823 -31.335   1.860  1.00  0.00     0.027 A 
HETATM   35  C   UNL     1      49.624 -30.612   2.060  1.00  0.00     0.037 A 
ENDBRANCH   6  31
TORSDOF 6
ENDMDL
MODEL 10
REMARK VINA RESULT:      -7.6      4.388     10.389
REMARK  6 active torsions:
REMARK  status: ('A' for Active; 'I' for Inactive)
REMARK    1  A    between atoms: C_2  and  C_3 
REMARK       I    between atoms: C_3  and  N_4 
REMARK    2  A    between atoms: N_4  and  C_5 
REMARK    3  A    between atoms: C_8  and  N_9 
REMARK       I    between atoms: N_9  and  C_10 
REMARK    4  A    between atoms: C_10  and  C_11 
REMARK    5  A    between atoms: C_16  and  C_17 
REMARK    6  A    between atoms: C_23  and  C_24 
ROOT
HETATM    1  C   UNL     1      42.648 -12.310   5.891  1.00  0.00     0.148 C 
HETATM    2  N   UNL     1      41.419 -12.866   5.764  1.00  0.00    -0.165 NA
HETATM    3  N   UNL     1      41.565 -13.684   4.710  1.00  0.00    -0.240 N 
HETATM    4  C   UNL     1      42.854 -13.825   4.287  1.00  0.00     0.123 C 
HETATM    5  N   UNL     1      43.182 -14.757   3.372  1.00  0.00    -0.364 N 
HETATM    6  C   UNL     1      42.289 -15.867   3.009  1.00  0.00     0.143 C 
HETATM    7  C   UNL     1      40.999 -15.876   3.868  1.00  0.00     0.068 C 
HETATM    8  C   UNL     1      40.475 -14.470   4.172  1.00  0.00     0.221 C 
HETATM    9  C   UNL     1      43.570 -12.873   4.964  1.00  0.00     0.089 C 
HETATM   10  H   UNL     1      44.139 -14.851   3.033  1.00  0.00     0.162 HD
ENDROOT
BRANCH   1  11
HETATM   11  C   UNL     1      42.936 -11.294   6.920  1.00  0.00     0.276 C 
HETATM   12  N   UNL     1      41.878 -10.418   7.069  1.00  0.00    -0.322 N 
HETATM   13  H   UNL     1      41.079 -10.653   6.487  1.00  0.00     0.169 HD
HETATM   14  O   UNL     1      43.979 -11.304   7.563  1.00  0.00    -0.266 OA
BRANCH  12  15
HETATM   15  C   UNL     1      41.776  -9.308   7.918  1.00  0.00     0.035 A 
HETATM   16  C   UNL     1      40.797  -9.166   8.898  1.00  0.00     0.032 A 
HETATM   17  C   UNL     1      40.793  -8.048   9.744  1.00  0.00     0.032 A 
HETATM   18  C   UNL     1      41.754  -7.048   9.606  1.00  0.00     0.034 A 
HETATM   19  C   UNL     1      42.717  -7.177   8.601  1.00  0.00     0.032 A 
HETATM   20  C   UNL     1      42.740  -8.305   7.775  1.00  0.00     0.032 A 
BRANCH  18  21
HETATM   21  N   UNL     1      41.829  -5.900  10.422  1.00  0.00    -0.327 N 
HETATM   22  C   UNL     1      42.236  -5.834  11.742  1.00  0.00     0.221 C 
HETATM   23  O   UNL     1      42.584  -6.775  12.447  1.00  0.00    -0.273 OA
HETATM   24  H   UNL     1      41.609  -5.026   9.966  1.00  0.00     0.169 HD
BRANCH  22  25
HETATM   25  C   UNL     1      42.190  -4.425  12.314  1.00  0.00     0.098 C 
HETATM   26  C   UNL     1      42.870  -3.388  11.438  1.00  0.00     0.014 C 
ENDBRANCH  22  25
ENDBRANCH  18  21
ENDBRANCH  12  15
ENDBRANCH   1  11
BRANCH   8  27
HETATM   27  C   UNL     1      39.886 -13.785   2.959  1.00  0.00     0.409 C 
HETATM   28  F   UNL     1      39.491 -14.667   2.015  1.00  0.00    -0.169 F 
HETATM   29  F   UNL     1      38.837 -12.985   3.242  1.00  0.00    -0.169 F 
HETATM   30  F   UNL     1      40.829 -12.996   2.380  1.00  0.00    -0.169 F 
ENDBRANCH   8  27
BRANCH   6  31
HETATM   31  C   UNL     1      42.954 -17.204   3.140  1.00  0.00     0.075 A 
HETATM   32  O   UNL     1      43.680 -17.425   4.274  1.00  0.00    -0.325 OA
HETATM   33  C   UNL     1      44.215 -18.669   4.164  1.00  0.00     0.142 A 
HETATM   34  C   UNL     1      43.848 -19.250   2.973  1.00  0.00     0.027 A 
HETATM   35  C   UNL     1      43.033 -18.304   2.309  1.00  0.00     0.037 A 
ENDBRANCH   6  31
TORSDOF 6
ENDMDL
