MODEL 1
REMARK VINA RESULT:      -9.3      0.000      0.000
REMARK  7 active torsions:
REMARK  status: ('A' for Active; 'I' for Inactive)
REMARK    1  A    between atoms: C_2  and  C_3 
REMARK    2  A    between atoms: C_6  and  C_7 
REMARK    3  A    between atoms: N_8  and  C_9 
REMARK    4  A    between atoms: C_14  and  S_15 
REMARK    5  A    between atoms: S_15  and  C_16 
REMARK    6  A    between atoms: C_16  and  C_17 
REMARK       I    between atoms: C_17  and  N_18 
REMARK    7  A    between atoms: N_18  and  C_19 
ROOT
HETATM    1  C   UNL     1      43.549 -10.183   9.339  1.00  0.00     0.164 C 
HETATM    2  N   UNL     1      43.206  -9.772   8.059  1.00  0.00    -0.302 N 
HETATM    3  C   UNL     1      43.584 -10.813   7.252  1.00  0.00     0.192 C 
HETATM    4  N   UNL     1      44.354 -11.632   7.926  1.00  0.00    -0.122 NA
HETATM    5  N   UNL     1      44.325 -11.249   9.233  1.00  0.00    -0.128 NA
ENDROOT
BRANCH   3   6
HETATM    6  S   UNL     1      43.045 -11.086   5.634  1.00  0.00    -0.081 SA
BRANCH   6   7
HETATM    7  C   UNL     1      41.433 -11.880   5.912  1.00  0.00     0.185 C 
BRANCH   7   8
HETATM    8  C   UNL     1      41.507 -13.405   5.876  1.00  0.00     0.231 C 
HETATM    9  N   UNL     1      42.666 -13.885   5.294  1.00  0.00    -0.326 N 
HETATM   10  H   UNL     1      43.425 -13.211   5.182  1.00  0.00     0.169 HD
HETATM   11  O   UNL     1      40.581 -14.092   6.302  1.00  0.00    -0.272 OA
BRANCH   9  12
HETATM   12  C   UNL     1      42.980 -15.209   4.930  1.00  0.00     0.037 A 
HETATM   13  C   UNL     1      42.560 -15.803   3.736  1.00  0.00     0.061 A 
HETATM   14  C   UNL     1      43.006 -17.083   3.488  1.00  0.00     0.065 A 
HETATM   15  C   UNL     1      43.825 -17.776   4.377  1.00  0.00     0.063 A 
HETATM   16  N   UNL     1      42.788 -17.903   2.385  1.00  0.00    -0.306 N 
HETATM   17  N   UNL     1      44.106 -19.021   3.824  1.00  0.00    -0.307 N 
HETATM   18  C   UNL     1      44.243 -17.230   5.564  1.00  0.00     0.034 A 
HETATM   19  C   UNL     1      43.471 -19.112   2.577  1.00  0.00     0.325 A 
HETATM   20  H   UNL     1      44.679 -19.749   4.216  1.00  0.00     0.170 HD
HETATM   21  O   UNL     1      43.512 -20.057   1.809  1.00  0.00    -0.247 OA
HETATM   22  C   UNL     1      43.814 -15.925   5.831  1.00  0.00     0.032 A 
HETATM   23  H   UNL     1      42.248 -17.684   1.564  1.00  0.00     0.170 HD
ENDBRANCH   9  12
ENDBRANCH   7   8
ENDBRANCH   6   7
ENDBRANCH   3   6
BRANCH   2  24
HETATM   24  C   UNL     1      42.737  -8.454   7.689  1.00  0.00     0.094 C 
HETATM   25  C   UNL     1      41.218  -8.250   7.809  1.00  0.00     0.026 C 
HETATM   26  C   UNL     1      41.075  -6.741   7.912  1.00  0.00     0.002 C 
HETATM   27  C   UNL     1      42.230  -6.343   8.817  1.00  0.00     0.002 C 
HETATM   28  C   UNL     1      43.382  -7.268   8.425  1.00  0.00     0.026 C 
ENDBRANCH   2  24
BRANCH   1  29
HETATM   29  C   UNL     1      43.133  -9.592  10.610  1.00  0.00     0.012 A 
HETATM   30  C   UNL     1      44.030  -8.904  11.433  1.00  0.00     0.016 A 
HETATM   31  C   UNL     1      43.590  -8.259  12.596  1.00  0.00     0.009 A 
HETATM   32  C   UNL     1      42.236  -8.261  12.967  1.00  0.00    -0.051 A 
HETATM   33  C   UNL     1      41.347  -8.969  12.138  1.00  0.00     0.009 A 
HETATM   34  C   UNL     1      41.785  -9.614  10.975  1.00  0.00     0.016 A 
BRANCH  32  35
HETATM   35  C   UNL     1      41.714  -7.522  14.212  1.00  0.00    -0.024 C 
HETATM   36  C   UNL     1      40.635  -6.462  13.898  1.00  0.00     0.019 C 
HETATM   37  C   UNL     1      42.892  -6.803  14.901  1.00  0.00     0.019 C 
HETATM   38  C   UNL     1      41.079  -8.523  15.205  1.00  0.00     0.019 C 
ENDBRANCH  32  35
ENDBRANCH   1  29
TORSDOF 7
ENDMDL
MODEL 2
REMARK VINA RESULT:      -9.1      3.972     11.037
REMARK  7 active torsions:
REMARK  status: ('A' for Active; 'I' for Inactive)
REMARK    1  A    between atoms: C_2  and  C_3 
REMARK    2  A    between atoms: C_6  and  C_7 
REMARK    3  A    between atoms: N_8  and  C_9 
REMARK    4  A    between atoms: C_14  and  S_15 
REMARK    5  A    between atoms: S_15  and  C_16 
REMARK    6  A    between atoms: C_16  and  C_17 
REMARK       I    between atoms: C_17  and  N_18 
REMARK    7  A    between atoms: N_18  and  C_19 
ROOT
HETATM    1  C   UNL     1      43.280 -12.080   6.598  1.00  0.00     0.164 C 
HETATM    2  N   UNL     1      42.406 -11.010   6.725  1.00  0.00    -0.302 N 
HETATM    3  C   UNL     1      43.056 -10.133   7.555  1.00  0.00     0.192 C 
HETATM    4  N   UNL     1      44.074 -10.737   8.119  1.00  0.00    -0.122 NA
HETATM    5  N   UNL     1      44.225 -11.949   7.514  1.00  0.00    -0.128 NA
ENDROOT
BRANCH   3   6
HETATM    6  S   UNL     1      42.682  -8.458   7.749  1.00  0.00    -0.081 SA
BRANCH   6   7
HETATM    7  C   UNL     1      43.855  -7.968   9.050  1.00  0.00     0.185 C 
BRANCH   7   8
HETATM    8  C   UNL     1      43.163  -7.506  10.330  1.00  0.00     0.231 C 
HETATM    9  N   UNL     1      43.496  -8.262  11.439  1.00  0.00    -0.326 N 
HETATM   10  H   UNL     1      44.319  -8.860  11.344  1.00  0.00     0.169 HD
HETATM   11  O   UNL     1      42.366  -6.570  10.314  1.00  0.00    -0.272 OA
BRANCH   9  12
HETATM   12  C   UNL     1      42.917  -8.238  12.722  1.00  0.00     0.037 A 
HETATM   13  C   UNL     1      43.279  -7.325  13.718  1.00  0.00     0.061 A 
HETATM   14  C   UNL     1      42.574  -7.381  14.900  1.00  0.00     0.065 A 
HETATM   15  C   UNL     1      41.553  -8.304  15.120  1.00  0.00     0.063 A 
HETATM   16  N   UNL     1      42.682  -6.589  16.039  1.00  0.00    -0.306 N 
HETATM   17  N   UNL     1      41.039  -8.083  16.393  1.00  0.00    -0.307 N 
HETATM   18  C   UNL     1      41.182  -9.224  14.172  1.00  0.00     0.034 A 
HETATM   19  C   UNL     1      41.728  -7.010  16.976  1.00  0.00     0.325 A 
HETATM   20  H   UNL     1      40.287  -8.577  16.843  1.00  0.00     0.170 HD
HETATM   21  O   UNL     1      41.531  -6.536  18.081  1.00  0.00    -0.247 OA
HETATM   22  C   UNL     1      41.876  -9.177  12.957  1.00  0.00     0.032 A 
HETATM   23  H   UNL     1      43.318  -5.823  16.187  1.00  0.00     0.170 HD
ENDBRANCH   9  12
ENDBRANCH   7   8
ENDBRANCH   6   7
ENDBRANCH   3   6
BRANCH   2  24
HETATM   24  C   UNL     1      41.046 -10.963   6.234  1.00  0.00     0.094 C 
HETATM   25  C   UNL     1      40.898 -10.469   4.785  1.00  0.00     0.026 C 
HETATM   26  C   UNL     1      39.548 -11.022   4.363  1.00  0.00     0.002 C 
HETATM   27  C   UNL     1      39.540 -12.417   4.968  1.00  0.00     0.002 C 
HETATM   28  C   UNL     1      40.244 -12.272   6.318  1.00  0.00     0.026 C 
ENDBRANCH   2  24
BRANCH   1  29
HETATM   29  C   UNL     1      43.224 -13.170   5.624  1.00  0.00     0.012 A 
HETATM   30  C   UNL     1      43.056 -14.501   6.017  1.00  0.00     0.016 A 
HETATM   31  C   UNL     1      42.903 -15.519   5.065  1.00  0.00     0.009 A 
HETATM   32  C   UNL     1      42.893 -15.238   3.690  1.00  0.00    -0.051 A 
HETATM   33  C   UNL     1      43.076 -13.896   3.309  1.00  0.00     0.009 A 
HETATM   34  C   UNL     1      43.229 -12.879   4.259  1.00  0.00     0.016 A 
BRANCH  32  35
HETATM   35  C   UNL     1      42.679 -16.324   2.622  1.00  0.00    -0.024 C 
HETATM   36  C   UNL     1      43.390 -16.027   1.282  1.00  0.00     0.019 C 
HETATM   37  C   UNL     1      41.170 -16.457   2.333  1.00  0.00     0.019 C 
HETATM   38  C   UNL     1      43.222 -17.684   3.120  1.00  0.00     0.019 C 
ENDBRANCH  32  35
ENDBRANCH   1  29
TORSDOF 7
ENDMDL
MODEL 3
REMARK VINA RESULT:      -8.9      1.435      2.095
REMARK  7 active torsions:
REMARK  status: ('A' for Active; 'I' for Inactive)
REMARK    1  A    between atoms: C_2  and  C_3 
REMARK    2  A    between atoms: C_6  and  C_7 
REMARK    3  A    between atoms: N_8  and  C_9 
REMARK    4  A    between atoms: C_14  and  S_15 
REMARK    5  A    between atoms: S_15  and  C_16 
REMARK    6  A    between atoms: C_16  and  C_17 
REMARK       I    between atoms: C_17  and  N_18 
REMARK    7  A    between atoms: N_18  and  C_19 
ROOT
HETATM    1  C   UNL     1      43.493  -9.439  11.144  1.00  0.00     0.164 C 
HETATM    2  N   UNL     1      43.171  -9.153   9.825  1.00  0.00    -0.302 N 
HETATM    3  C   UNL     1      43.724 -10.181   9.107  1.00  0.00     0.192 C 
HETATM    4  N   UNL     1      44.556 -10.850   9.869  1.00  0.00    -0.122 NA
HETATM    5  N   UNL     1      44.405 -10.397  11.145  1.00  0.00    -0.128 NA
ENDROOT
BRANCH   3   6
HETATM    6  S   UNL     1      43.315 -10.619   7.487  1.00  0.00    -0.081 SA
BRANCH   6   7
HETATM    7  C   UNL     1      43.883 -12.346   7.418  1.00  0.00     0.185 C 
BRANCH   7   8
HETATM    8  C   UNL     1      43.605 -13.009   6.071  1.00  0.00     0.231 C 
HETATM    9  N   UNL     1      43.237 -14.337   6.178  1.00  0.00    -0.326 N 
HETATM   10  H   UNL     1      42.958 -14.652   7.109  1.00  0.00     0.169 HD
HETATM   11  O   UNL     1      43.749 -12.388   5.019  1.00  0.00    -0.272 OA
BRANCH   9  12
HETATM   12  C   UNL     1      43.091 -15.292   5.153  1.00  0.00     0.037 A 
HETATM   13  C   UNL     1      43.899 -16.427   5.032  1.00  0.00     0.061 A 
HETATM   14  C   UNL     1      43.590 -17.305   4.017  1.00  0.00     0.065 A 
HETATM   15  C   UNL     1      42.535 -17.087   3.132  1.00  0.00     0.063 A 
HETATM   16  N   UNL     1      44.182 -18.518   3.679  1.00  0.00    -0.306 N 
HETATM   17  N   UNL     1      42.483 -18.160   2.250  1.00  0.00    -0.307 N 
HETATM   18  C   UNL     1      41.733 -15.977   3.212  1.00  0.00     0.034 A 
HETATM   19  C   UNL     1      43.500 -19.066   2.583  1.00  0.00     0.325 A 
HETATM   20  H   UNL     1      41.827 -18.304   1.500  1.00  0.00     0.170 HD
HETATM   21  O   UNL     1      43.739 -20.125   2.029  1.00  0.00    -0.247 OA
HETATM   22  C   UNL     1      42.020 -15.077   4.244  1.00  0.00     0.032 A 
HETATM   23  H   UNL     1      44.961 -18.962   4.137  1.00  0.00     0.170 HD
ENDBRANCH   9  12
ENDBRANCH   7   8
ENDBRANCH   6   7
ENDBRANCH   3   6
BRANCH   2  24
HETATM   24  C   UNL     1      42.557  -7.934   9.347  1.00  0.00     0.094 C 
HETATM   25  C   UNL     1      41.104  -7.719   9.801  1.00  0.00     0.026 C 
HETATM   26  C   UNL     1      40.910  -6.219   9.657  1.00  0.00     0.002 C 
HETATM   27  C   UNL     1      42.227  -5.649  10.158  1.00  0.00     0.002 C 
HETATM   28  C   UNL     1      43.297  -6.625   9.669  1.00  0.00     0.026 C 
ENDBRANCH   2  24
BRANCH   1  29
HETATM   29  C   UNL     1      42.936  -8.833  12.353  1.00  0.00     0.012 A 
HETATM   30  C   UNL     1      43.573  -7.776  13.009  1.00  0.00     0.016 A 
HETATM   31  C   UNL     1      42.972  -7.144  14.106  1.00  0.00     0.009 A 
HETATM   32  C   UNL     1      41.705  -7.532  14.571  1.00  0.00    -0.051 A 
HETATM   33  C   UNL     1      41.083  -8.606  13.910  1.00  0.00     0.009 A 
HETATM   34  C   UNL     1      41.682  -9.239  12.814  1.00  0.00     0.016 A 
BRANCH  32  35
HETATM   35  C   UNL     1      40.998  -6.827  15.742  1.00  0.00    -0.024 C 
HETATM   36  C   UNL     1      41.689  -5.518  16.187  1.00  0.00     0.019 C 
HETATM   37  C   UNL     1      40.966  -7.777  16.956  1.00  0.00     0.019 C 
HETATM   38  C   UNL     1      39.550  -6.455  15.350  1.00  0.00     0.019 C 
ENDBRANCH  32  35
ENDBRANCH   1  29
TORSDOF 7
ENDMDL
MODEL 4
REMARK VINA RESULT:      -8.6      1.830      2.810
REMARK  7 active torsions:
REMARK  status: ('A' for Active; 'I' for Inactive)
REMARK    1  A    between atoms: C_2  and  C_3 
REMARK    2  A    between atoms: C_6  and  C_7 
REMARK    3  A    between atoms: N_8  and  C_9 
REMARK    4  A    between atoms: C_14  and  S_15 
REMARK    5  A    between atoms: S_15  and  C_16 
REMARK    6  A    between atoms: C_16  and  C_17 
REMARK       I    between atoms: C_17  and  N_18 
REMARK    7  A    between atoms: N_18  and  C_19 
ROOT
HETATM    1  C   UNL     1      41.341  -9.379   8.461  1.00  0.00     0.164 C 
HETATM    2  N   UNL     1      42.399  -9.831   7.687  1.00  0.00    -0.302 N 
HETATM    3  C   UNL     1      41.823 -10.191   6.496  1.00  0.00     0.192 C 
HETATM    4  N   UNL     1      40.520 -10.246   6.639  1.00  0.00    -0.122 NA
HETATM    5  N   UNL     1      40.214  -9.727   7.861  1.00  0.00    -0.128 NA
ENDROOT
BRANCH   3   6
HETATM    6  S   UNL     1      42.653 -10.424   5.000  1.00  0.00    -0.081 SA
BRANCH   6   7
HETATM    7  C   UNL     1      41.656 -11.732   4.225  1.00  0.00     0.185 C 
BRANCH   7   8
HETATM    8  C   UNL     1      42.498 -12.900   3.717  1.00  0.00     0.231 C 
HETATM    9  N   UNL     1      41.951 -14.137   4.003  1.00  0.00    -0.326 N 
HETATM   10  H   UNL     1      40.970 -14.140   4.286  1.00  0.00     0.169 HD
HETATM   11  O   UNL     1      43.571 -12.705   3.149  1.00  0.00    -0.272 OA
BRANCH   9  12
HETATM   12  C   UNL     1      42.536 -15.410   3.852  1.00  0.00     0.037 A 
HETATM   13  C   UNL     1      42.951 -16.202   4.928  1.00  0.00     0.061 A 
HETATM   14  C   UNL     1      43.441 -17.453   4.626  1.00  0.00     0.065 A 
HETATM   15  C   UNL     1      43.541 -17.923   3.318  1.00  0.00     0.063 A 
HETATM   16  N   UNL     1      43.888 -18.462   5.474  1.00  0.00    -0.306 N 
HETATM   17  N   UNL     1      44.052 -19.216   3.361  1.00  0.00    -0.307 N 
HETATM   18  C   UNL     1      43.158 -17.168   2.239  1.00  0.00     0.034 A 
HETATM   19  C   UNL     1      44.266 -19.570   4.701  1.00  0.00     0.325 A 
HETATM   20  H   UNL     1      44.231 -19.829   2.584  1.00  0.00     0.170 HD
HETATM   21  O   UNL     1      44.694 -20.634   5.111  1.00  0.00    -0.247 OA
HETATM   22  C   UNL     1      42.644 -15.897   2.522  1.00  0.00     0.032 A 
HETATM   23  H   UNL     1      43.927 -18.436   6.479  1.00  0.00     0.170 HD
ENDBRANCH   9  12
ENDBRANCH   7   8
ENDBRANCH   6   7
ENDBRANCH   3   6
BRANCH   2  24
HETATM   24  C   UNL     1      43.756 -10.039   8.143  1.00  0.00     0.094 C 
HETATM   25  C   UNL     1      44.612  -8.765   8.232  1.00  0.00     0.026 C 
HETATM   26  C   UNL     1      45.712  -9.149   9.207  1.00  0.00     0.002 C 
HETATM   27  C   UNL     1      44.972  -9.954  10.265  1.00  0.00     0.002 C 
HETATM   28  C   UNL     1      43.919 -10.752   9.496  1.00  0.00     0.026 C 
ENDBRANCH   2  24
BRANCH   1  29
HETATM   29  C   UNL     1      41.406  -8.625   9.713  1.00  0.00     0.012 A 
HETATM   30  C   UNL     1      41.190  -9.235  10.953  1.00  0.00     0.016 A 
HETATM   31  C   UNL     1      41.357  -8.518  12.146  1.00  0.00     0.009 A 
HETATM   32  C   UNL     1      41.764  -7.175  12.141  1.00  0.00    -0.051 A 
HETATM   33  C   UNL     1      41.964  -6.571  10.886  1.00  0.00     0.009 A 
HETATM   34  C   UNL     1      41.798  -7.285   9.694  1.00  0.00     0.016 A 
BRANCH  32  35
HETATM   35  C   UNL     1      42.002  -6.375  13.434  1.00  0.00    -0.024 C 
HETATM   36  C   UNL     1      40.775  -6.331  14.372  1.00  0.00     0.019 C 
HETATM   37  C   UNL     1      42.364  -4.921  13.067  1.00  0.00     0.019 C 
HETATM   38  C   UNL     1      43.161  -6.997  14.247  1.00  0.00     0.019 C 
ENDBRANCH  32  35
ENDBRANCH   1  29
TORSDOF 7
ENDMDL
MODEL 5
REMARK VINA RESULT:      -8.4     19.599     21.278
REMARK  7 active torsions:
REMARK  status: ('A' for Active; 'I' for Inactive)
REMARK    1  A    between atoms: C_2  and  C_3 
REMARK    2  A    between atoms: C_6  and  C_7 
REMARK    3  A    between atoms: N_8  and  C_9 
REMARK    4  A    between atoms: C_14  and  S_15 
REMARK    5  A    between atoms: S_15  and  C_16 
REMARK    6  A    between atoms: C_16  and  C_17 
REMARK       I    between atoms: C_17  and  N_18 
REMARK    7  A    between atoms: N_18  and  C_19 
ROOT
HETATM    1  C   UNL     1      48.244 -29.289   2.311  1.00  0.00     0.164 C 
HETATM    2  N   UNL     1      48.075 -29.615   0.973  1.00  0.00    -0.302 N 
HETATM    3  C   UNL     1      47.536 -28.487   0.411  1.00  0.00     0.192 C 
HETATM    4  N   UNL     1      47.133 -27.675   1.358  1.00  0.00    -0.122 NA
HETATM    5  N   UNL     1      47.584 -28.167   2.546  1.00  0.00    -0.128 NA
ENDROOT
BRANCH   3   6
HETATM    6  S   UNL     1      47.495 -28.118  -1.276  1.00  0.00    -0.081 SA
BRANCH   6   7
HETATM    7  C   UNL     1      45.709 -28.156  -1.618  1.00  0.00     0.185 C 
BRANCH   7   8
HETATM    8  C   UNL     1      44.984 -29.271  -0.868  1.00  0.00     0.231 C 
HETATM    9  N   UNL     1      44.369 -28.843   0.293  1.00  0.00    -0.326 N 
HETATM   10  H   UNL     1      44.254 -27.833   0.394  1.00  0.00     0.169 HD
HETATM   11  O   UNL     1      45.010 -30.430  -1.280  1.00  0.00    -0.272 OA
BRANCH   9  12
HETATM   12  C   UNL     1      43.779 -29.618   1.310  1.00  0.00     0.037 A 
HETATM   13  C   UNL     1      44.513 -30.288   2.295  1.00  0.00     0.061 A 
HETATM   14  C   UNL     1      43.792 -30.950   3.265  1.00  0.00     0.065 A 
HETATM   15  C   UNL     1      42.399 -30.975   3.277  1.00  0.00     0.063 A 
HETATM   16  N   UNL     1      44.238 -31.662   4.374  1.00  0.00    -0.306 N 
HETATM   17  N   UNL     1      41.990 -31.704   4.387  1.00  0.00    -0.307 N 
HETATM   18  C   UNL     1      41.648 -30.342   2.319  1.00  0.00     0.034 A 
HETATM   19  C   UNL     1      43.127 -32.134   5.087  1.00  0.00     0.325 A 
HETATM   20  H   UNL     1      41.046 -31.895   4.680  1.00  0.00     0.170 HD
HETATM   21  O   UNL     1      43.143 -32.785   6.116  1.00  0.00    -0.247 OA
HETATM   22  C   UNL     1      42.359 -29.651   1.330  1.00  0.00     0.032 A 
HETATM   23  H   UNL     1      45.194 -31.814   4.653  1.00  0.00     0.170 HD
ENDBRANCH   9  12
ENDBRANCH   7   8
ENDBRANCH   6   7
ENDBRANCH   3   6
BRANCH   2  24
HETATM   24  C   UNL     1      48.257 -30.927   0.390  1.00  0.00     0.094 C 
HETATM   25  C   UNL     1      49.720 -31.381   0.263  1.00  0.00     0.026 C 
HETATM   26  C   UNL     1      49.611 -32.893   0.170  1.00  0.00     0.002 C 
HETATM   27  C   UNL     1      48.527 -33.225   1.184  1.00  0.00     0.002 C 
HETATM   28  C   UNL     1      47.513 -32.087   1.072  1.00  0.00     0.026 C 
ENDBRANCH   2  24
BRANCH   1  29
HETATM   29  C   UNL     1      49.022 -30.012   3.316  1.00  0.00     0.012 A 
HETATM   30  C   UNL     1      48.422 -30.891   4.223  1.00  0.00     0.016 A 
HETATM   31  C   UNL     1      49.197 -31.649   5.111  1.00  0.00     0.009 A 
HETATM   32  C   UNL     1      50.599 -31.570   5.109  1.00  0.00    -0.051 A 
HETATM   33  C   UNL     1      51.188 -30.671   4.202  1.00  0.00     0.009 A 
HETATM   34  C   UNL     1      50.416 -29.912   3.314  1.00  0.00     0.016 A 
BRANCH  32  35
HETATM   35  C   UNL     1      51.479 -32.424   6.038  1.00  0.00    -0.024 C 
HETATM   36  C   UNL     1      52.163 -33.613   5.326  1.00  0.00     0.019 C 
HETATM   37  C   UNL     1      50.607 -32.996   7.173  1.00  0.00     0.019 C 
HETATM   38  C   UNL     1      52.609 -31.563   6.650  1.00  0.00     0.019 C 
ENDBRANCH  32  35
ENDBRANCH   1  29
TORSDOF 7
ENDMDL
MODEL 6
REMARK VINA RESULT:      -8.4      5.016      7.405
REMARK  7 active torsions:
REMARK  status: ('A' for Active; 'I' for Inactive)
REMARK    1  A    between atoms: C_2  and  C_3 
REMARK    2  A    between atoms: C_6  and  C_7 
REMARK    3  A    between atoms: N_8  and  C_9 
REMARK    4  A    between atoms: C_14  and  S_15 
REMARK    5  A    between atoms: S_15  and  C_16 
REMARK    6  A    between atoms: C_16  and  C_17 
REMARK       I    between atoms: C_17  and  N_18 
REMARK    7  A    between atoms: N_18  and  C_19 
ROOT
HETATM    1  C   UNL     1      43.146 -12.136   5.022  1.00  0.00     0.164 C 
HETATM    2  N   UNL     1      42.597 -13.406   4.921  1.00  0.00    -0.302 N 
HETATM    3  C   UNL     1      42.811 -13.771   3.617  1.00  0.00     0.192 C 
HETATM    4  N   UNL     1      43.170 -12.718   2.922  1.00  0.00    -0.122 NA
HETATM    5  N   UNL     1      43.393 -11.698   3.798  1.00  0.00    -0.128 NA
ENDROOT
BRANCH   3   6
HETATM    6  S   UNL     1      42.741 -15.379   2.992  1.00  0.00    -0.081 SA
BRANCH   6   7
HETATM    7  C   UNL     1      42.552 -15.072   1.209  1.00  0.00     0.185 C 
BRANCH   7   8
HETATM    8  C   UNL     1      41.101 -14.829   0.799  1.00  0.00     0.231 C 
HETATM    9  N   UNL     1      40.966 -14.370  -0.498  1.00  0.00    -0.326 N 
HETATM   10  H   UNL     1      41.786 -14.475  -1.099  1.00  0.00     0.169 HD
HETATM   11  O   UNL     1      40.182 -15.004   1.596  1.00  0.00    -0.272 OA
BRANCH   9  12
HETATM   12  C   UNL     1      39.814 -13.873  -1.137  1.00  0.00     0.037 A 
HETATM   13  C   UNL     1      39.277 -12.606  -0.888  1.00  0.00     0.061 A 
HETATM   14  C   UNL     1      38.186 -12.234  -1.641  1.00  0.00     0.065 A 
HETATM   15  C   UNL     1      37.618 -13.068  -2.602  1.00  0.00     0.063 A 
HETATM   16  N   UNL     1      37.472 -11.039  -1.643  1.00  0.00    -0.306 N 
HETATM   17  N   UNL     1      36.555 -12.391  -3.189  1.00  0.00    -0.307 N 
HETATM   18  C   UNL     1      38.108 -14.323  -2.861  1.00  0.00     0.034 A 
HETATM   19  C   UNL     1      36.456 -11.119  -2.606  1.00  0.00     0.325 A 
HETATM   20  H   UNL     1      35.951 -12.720  -3.923  1.00  0.00     0.170 HD
HETATM   21  O   UNL     1      35.647 -10.253  -2.888  1.00  0.00    -0.247 OA
HETATM   22  C   UNL     1      39.226 -14.719  -2.117  1.00  0.00     0.032 A 
HETATM   23  H   UNL     1      37.644 -10.228  -1.072  1.00  0.00     0.170 HD
ENDBRANCH   9  12
ENDBRANCH   7   8
ENDBRANCH   6   7
ENDBRANCH   3   6
BRANCH   2  24
HETATM   24  C   UNL     1      41.812 -14.074   5.937  1.00  0.00     0.094 C 
HETATM   25  C   UNL     1      40.517 -14.728   5.429  1.00  0.00     0.026 C 
HETATM   26  C   UNL     1      40.208 -15.767   6.494  1.00  0.00     0.002 C 
HETATM   27  C   UNL     1      41.576 -16.341   6.825  1.00  0.00     0.002 C 
HETATM   28  C   UNL     1      42.536 -15.153   6.759  1.00  0.00     0.026 C 
ENDBRANCH   2  24
BRANCH   1  29
HETATM   29  C   UNL     1      43.442 -11.383   6.240  1.00  0.00     0.012 A 
HETATM   30  C   UNL     1      42.572 -10.405   6.731  1.00  0.00     0.016 A 
HETATM   31  C   UNL     1      42.824  -9.766   7.953  1.00  0.00     0.009 A 
HETATM   32  C   UNL     1      43.943 -10.098   8.735  1.00  0.00    -0.051 A 
HETATM   33  C   UNL     1      44.816 -11.073   8.221  1.00  0.00     0.009 A 
HETATM   34  C   UNL     1      44.566 -11.712   7.000  1.00  0.00     0.016 A 
BRANCH  32  35
HETATM   35  C   UNL     1      44.222  -9.450  10.102  1.00  0.00    -0.024 C 
HETATM   36  C   UNL     1      43.550  -8.070  10.285  1.00  0.00     0.019 C 
HETATM   37  C   UNL     1      45.743  -9.256  10.266  1.00  0.00     0.019 C 
HETATM   38  C   UNL     1      43.699 -10.353  11.243  1.00  0.00     0.019 C 
ENDBRANCH  32  35
ENDBRANCH   1  29
TORSDOF 7
ENDMDL
MODEL 7
REMARK VINA RESULT:      -8.3      3.943     10.838
REMARK  7 active torsions:
REMARK  status: ('A' for Active; 'I' for Inactive)
REMARK    1  A    between atoms: C_2  and  C_3 
REMARK    2  A    between atoms: C_6  and  C_7 
REMARK    3  A    between atoms: N_8  and  C_9 
REMARK    4  A    between atoms: C_14  and  S_15 
REMARK    5  A    between atoms: S_15  and  C_16 
REMARK    6  A    between atoms: C_16  and  C_17 
REMARK       I    between atoms: C_17  and  N_18 
REMARK    7  A    between atoms: N_18  and  C_19 
ROOT
HETATM    1  C   UNL     1      43.616 -12.029   4.133  1.00  0.00     0.164 C 
HETATM    2  N   UNL     1      43.484 -12.345   5.477  1.00  0.00    -0.302 N 
HETATM    3  C   UNL     1      44.490 -11.647   6.094  1.00  0.00     0.192 C 
HETATM    4  N   UNL     1      45.332 -11.203   5.191  1.00  0.00    -0.122 NA
HETATM    5  N   UNL     1      44.783 -11.429   3.965  1.00  0.00    -0.128 NA
ENDROOT
BRANCH   3   6
HETATM    6  S   UNL     1      44.589 -11.292   7.781  1.00  0.00    -0.081 SA
BRANCH   6   7
HETATM    7  C   UNL     1      45.359  -9.644   7.766  1.00  0.00     0.185 C 
BRANCH   7   8
HETATM    8  C   UNL     1      44.719  -8.679   8.761  1.00  0.00     0.231 C 
HETATM    9  N   UNL     1      44.023  -9.315   9.772  1.00  0.00    -0.326 N 
HETATM   10  H   UNL     1      44.209 -10.313   9.887  1.00  0.00     0.169 HD
HETATM   11  O   UNL     1      44.812  -7.463   8.610  1.00  0.00    -0.272 OA
BRANCH   9  12
HETATM   12  C   UNL     1      43.169  -8.749  10.739  1.00  0.00     0.037 A 
HETATM   13  C   UNL     1      41.812  -8.493  10.517  1.00  0.00     0.061 A 
HETATM   14  C   UNL     1      41.090  -8.001  11.582  1.00  0.00     0.065 A 
HETATM   15  C   UNL     1      41.665  -7.750  12.825  1.00  0.00     0.063 A 
HETATM   16  N   UNL     1      39.736  -7.691  11.671  1.00  0.00    -0.306 N 
HETATM   17  N   UNL     1      40.670  -7.282  13.676  1.00  0.00    -0.307 N 
HETATM   18  C   UNL     1      42.996  -7.974  13.074  1.00  0.00     0.034 A 
HETATM   19  C   UNL     1      39.457  -7.247  12.972  1.00  0.00     0.325 A 
HETATM   20  H   UNL     1      40.764  -7.022  14.643  1.00  0.00     0.170 HD
HETATM   21  O   UNL     1      38.374  -6.902  13.409  1.00  0.00    -0.247 OA
HETATM   22  C   UNL     1      43.747  -8.488  12.010  1.00  0.00     0.032 A 
HETATM   23  H   UNL     1      39.045  -7.778  10.944  1.00  0.00     0.170 HD
ENDBRANCH   9  12
ENDBRANCH   7   8
ENDBRANCH   6   7
ENDBRANCH   3   6
BRANCH   2  24
HETATM   24  C   UNL     1      42.595 -13.342   6.031  1.00  0.00     0.094 C 
HETATM   25  C   UNL     1      41.097 -13.058   5.830  1.00  0.00     0.026 C 
HETATM   26  C   UNL     1      40.457 -14.428   5.977  1.00  0.00     0.002 C 
HETATM   27  C   UNL     1      41.426 -15.343   5.245  1.00  0.00     0.002 C 
HETATM   28  C   UNL     1      42.816 -14.790   5.562  1.00  0.00     0.026 C 
ENDBRANCH   2  24
BRANCH   1  29
HETATM   29  C   UNL     1      42.654 -12.272   3.058  1.00  0.00     0.012 A 
HETATM   30  C   UNL     1      41.759 -11.285   2.632  1.00  0.00     0.016 A 
HETATM   31  C   UNL     1      40.916 -11.505   1.535  1.00  0.00     0.009 A 
HETATM   32  C   UNL     1      40.952 -12.709   0.813  1.00  0.00    -0.051 A 
HETATM   33  C   UNL     1      41.847 -13.697   1.262  1.00  0.00     0.009 A 
HETATM   34  C   UNL     1      42.690 -13.480   2.358  1.00  0.00     0.016 A 
BRANCH  32  35
HETATM   35  C   UNL     1      40.074 -12.962  -0.425  1.00  0.00    -0.024 C 
HETATM   36  C   UNL     1      40.708 -12.473  -1.747  1.00  0.00     0.019 C 
HETATM   37  C   UNL     1      38.731 -12.225  -0.249  1.00  0.00     0.019 C 
HETATM   38  C   UNL     1      39.805 -14.475  -0.594  1.00  0.00     0.019 C 
ENDBRANCH  32  35
ENDBRANCH   1  29
TORSDOF 7
ENDMDL
MODEL 8
REMARK VINA RESULT:      -8.2      4.926      7.932
REMARK  7 active torsions:
REMARK  status: ('A' for Active; 'I' for Inactive)
REMARK    1  A    between atoms: C_2  and  C_3 
REMARK    2  A    between atoms: C_6  and  C_7 
REMARK    3  A    between atoms: N_8  and  C_9 
REMARK    4  A    between atoms: C_14  and  S_15 
REMARK    5  A    between atoms: S_15  and  C_16 
REMARK    6  A    between atoms: C_16  and  C_17 
REMARK       I    between atoms: C_17  and  N_18 
REMARK    7  A    between atoms: N_18  and  C_19 
ROOT
HETATM    1  C   UNL     1      41.757 -13.198   5.558  1.00  0.00     0.164 C 
HETATM    2  N   UNL     1      42.002 -14.519   5.216  1.00  0.00    -0.302 N 
HETATM    3  C   UNL     1      41.119 -14.781   4.202  1.00  0.00     0.192 C 
HETATM    4  N   UNL     1      40.223 -13.825   4.143  1.00  0.00    -0.122 NA
HETATM    5  N   UNL     1      40.625 -12.828   4.981  1.00  0.00    -0.128 NA
ENDROOT
BRANCH   3   6
HETATM    6  S   UNL     1      41.221 -16.095   3.085  1.00  0.00    -0.081 SA
BRANCH   6   7
HETATM    7  C   UNL     1      42.242 -15.375   1.762  1.00  0.00     0.185 C 
BRANCH   7   8
HETATM    8  C   UNL     1      41.560 -14.207   1.054  1.00  0.00     0.231 C 
HETATM    9  N   UNL     1      40.475 -14.587   0.286  1.00  0.00    -0.326 N 
HETATM   10  H   UNL     1      40.108 -15.524   0.461  1.00  0.00     0.169 HD
HETATM   11  O   UNL     1      41.997 -13.062   1.160  1.00  0.00    -0.272 OA
BRANCH   9  12
HETATM   12  C   UNL     1      39.739 -13.816  -0.635  1.00  0.00     0.037 A 
HETATM   13  C   UNL     1      38.901 -12.760  -0.262  1.00  0.00     0.061 A 
HETATM   14  C   UNL     1      38.301 -12.054  -1.281  1.00  0.00     0.065 A 
HETATM   15  C   UNL     1      38.494 -12.367  -2.625  1.00  0.00     0.063 A 
HETATM   16  N   UNL     1      37.459 -10.947  -1.221  1.00  0.00    -0.306 N 
HETATM   17  N   UNL     1      37.769 -11.459  -3.389  1.00  0.00    -0.307 N 
HETATM   18  C   UNL     1      39.296 -13.405  -3.025  1.00  0.00     0.034 A 
HETATM   19  C   UNL     1      37.123 -10.561  -2.526  1.00  0.00     0.325 A 
HETATM   20  H   UNL     1      37.711 -11.413  -4.392  1.00  0.00     0.170 HD
HETATM   21  O   UNL     1      36.414  -9.626  -2.852  1.00  0.00    -0.247 OA
HETATM   22  C   UNL     1      39.928 -14.129  -2.007  1.00  0.00     0.032 A 
HETATM   23  H   UNL     1      37.141 -10.471  -0.393  1.00  0.00     0.170 HD
ENDBRANCH   9  12
ENDBRANCH   7   8
ENDBRANCH   6   7
ENDBRANCH   3   6
BRANCH   2  24
HETATM   24  C   UNL     1      42.869 -15.433   5.929  1.00  0.00     0.094 C 
HETATM   25  C   UNL     1      42.142 -16.552   6.693  1.00  0.00     0.026 C 
HETATM   26  C   UNL     1      43.212 -17.617   6.857  1.00  0.00     0.002 C 
HETATM   27  C   UNL     1      43.927 -17.600   5.515  1.00  0.00     0.002 C 
HETATM   28  C   UNL     1      43.959 -16.129   5.098  1.00  0.00     0.026 C 
ENDBRANCH   2  24
BRANCH   1  29
HETATM   29  C   UNL     1      42.582 -12.319   6.386  1.00  0.00     0.012 A 
HETATM   30  C   UNL     1      43.881 -12.670   6.767  1.00  0.00     0.016 A 
HETATM   31  C   UNL     1      44.691 -11.772   7.474  1.00  0.00     0.009 A 
HETATM   32  C   UNL     1      44.238 -10.485   7.808  1.00  0.00    -0.051 A 
HETATM   33  C   UNL     1      42.925 -10.151   7.431  1.00  0.00     0.009 A 
HETATM   34  C   UNL     1      42.114 -11.047   6.724  1.00  0.00     0.016 A 
BRANCH  32  35
HETATM   35  C   UNL     1      45.119  -9.459   8.541  1.00  0.00    -0.024 C 
HETATM   36  C   UNL     1      46.505  -9.250   7.889  1.00  0.00     0.019 C 
HETATM   37  C   UNL     1      45.351  -9.938   9.989  1.00  0.00     0.019 C 
HETATM   38  C   UNL     1      44.428  -8.077   8.568  1.00  0.00     0.019 C 
ENDBRANCH  32  35
ENDBRANCH   1  29
TORSDOF 7
ENDMDL
MODEL 9
REMARK VINA RESULT:      -8.1      2.342      3.342
REMARK  7 active torsions:
REMARK  status: ('A' for Active; 'I' for Inactive)
REMARK    1  A    between atoms: C_2  and  C_3 
REMARK    2  A    between atoms: C_6  and  C_7 
REMARK    3  A    between atoms: N_8  and  C_9 
REMARK    4  A    between atoms: C_14  and  S_15 
REMARK    5  A    between atoms: S_15  and  C_16 
REMARK    6  A    between atoms: C_16  and  C_17 
REMARK       I    between atoms: C_17  and  N_18 
REMARK    7  A    between atoms: N_18  and  C_19 
ROOT
HETATM    1  C   UNL     1      43.042  -8.729  11.852  1.00  0.00     0.164 C 
HETATM    2  N   UNL     1      42.654  -8.359  10.573  1.00  0.00    -0.302 N 
HETATM    3  C   UNL     1      43.194  -9.320   9.759  1.00  0.00     0.192 C 
HETATM    4  N   UNL     1      44.073 -10.022  10.433  1.00  0.00    -0.122 NA
HETATM    5  N   UNL     1      43.972  -9.664  11.744  1.00  0.00    -0.128 NA
ENDROOT
BRANCH   3   6
HETATM    6  S   UNL     1      42.719  -9.652   8.132  1.00  0.00    -0.081 SA
BRANCH   6   7
HETATM    7  C   UNL     1      44.088 -10.702   7.555  1.00  0.00     0.185 C 
BRANCH   7   8
HETATM    8  C   UNL     1      43.755 -11.462   6.274  1.00  0.00     0.231 C 
HETATM    9  N   UNL     1      42.798 -12.444   6.451  1.00  0.00    -0.326 N 
HETATM   10  H   UNL     1      42.258 -12.394   7.316  1.00  0.00     0.169 HD
HETATM   11  O   UNL     1      44.340 -11.212   5.222  1.00  0.00    -0.272 OA
BRANCH   9  12
HETATM   12  C   UNL     1      42.391 -13.445   5.547  1.00  0.00     0.037 A 
HETATM   13  C   UNL     1      41.333 -13.289   4.646  1.00  0.00     0.061 A 
HETATM   14  C   UNL     1      41.098 -14.331   3.776  1.00  0.00     0.065 A 
HETATM   15  C   UNL     1      41.857 -15.499   3.785  1.00  0.00     0.063 A 
HETATM   16  N   UNL     1      40.154 -14.446   2.760  1.00  0.00    -0.306 N 
HETATM   17  N   UNL     1      41.378 -16.332   2.780  1.00  0.00    -0.307 N 
HETATM   18  C   UNL     1      42.892 -15.692   4.664  1.00  0.00     0.034 A 
HETATM   19  C   UNL     1      40.319 -15.686   2.126  1.00  0.00     0.325 A 
HETATM   20  H   UNL     1      41.721 -17.243   2.525  1.00  0.00     0.170 HD
HETATM   21  O   UNL     1      39.674 -16.117   1.187  1.00  0.00    -0.247 OA
HETATM   22  C   UNL     1      43.158 -14.641   5.549  1.00  0.00     0.032 A 
HETATM   23  H   UNL     1      39.466 -13.762   2.491  1.00  0.00     0.170 HD
ENDBRANCH   9  12
ENDBRANCH   7   8
ENDBRANCH   6   7
ENDBRANCH   3   6
BRANCH   2  24
HETATM   24  C   UNL     1      41.995  -7.123  10.211  1.00  0.00     0.094 C 
HETATM   25  C   UNL     1      40.596  -6.933  10.819  1.00  0.00     0.026 C 
HETATM   26  C   UNL     1      40.388  -5.430  10.758  1.00  0.00     0.002 C 
HETATM   27  C   UNL     1      41.749  -4.875  11.147  1.00  0.00     0.002 C 
HETATM   28  C   UNL     1      42.764  -5.826  10.510  1.00  0.00     0.026 C 
ENDBRANCH   2  24
BRANCH   1  29
HETATM   29  C   UNL     1      42.529  -8.223  13.125  1.00  0.00     0.012 A 
HETATM   30  C   UNL     1      41.431  -8.809  13.762  1.00  0.00     0.016 A 
HETATM   31  C   UNL     1      41.018  -8.374  15.029  1.00  0.00     0.009 A 
HETATM   32  C   UNL     1      41.700  -7.353  15.710  1.00  0.00    -0.051 A 
HETATM   33  C   UNL     1      42.794  -6.764  15.051  1.00  0.00     0.009 A 
HETATM   34  C   UNL     1      43.208  -7.197  13.785  1.00  0.00     0.016 A 
BRANCH  32  35
HETATM   35  C   UNL     1      41.301  -6.886  17.121  1.00  0.00    -0.024 C 
HETATM   36  C   UNL     1      41.821  -5.475  17.478  1.00  0.00     0.019 C 
HETATM   37  C   UNL     1      41.873  -7.873  18.159  1.00  0.00     0.019 C 
HETATM   38  C   UNL     1      39.762  -6.841  17.258  1.00  0.00     0.019 C 
ENDBRANCH  32  35
ENDBRANCH   1  29
TORSDOF 7
ENDMDL
MODEL 10
REMARK VINA RESULT:      -8.0      5.157      8.263
REMARK  7 active torsions:
REMARK  status: ('A' for Active; 'I' for Inactive)
REMARK    1  A    between atoms: C_2  and  C_3 
REMARK    2  A    between atoms: C_6  and  C_7 
REMARK    3  A    between atoms: N_8  and  C_9 
REMARK    4  A    between atoms: C_14  and  S_15 
REMARK    5  A    between atoms: S_15  and  C_16 
REMARK    6  A    between atoms: C_16  and  C_17 
REMARK       I    between atoms: C_17  and  N_18 
REMARK    7  A    between atoms: N_18  and  C_19 
ROOT
HETATM    1  C   UNL     1      38.909  -5.860  15.276  1.00  0.00     0.164 C 
HETATM    2  N   UNL     1      39.459  -6.033  14.014  1.00  0.00    -0.302 N 
HETATM    3  C   UNL     1      38.479  -5.614  13.152  1.00  0.00     0.192 C 
HETATM    4  N   UNL     1      37.346  -5.495  13.802  1.00  0.00    -0.122 NA
HETATM    5  N   UNL     1      37.613  -5.635  15.131  1.00  0.00    -0.128 NA
ENDROOT
BRANCH   3   6
HETATM    6  S   UNL     1      38.703  -5.188  11.494  1.00  0.00    -0.081 SA
BRANCH   6   7
HETATM    7  C   UNL     1      38.755  -6.823  10.698  1.00  0.00     0.185 C 
BRANCH   7   8
HETATM    8  C   UNL     1      40.093  -7.113  10.023  1.00  0.00     0.231 C 
HETATM    9  N   UNL     1      40.580  -8.380  10.290  1.00  0.00    -0.326 N 
HETATM   10  H   UNL     1      39.911  -9.044  10.683  1.00  0.00     0.169 HD
HETATM   11  O   UNL     1      40.660  -6.255   9.349  1.00  0.00    -0.272 OA
BRANCH   9  12
HETATM   12  C   UNL     1      41.850  -8.911   9.992  1.00  0.00     0.037 A 
HETATM   13  C   UNL     1      42.195  -9.436   8.743  1.00  0.00     0.061 A 
HETATM   14  C   UNL     1      43.497  -9.856   8.583  1.00  0.00     0.065 A 
HETATM   15  C   UNL     1      44.439  -9.783   9.607  1.00  0.00     0.063 A 
HETATM   16  N   UNL     1      44.132 -10.378   7.460  1.00  0.00    -0.306 N 
HETATM   17  N   UNL     1      45.648 -10.265   9.117  1.00  0.00    -0.307 N 
HETATM   18  C   UNL     1      44.131  -9.289  10.849  1.00  0.00     0.034 A 
HETATM   19  C   UNL     1      45.474 -10.634   7.775  1.00  0.00     0.325 A 
HETATM   20  H   UNL     1      46.523 -10.333   9.608  1.00  0.00     0.170 HD
HETATM   21  O   UNL     1      46.327 -11.083   7.030  1.00  0.00    -0.247 OA
HETATM   22  C   UNL     1      42.817  -8.844  11.032  1.00  0.00     0.032 A 
HETATM   23  H   UNL     1      43.725 -10.542   6.554  1.00  0.00     0.170 HD
ENDBRANCH   9  12
ENDBRANCH   7   8
ENDBRANCH   6   7
ENDBRANCH   3   6
BRANCH   2  24
HETATM   24  C   UNL     1      40.712  -6.692  13.718  1.00  0.00     0.094 C 
HETATM   25  C   UNL     1      41.951  -6.045  14.358  1.00  0.00     0.026 C 
HETATM   26  C   UNL     1      42.971  -7.171  14.367  1.00  0.00     0.002 C 
HETATM   27  C   UNL     1      42.142  -8.386  14.755  1.00  0.00     0.002 C 
HETATM   28  C   UNL     1      40.794  -8.189  14.059  1.00  0.00     0.026 C 
ENDBRANCH   2  24
BRANCH   1  29
HETATM   29  C   UNL     1      39.600  -5.889  16.564  1.00  0.00     0.012 A 
HETATM   30  C   UNL     1      40.083  -4.724  17.168  1.00  0.00     0.016 A 
HETATM   31  C   UNL     1      40.651  -4.759  18.449  1.00  0.00     0.009 A 
HETATM   32  C   UNL     1      40.738  -5.956  19.178  1.00  0.00    -0.051 A 
HETATM   33  C   UNL     1      40.261  -7.123  18.552  1.00  0.00     0.009 A 
HETATM   34  C   UNL     1      39.693  -7.089  17.273  1.00  0.00     0.016 A 
BRANCH  32  35
HETATM   35  C   UNL     1      41.312  -6.020  20.603  1.00  0.00    -0.024 C 
HETATM   36  C   UNL     1      40.951  -4.796  21.475  1.00  0.00     0.019 C 
HETATM   37  C   UNL     1      42.850  -6.102  20.524  1.00  0.00     0.019 C 
HETATM   38  C   UNL     1      40.775  -7.267  21.345  1.00  0.00     0.019 C 
ENDBRANCH  32  35
ENDBRANCH   1  29
TORSDOF 7
ENDMDL
