MODEL 1
REMARK VINA RESULT:      -9.6      0.000      0.000
REMARK  5 active torsions:
REMARK  status: ('A' for Active; 'I' for Inactive)
REMARK    1  A    between atoms: C_6  and  N_7 
REMARK       I    between atoms: N_7  and  C_8 
REMARK    2  A    between atoms: C_8  and  C_9 
REMARK    3  A    between atoms: C_9  and  C_10 
REMARK    4  A    between atoms: C_12  and  N_13 
REMARK       I    between atoms: N_13  and  C_14 
REMARK       I    between atoms: C_14  and  N_15 
REMARK    5  A    between atoms: N_15  and  C_16 
ROOT
HETATM    1  C   UNL     1      43.504 -13.318   6.776  1.00  0.00     0.052 A 
HETATM    2  N   UNL     1      44.365 -12.503   7.511  1.00  0.00    -0.228 NA
HETATM    3  C   UNL     1      44.767 -11.506   6.758  1.00  0.00     0.174 A 
HETATM    4  S   UNL     1      44.170 -11.453   5.167  1.00  0.00    -0.062 SA
HETATM    5  C   UNL     1      43.292 -12.891   5.474  1.00  0.00     0.081 A 
ENDROOT
BRANCH   1   6
HETATM    6  C   UNL     1      42.905 -14.553   7.377  1.00  0.00     0.163 C 
BRANCH   6   7
HETATM    7  C   UNL     1      42.634 -15.742   6.465  1.00  0.00     0.227 C 
HETATM    8  N   UNL     1      43.653 -16.105   5.608  1.00  0.00    -0.327 N 
HETATM    9  H   UNL     1      44.420 -15.441   5.527  1.00  0.00     0.169 HD
HETATM   10  O   UNL     1      41.565 -16.342   6.587  1.00  0.00    -0.273 OA
BRANCH   8  11
HETATM   11  C   UNL     1      43.682 -17.194   4.712  1.00  0.00     0.036 A 
HETATM   12  C   UNL     1      43.973 -18.506   5.083  1.00  0.00     0.053 A 
HETATM   13  C   UNL     1      43.941 -19.537   4.134  1.00  0.00     0.042 A 
HETATM   14  C   UNL     1      43.615 -19.275   2.796  1.00  0.00    -0.040 A 
HETATM   15 CL   UNL     1      44.308 -21.140   4.671  1.00  0.00    -0.084 Cl
HETATM   16  C   UNL     1      43.550 -20.365   1.764  1.00  0.00     0.050 C 
HETATM   17  C   UNL     1      43.348 -17.952   2.425  1.00  0.00     0.011 A 
HETATM   18  C   UNL     1      43.390 -16.924   3.371  1.00  0.00     0.030 A 
ENDBRANCH   8  11
ENDBRANCH   6   7
ENDBRANCH   1   6
BRANCH   3  19
HETATM   19  N   UNL     1      45.598 -10.479   7.086  1.00  0.00    -0.287 N 
HETATM   20  C   UNL     1      45.390  -9.529   8.044  1.00  0.00     0.326 C 
HETATM   21  N   UNL     1      44.299  -9.691   8.853  1.00  0.00    -0.309 N 
HETATM   22  O   UNL     1      46.205  -8.610   8.108  1.00  0.00    -0.247 OA
HETATM   23  H   UNL     1      43.825 -10.585   8.767  1.00  0.00     0.170 HD
HETATM   24  H   UNL     1      46.435 -10.356   6.536  1.00  0.00     0.172 HD
BRANCH  21  25
HETATM   25  C   UNL     1      43.819  -8.811   9.845  1.00  0.00     0.036 A 
HETATM   26  C   UNL     1      43.174  -7.603   9.564  1.00  0.00     0.032 A 
HETATM   27  C   UNL     1      42.685  -6.804  10.603  1.00  0.00     0.044 A 
HETATM   28  C   UNL     1      42.843  -7.215  11.920  1.00  0.00     0.116 A 
HETATM   29  F   UNL     1      42.364  -6.453  12.912  1.00  0.00    -0.206 F 
HETATM   30  C   UNL     1      43.484  -8.409  12.220  1.00  0.00     0.044 A 
HETATM   31  C   UNL     1      43.973  -9.206  11.182  1.00  0.00     0.032 A 
ENDBRANCH  21  25
ENDBRANCH   3  19
TORSDOF 5
ENDMDL
MODEL 2
REMARK VINA RESULT:      -9.6      4.720     10.617
REMARK  5 active torsions:
REMARK  status: ('A' for Active; 'I' for Inactive)
REMARK    1  A    between atoms: C_6  and  N_7 
REMARK       I    between atoms: N_7  and  C_8 
REMARK    2  A    between atoms: C_8  and  C_9 
REMARK    3  A    between atoms: C_9  and  C_10 
REMARK    4  A    between atoms: C_12  and  N_13 
REMARK       I    between atoms: N_13  and  C_14 
REMARK       I    between atoms: C_14  and  N_15 
REMARK    5  A    between atoms: N_15  and  C_16 
ROOT
HETATM    1  C   UNL     1      44.229 -11.915   5.778  1.00  0.00     0.052 A 
HETATM    2  N   UNL     1      43.626 -13.053   6.310  1.00  0.00    -0.228 NA
HETATM    3  C   UNL     1      42.515 -13.303   5.657  1.00  0.00     0.174 A 
HETATM    4  S   UNL     1      42.112 -12.240   4.392  1.00  0.00    -0.062 SA
HETATM    5  C   UNL     1      43.532 -11.342   4.726  1.00  0.00     0.081 A 
ENDROOT
BRANCH   1   6
HETATM    6  C   UNL     1      45.508 -11.378   6.347  1.00  0.00     0.163 C 
BRANCH   6   7
HETATM    7  C   UNL     1      45.429 -10.426   7.532  1.00  0.00     0.227 C 
HETATM    8  N   UNL     1      44.237 -10.409   8.228  1.00  0.00    -0.327 N 
HETATM    9  H   UNL     1      43.459 -10.891   7.785  1.00  0.00     0.169 HD
HETATM   10  O   UNL     1      46.435  -9.783   7.836  1.00  0.00    -0.273 OA
BRANCH   8  11
HETATM   11  C   UNL     1      43.925  -9.670   9.389  1.00  0.00     0.036 A 
HETATM   12  C   UNL     1      43.541  -8.330   9.386  1.00  0.00     0.053 A 
HETATM   13  C   UNL     1      43.209  -7.683  10.584  1.00  0.00     0.042 A 
HETATM   14  C   UNL     1      43.252  -8.365  11.808  1.00  0.00    -0.040 A 
HETATM   15 CL   UNL     1      42.738  -6.020  10.500  1.00  0.00    -0.084 Cl
HETATM   16  C   UNL     1      42.878  -7.701  13.104  1.00  0.00     0.050 C 
HETATM   17  C   UNL     1      43.661  -9.704  11.808  1.00  0.00     0.011 A 
HETATM   18  C   UNL     1      44.001 -10.345  10.612  1.00  0.00     0.030 A 
ENDBRANCH   8  11
ENDBRANCH   6   7
ENDBRANCH   1   6
BRANCH   3  19
HETATM   19  N   UNL     1      41.634 -14.323   5.843  1.00  0.00    -0.287 N 
HETATM   20  C   UNL     1      41.758 -15.606   5.395  1.00  0.00     0.326 C 
HETATM   21  N   UNL     1      42.947 -15.949   4.811  1.00  0.00    -0.309 N 
HETATM   22  O   UNL     1      40.795 -16.353   5.561  1.00  0.00    -0.247 OA
HETATM   23  H   UNL     1      43.686 -15.259   4.898  1.00  0.00     0.170 HD
HETATM   24  H   UNL     1      40.763 -14.115   6.309  1.00  0.00     0.172 HD
BRANCH  21  25
HETATM   25  C   UNL     1      43.287 -17.169   4.192  1.00  0.00     0.036 A 
HETATM   26  C   UNL     1      44.014 -18.183   4.823  1.00  0.00     0.032 A 
HETATM   27  C   UNL     1      44.273 -19.386   4.157  1.00  0.00     0.044 A 
HETATM   28  C   UNL     1      43.807 -19.571   2.863  1.00  0.00     0.116 A 
HETATM   29  F   UNL     1      44.049 -20.728   2.233  1.00  0.00    -0.206 F 
HETATM   30  C   UNL     1      43.088 -18.574   2.217  1.00  0.00     0.044 A 
HETATM   31  C   UNL     1      42.830 -17.373   2.882  1.00  0.00     0.032 A 
ENDBRANCH  21  25
ENDBRANCH   3  19
TORSDOF 5
ENDMDL
MODEL 3
REMARK VINA RESULT:      -9.3      5.559      8.890
REMARK  5 active torsions:
REMARK  status: ('A' for Active; 'I' for Inactive)
REMARK    1  A    between atoms: C_6  and  N_7 
REMARK       I    between atoms: N_7  and  C_8 
REMARK    2  A    between atoms: C_8  and  C_9 
REMARK    3  A    between atoms: C_9  and  C_10 
REMARK    4  A    between atoms: C_12  and  N_13 
REMARK       I    between atoms: N_13  and  C_14 
REMARK       I    between atoms: C_14  and  N_15 
REMARK    5  A    between atoms: N_15  and  C_16 
ROOT
HETATM    1  C   UNL     1      42.593 -11.420   5.124  1.00  0.00     0.052 A 
HETATM    2  N   UNL     1      42.043 -12.653   5.467  1.00  0.00    -0.228 NA
HETATM    3  C   UNL     1      42.798 -13.229   6.374  1.00  0.00     0.174 A 
HETATM    4  S   UNL     1      44.179 -12.375   6.880  1.00  0.00    -0.062 SA
HETATM    5  C   UNL     1      43.765 -11.112   5.798  1.00  0.00     0.081 A 
ENDROOT
BRANCH   1   6
HETATM    6  C   UNL     1      41.951 -10.547   4.088  1.00  0.00     0.163 C 
BRANCH   6   7
HETATM    7  C   UNL     1      41.702 -11.131   2.704  1.00  0.00     0.227 C 
HETATM    8  N   UNL     1      40.722 -12.098   2.612  1.00  0.00    -0.327 N 
HETATM    9  H   UNL     1      40.381 -12.467   3.496  1.00  0.00     0.169 HD
HETATM   10  O   UNL     1      42.333 -10.670   1.751  1.00  0.00    -0.273 OA
BRANCH   8  11
HETATM   11  C   UNL     1      40.257 -12.750   1.450  1.00  0.00     0.036 A 
HETATM   12  C   UNL     1      39.492 -12.136   0.460  1.00  0.00     0.053 A 
HETATM   13  C   UNL     1      39.106 -12.848  -0.683  1.00  0.00     0.042 A 
HETATM   14  C   UNL     1      39.480 -14.188  -0.859  1.00  0.00    -0.040 A 
HETATM   15 CL   UNL     1      38.160 -12.018  -1.871  1.00  0.00    -0.084 Cl
HETATM   16  C   UNL     1      39.099 -14.967  -2.086  1.00  0.00     0.050 C 
HETATM   17  C   UNL     1      40.228 -14.806   0.150  1.00  0.00     0.011 A 
HETATM   18  C   UNL     1      40.604 -14.096   1.295  1.00  0.00     0.030 A 
ENDBRANCH   8  11
ENDBRANCH   6   7
ENDBRANCH   1   6
BRANCH   3  19
HETATM   19  N   UNL     1      42.617 -14.429   6.989  1.00  0.00    -0.287 N 
HETATM   20  C   UNL     1      42.760 -15.667   6.432  1.00  0.00     0.326 C 
HETATM   21  N   UNL     1      43.263 -15.721   5.160  1.00  0.00    -0.309 N 
HETATM   22  O   UNL     1      42.434 -16.632   7.120  1.00  0.00    -0.247 OA
HETATM   23  H   UNL     1      43.626 -14.845   4.800  1.00  0.00     0.170 HD
HETATM   24  H   UNL     1      42.288 -14.425   7.943  1.00  0.00     0.172 HD
BRANCH  21  25
HETATM   25  C   UNL     1      43.416 -16.857   4.339  1.00  0.00     0.036 A 
HETATM   26  C   UNL     1      44.212 -17.956   4.675  1.00  0.00     0.032 A 
HETATM   27  C   UNL     1      44.279 -19.067   3.827  1.00  0.00     0.044 A 
HETATM   28  C   UNL     1      43.550 -19.076   2.645  1.00  0.00     0.116 A 
HETATM   29  F   UNL     1      43.608 -20.145   1.841  1.00  0.00    -0.206 F 
HETATM   30  C   UNL     1      42.758 -17.992   2.291  1.00  0.00     0.044 A 
HETATM   31  C   UNL     1      42.692 -16.883   3.138  1.00  0.00     0.032 A 
ENDBRANCH  21  25
ENDBRANCH   3  19
TORSDOF 5
ENDMDL
MODEL 4
REMARK VINA RESULT:      -9.0      5.195      7.686
REMARK  5 active torsions:
REMARK  status: ('A' for Active; 'I' for Inactive)
REMARK    1  A    between atoms: C_6  and  N_7 
REMARK       I    between atoms: N_7  and  C_8 
REMARK    2  A    between atoms: C_8  and  C_9 
REMARK    3  A    between atoms: C_9  and  C_10 
REMARK    4  A    between atoms: C_12  and  N_13 
REMARK       I    between atoms: N_13  and  C_14 
REMARK       I    between atoms: C_14  and  N_15 
REMARK    5  A    between atoms: N_15  and  C_16 
ROOT
HETATM    1  C   UNL     1      43.012 -12.890   5.986  1.00  0.00     0.052 A 
HETATM    2  N   UNL     1      41.660 -12.950   5.653  1.00  0.00    -0.228 NA
HETATM    3  C   UNL     1      41.355 -11.933   4.882  1.00  0.00     0.174 A 
HETATM    4  S   UNL     1      42.614 -10.855   4.498  1.00  0.00    -0.062 SA
HETATM    5  C   UNL     1      43.683 -11.805   5.442  1.00  0.00     0.081 A 
ENDROOT
BRANCH   1   6
HETATM    6  C   UNL     1      43.636 -13.917   6.881  1.00  0.00     0.163 C 
BRANCH   6   7
HETATM    7  C   UNL     1      43.882 -15.311   6.319  1.00  0.00     0.227 C 
HETATM    8  N   UNL     1      43.284 -15.600   5.109  1.00  0.00    -0.327 N 
HETATM    9  H   UNL     1      42.588 -14.932   4.789  1.00  0.00     0.169 HD
HETATM   10  O   UNL     1      44.638 -16.065   6.933  1.00  0.00    -0.273 OA
BRANCH   8  11
HETATM   11  C   UNL     1      43.399 -16.784   4.349  1.00  0.00     0.036 A 
HETATM   12  C   UNL     1      43.806 -18.012   4.868  1.00  0.00     0.053 A 
HETATM   13  C   UNL     1      43.853 -19.148   4.050  1.00  0.00     0.042 A 
HETATM   14  C   UNL     1      43.493 -19.078   2.697  1.00  0.00    -0.040 A 
HETATM   15 CL   UNL     1      44.362 -20.639   4.766  1.00  0.00    -0.084 Cl
HETATM   16  C   UNL     1      43.513 -20.287   1.803  1.00  0.00     0.050 C 
HETATM   17  C   UNL     1      43.109 -17.837   2.175  1.00  0.00     0.011 A 
HETATM   18  C   UNL     1      43.072 -16.702   2.992  1.00  0.00     0.030 A 
ENDBRANCH   8  11
ENDBRANCH   6   7
ENDBRANCH   1   6
BRANCH   3  19
HETATM   19  N   UNL     1      40.154 -11.622   4.323  1.00  0.00    -0.287 N 
HETATM   20  C   UNL     1      39.739 -11.913   3.056  1.00  0.00     0.326 C 
HETATM   21  N   UNL     1      40.556 -12.713   2.303  1.00  0.00    -0.309 N 
HETATM   22  O   UNL     1      38.662 -11.442   2.696  1.00  0.00    -0.247 OA
HETATM   23  H   UNL     1      41.326 -13.142   2.806  1.00  0.00     0.170 HD
HETATM   24  H   UNL     1      39.509 -11.069   4.868  1.00  0.00     0.172 HD
BRANCH  21  25
HETATM   25  C   UNL     1      40.401 -13.078   0.950  1.00  0.00     0.036 A 
HETATM   26  C   UNL     1      40.708 -12.235  -0.122  1.00  0.00     0.032 A 
HETATM   27  C   UNL     1      40.570 -12.686  -1.439  1.00  0.00     0.044 A 
HETATM   28  C   UNL     1      40.123 -13.979  -1.681  1.00  0.00     0.116 A 
HETATM   29  F   UNL     1      40.002 -14.410  -2.943  1.00  0.00    -0.206 F 
HETATM   30  C   UNL     1      39.808 -14.829  -0.631  1.00  0.00     0.044 A 
HETATM   31  C   UNL     1      39.946 -14.378   0.685  1.00  0.00     0.032 A 
ENDBRANCH  21  25
ENDBRANCH   3  19
TORSDOF 5
ENDMDL
MODEL 5
REMARK VINA RESULT:      -8.9      4.612     10.484
REMARK  5 active torsions:
REMARK  status: ('A' for Active; 'I' for Inactive)
REMARK    1  A    between atoms: C_6  and  N_7 
REMARK       I    between atoms: N_7  and  C_8 
REMARK    2  A    between atoms: C_8  and  C_9 
REMARK    3  A    between atoms: C_9  and  C_10 
REMARK    4  A    between atoms: C_12  and  N_13 
REMARK       I    between atoms: N_13  and  C_14 
REMARK       I    between atoms: C_14  and  N_15 
REMARK    5  A    between atoms: N_15  and  C_16 
ROOT
HETATM    1  C   UNL     1      43.028 -11.563   6.182  1.00  0.00     0.052 A 
HETATM    2  N   UNL     1      42.577 -12.797   6.648  1.00  0.00    -0.228 NA
HETATM    3  C   UNL     1      41.528 -13.168   5.951  1.00  0.00     0.174 A 
HETATM    4  S   UNL     1      41.012 -12.115   4.719  1.00  0.00    -0.062 SA
HETATM    5  C   UNL     1      42.284 -11.045   5.133  1.00  0.00     0.081 A 
ENDROOT
BRANCH   1   6
HETATM    6  C   UNL     1      44.205 -10.881   6.811  1.00  0.00     0.163 C 
BRANCH   6   7
HETATM    7  C   UNL     1      44.173 -10.620   8.311  1.00  0.00     0.227 C 
HETATM    8  N   UNL     1      43.128  -9.848   8.778  1.00  0.00    -0.327 N 
HETATM    9  H   UNL     1      42.579  -9.370   8.067  1.00  0.00     0.169 HD
HETATM   10  O   UNL     1      45.028 -11.155   9.018  1.00  0.00    -0.273 OA
BRANCH   8  11
HETATM   11  C   UNL     1      42.834  -9.509  10.115  1.00  0.00     0.036 A 
HETATM   12  C   UNL     1      41.671  -9.892  10.783  1.00  0.00     0.053 A 
HETATM   13  C   UNL     1      41.477  -9.546  12.127  1.00  0.00     0.042 A 
HETATM   14  C   UNL     1      42.443  -8.813  12.829  1.00  0.00    -0.040 A 
HETATM   15 CL   UNL     1      40.012 -10.060  12.889  1.00  0.00    -0.084 Cl
HETATM   16  C   UNL     1      42.270  -8.449  14.278  1.00  0.00     0.050 C 
HETATM   17  C   UNL     1      43.597  -8.410  12.147  1.00  0.00     0.011 A 
HETATM   18  C   UNL     1      43.785  -8.748  10.803  1.00  0.00     0.030 A 
ENDBRANCH   8  11
ENDBRANCH   6   7
ENDBRANCH   1   6
BRANCH   3  19
HETATM   19  N   UNL     1      40.793 -14.307   6.067  1.00  0.00    -0.287 N 
HETATM   20  C   UNL     1      41.067 -15.521   5.507  1.00  0.00     0.326 C 
HETATM   21  N   UNL     1      42.269 -15.653   4.867  1.00  0.00    -0.309 N 
HETATM   22  O   UNL     1      40.216 -16.400   5.629  1.00  0.00    -0.247 OA
HETATM   23  H   UNL     1      42.916 -14.882   4.996  1.00  0.00     0.170 HD
HETATM   24  H   UNL     1      39.920 -14.256   6.571  1.00  0.00     0.172 HD
BRANCH  21  25
HETATM   25  C   UNL     1      42.743 -16.762   4.136  1.00  0.00     0.036 A 
HETATM   26  C   UNL     1      42.325 -17.072   2.838  1.00  0.00     0.032 A 
HETATM   27  C   UNL     1      42.875 -18.165   2.160  1.00  0.00     0.044 A 
HETATM   28  C   UNL     1      43.842 -18.946   2.781  1.00  0.00     0.116 A 
HETATM   29  F   UNL     1      44.374 -19.984   2.125  1.00  0.00    -0.206 F 
HETATM   30  C   UNL     1      44.266 -18.657   4.071  1.00  0.00     0.044 A 
HETATM   31  C   UNL     1      43.716 -17.566   4.748  1.00  0.00     0.032 A 
ENDBRANCH  21  25
ENDBRANCH   3  19
TORSDOF 5
ENDMDL
MODEL 6
REMARK VINA RESULT:      -8.7      6.464      8.988
REMARK  5 active torsions:
REMARK  status: ('A' for Active; 'I' for Inactive)
REMARK    1  A    between atoms: C_6  and  N_7 
REMARK       I    between atoms: N_7  and  C_8 
REMARK    2  A    between atoms: C_8  and  C_9 
REMARK    3  A    between atoms: C_9  and  C_10 
REMARK    4  A    between atoms: C_12  and  N_13 
REMARK       I    between atoms: N_13  and  C_14 
REMARK       I    between atoms: C_14  and  N_15 
REMARK    5  A    between atoms: N_15  and  C_16 
ROOT
HETATM    1  C   UNL     1      40.809 -11.814   4.316  1.00  0.00     0.052 A 
HETATM    2  N   UNL     1      41.043 -11.391   3.009  1.00  0.00    -0.228 NA
HETATM    3  C   UNL     1      40.124 -10.519   2.663  1.00  0.00     0.174 A 
HETATM    4  S   UNL     1      38.947 -10.138   3.830  1.00  0.00    -0.062 SA
HETATM    5  C   UNL     1      39.701 -11.232   4.912  1.00  0.00     0.081 A 
ENDROOT
BRANCH   1   6
HETATM    6  C   UNL     1      41.693 -12.832   4.970  1.00  0.00     0.163 C 
BRANCH   6   7
HETATM    7  C   UNL     1      41.670 -14.258   4.437  1.00  0.00     0.227 C 
HETATM    8  N   UNL     1      42.896 -14.852   4.218  1.00  0.00    -0.327 N 
HETATM    9  H   UNL     1      43.701 -14.232   4.255  1.00  0.00     0.169 HD
HETATM   10  O   UNL     1      40.579 -14.813   4.295  1.00  0.00    -0.273 OA
BRANCH   8  11
HETATM   11  C   UNL     1      43.153 -16.172   3.789  1.00  0.00     0.036 A 
HETATM   12  C   UNL     1      43.547 -17.208   4.635  1.00  0.00     0.053 A 
HETATM   13  C   UNL     1      43.742 -18.501   4.131  1.00  0.00     0.042 A 
HETATM   14  C   UNL     1      43.546 -18.783   2.772  1.00  0.00    -0.040 A 
HETATM   15 CL   UNL     1      44.225 -19.736   5.242  1.00  0.00    -0.084 Cl
HETATM   16  C   UNL     1      43.726 -20.165   2.210  1.00  0.00     0.050 C 
HETATM   17  C   UNL     1      43.175 -17.733   1.923  1.00  0.00     0.011 A 
HETATM   18  C   UNL     1      42.989 -16.441   2.427  1.00  0.00     0.030 A 
ENDBRANCH   8  11
ENDBRANCH   6   7
ENDBRANCH   1   6
BRANCH   3  19
HETATM   19  N   UNL     1      39.990  -9.852   1.485  1.00  0.00    -0.287 N 
HETATM   20  C   UNL     1      39.709 -10.392   0.263  1.00  0.00     0.326 C 
HETATM   21  N   UNL     1      39.399 -11.725   0.230  1.00  0.00    -0.309 N 
HETATM   22  O   UNL     1      39.748  -9.637  -0.706  1.00  0.00    -0.247 OA
HETATM   23  H   UNL     1      39.258 -12.160   1.136  1.00  0.00     0.170 HD
HETATM   24  H   UNL     1      40.170  -8.859   1.482  1.00  0.00     0.172 HD
BRANCH  21  25
HETATM   25  C   UNL     1      39.164 -12.530  -0.903  1.00  0.00     0.036 A 
HETATM   26  C   UNL     1      40.137 -13.341  -1.495  1.00  0.00     0.032 A 
HETATM   27  C   UNL     1      39.815 -14.147  -2.592  1.00  0.00     0.044 A 
HETATM   28  C   UNL     1      38.521 -14.139  -3.095  1.00  0.00     0.116 A 
HETATM   29  F   UNL     1      38.214 -14.921  -4.139  1.00  0.00    -0.206 F 
HETATM   30  C   UNL     1      37.542 -13.337  -2.526  1.00  0.00     0.044 A 
HETATM   31  C   UNL     1      37.864 -12.532  -1.431  1.00  0.00     0.032 A 
ENDBRANCH  21  25
ENDBRANCH   3  19
TORSDOF 5
ENDMDL
MODEL 7
REMARK VINA RESULT:      -8.4      2.884      3.242
REMARK  5 active torsions:
REMARK  status: ('A' for Active; 'I' for Inactive)
REMARK    1  A    between atoms: C_6  and  N_7 
REMARK       I    between atoms: N_7  and  C_8 
REMARK    2  A    between atoms: C_8  and  C_9 
REMARK    3  A    between atoms: C_9  and  C_10 
REMARK    4  A    between atoms: C_12  and  N_13 
REMARK       I    between atoms: N_13  and  C_14 
REMARK       I    between atoms: C_14  and  N_15 
REMARK    5  A    between atoms: N_15  and  C_16 
ROOT
HETATM    1  C   UNL     1      41.233 -11.747   5.228  1.00  0.00     0.052 A 
HETATM    2  N   UNL     1      40.827 -11.491   6.537  1.00  0.00    -0.228 NA
HETATM    3  C   UNL     1      39.776 -10.703   6.520  1.00  0.00     0.174 A 
HETATM    4  S   UNL     1      39.201 -10.222   4.993  1.00  0.00    -0.062 SA
HETATM    5  C   UNL     1      40.457 -11.128   4.261  1.00  0.00     0.081 A 
ENDROOT
BRANCH   1   6
HETATM    6  C   UNL     1      42.429 -12.604   4.942  1.00  0.00     0.163 C 
BRANCH   6   7
HETATM    7  C   UNL     1      42.200 -14.059   4.558  1.00  0.00     0.227 C 
HETATM    8  N   UNL     1      43.275 -14.725   4.003  1.00  0.00    -0.327 N 
HETATM    9  H   UNL     1      44.062 -14.142   3.730  1.00  0.00     0.169 HD
HETATM   10  O   UNL     1      41.110 -14.570   4.819  1.00  0.00    -0.273 OA
BRANCH   8  11
HETATM   11  C   UNL     1      43.347 -16.080   3.619  1.00  0.00     0.036 A 
HETATM   12  C   UNL     1      43.733 -17.116   4.469  1.00  0.00     0.053 A 
HETATM   13  C   UNL     1      43.738 -18.442   4.016  1.00  0.00     0.042 A 
HETATM   14  C   UNL     1      43.356 -18.758   2.705  1.00  0.00    -0.040 A 
HETATM   15 CL   UNL     1      44.224 -19.674   5.130  1.00  0.00    -0.084 Cl
HETATM   16  C   UNL     1      43.331 -20.174   2.201  1.00  0.00     0.050 C 
HETATM   17  C   UNL     1      42.994 -17.711   1.849  1.00  0.00     0.011 A 
HETATM   18  C   UNL     1      42.998 -16.388   2.300  1.00  0.00     0.030 A 
ENDBRANCH   8  11
ENDBRANCH   6   7
ENDBRANCH   1   6
BRANCH   3  19
HETATM   19  N   UNL     1      39.060 -10.223   7.572  1.00  0.00    -0.287 N 
HETATM   20  C   UNL     1      39.555  -9.670   8.718  1.00  0.00     0.326 C 
HETATM   21  N   UNL     1      40.905  -9.451   8.769  1.00  0.00    -0.309 N 
HETATM   22  O   UNL     1      38.749  -9.405   9.607  1.00  0.00    -0.247 OA
HETATM   23  H   UNL     1      41.399  -9.581   7.891  1.00  0.00     0.170 HD
HETATM   24  H   UNL     1      38.057 -10.330   7.548  1.00  0.00     0.172 HD
BRANCH  21  25
HETATM   25  C   UNL     1      41.665  -8.984   9.860  1.00  0.00     0.036 A 
HETATM   26  C   UNL     1      41.716  -7.643  10.254  1.00  0.00     0.032 A 
HETATM   27  C   UNL     1      42.458  -7.263  11.377  1.00  0.00     0.044 A 
HETATM   28  C   UNL     1      43.148  -8.224  12.104  1.00  0.00     0.116 A 
HETATM   29  F   UNL     1      43.849  -7.858  13.185  1.00  0.00    -0.206 F 
HETATM   30  C   UNL     1      43.115  -9.559  11.727  1.00  0.00     0.044 A 
HETATM   31  C   UNL     1      42.374  -9.938  10.605  1.00  0.00     0.032 A 
ENDBRANCH  21  25
ENDBRANCH   3  19
TORSDOF 5
ENDMDL
MODEL 8
REMARK VINA RESULT:      -8.4      4.621      6.285
REMARK  5 active torsions:
REMARK  status: ('A' for Active; 'I' for Inactive)
REMARK    1  A    between atoms: C_6  and  N_7 
REMARK       I    between atoms: N_7  and  C_8 
REMARK    2  A    between atoms: C_8  and  C_9 
REMARK    3  A    between atoms: C_9  and  C_10 
REMARK    4  A    between atoms: C_12  and  N_13 
REMARK       I    between atoms: N_13  and  C_14 
REMARK       I    between atoms: C_14  and  N_15 
REMARK    5  A    between atoms: N_15  and  C_16 
ROOT
HETATM    1  C   UNL     1      39.989 -13.438  -0.292  1.00  0.00     0.052 A 
HETATM    2  N   UNL     1      40.187 -12.597   0.802  1.00  0.00    -0.228 NA
HETATM    3  C   UNL     1      40.265 -11.354   0.386  1.00  0.00     0.174 A 
HETATM    4  S   UNL     1      40.108 -11.091  -1.287  1.00  0.00    -0.062 SA
HETATM    5  C   UNL     1      39.926 -12.780  -1.510  1.00  0.00     0.081 A 
ENDROOT
BRANCH   1   6
HETATM    6  C   UNL     1      39.885 -14.923  -0.118  1.00  0.00     0.163 C 
BRANCH   6   7
HETATM    7  C   UNL     1      40.350 -15.531   1.199  1.00  0.00     0.227 C 
HETATM    8  N   UNL     1      41.686 -15.380   1.508  1.00  0.00    -0.327 N 
HETATM    9  H   UNL     1      42.279 -15.042   0.754  1.00  0.00     0.169 HD
HETATM   10  O   UNL     1      39.509 -16.057   1.930  1.00  0.00    -0.273 OA
BRANCH   8  11
HETATM   11  C   UNL     1      42.354 -15.792   2.681  1.00  0.00     0.036 A 
HETATM   12  C   UNL     1      43.001 -17.018   2.825  1.00  0.00     0.053 A 
HETATM   13  C   UNL     1      43.676 -17.329   4.013  1.00  0.00     0.042 A 
HETATM   14  C   UNL     1      43.717 -16.420   5.079  1.00  0.00    -0.040 A 
HETATM   15 CL   UNL     1      44.460 -18.868   4.116  1.00  0.00    -0.084 Cl
HETATM   16  C   UNL     1      44.453 -16.720   6.355  1.00  0.00     0.050 C 
HETATM   17  C   UNL     1      43.044 -15.201   4.938  1.00  0.00     0.011 A 
HETATM   18  C   UNL     1      42.364 -14.895   3.754  1.00  0.00     0.030 A 
ENDBRANCH   8  11
ENDBRANCH   6   7
ENDBRANCH   1   6
BRANCH   3  19
HETATM   19  N   UNL     1      40.439 -10.223   1.123  1.00  0.00    -0.287 N 
HETATM   20  C   UNL     1      41.135 -10.104   2.291  1.00  0.00     0.326 C 
HETATM   21  N   UNL     1      41.845 -11.199   2.706  1.00  0.00    -0.309 N 
HETATM   22  O   UNL     1      41.076  -9.022   2.872  1.00  0.00    -0.247 OA
HETATM   23  H   UNL     1      41.911 -11.953   2.030  1.00  0.00     0.170 HD
HETATM   24  H   UNL     1      39.964  -9.386   0.822  1.00  0.00     0.172 HD
BRANCH  21  25
HETATM   25  C   UNL     1      42.561 -11.360   3.909  1.00  0.00     0.036 A 
HETATM   26  C   UNL     1      43.953 -11.468   3.976  1.00  0.00     0.032 A 
HETATM   27  C   UNL     1      44.596 -11.581   5.214  1.00  0.00     0.044 A 
HETATM   28  C   UNL     1      43.845 -11.586   6.381  1.00  0.00     0.116 A 
HETATM   29  F   UNL     1      44.465 -11.683   7.565  1.00  0.00    -0.206 F 
HETATM   30  C   UNL     1      42.461 -11.484   6.337  1.00  0.00     0.044 A 
HETATM   31  C   UNL     1      41.820 -11.373   5.100  1.00  0.00     0.032 A 
ENDBRANCH  21  25
ENDBRANCH   3  19
TORSDOF 5
ENDMDL
MODEL 9
REMARK VINA RESULT:      -8.3      4.366      6.618
REMARK  5 active torsions:
REMARK  status: ('A' for Active; 'I' for Inactive)
REMARK    1  A    between atoms: C_6  and  N_7 
REMARK       I    between atoms: N_7  and  C_8 
REMARK    2  A    between atoms: C_8  and  C_9 
REMARK    3  A    between atoms: C_9  and  C_10 
REMARK    4  A    between atoms: C_12  and  N_13 
REMARK       I    between atoms: N_13  and  C_14 
REMARK       I    between atoms: C_14  and  N_15 
REMARK    5  A    between atoms: N_15  and  C_16 
ROOT
HETATM    1  C   UNL     1      44.033  -9.623   9.942  1.00  0.00     0.052 A 
HETATM    2  N   UNL     1      42.854  -9.658   9.200  1.00  0.00    -0.228 NA
HETATM    3  C   UNL     1      41.893  -9.079   9.882  1.00  0.00     0.174 A 
HETATM    4  S   UNL     1      42.302  -8.460  11.412  1.00  0.00    -0.062 SA
HETATM    5  C   UNL     1      43.908  -9.008  11.178  1.00  0.00     0.081 A 
ENDROOT
BRANCH   1   6
HETATM    6  C   UNL     1      45.297 -10.235   9.418  1.00  0.00     0.163 C 
BRANCH   6   7
HETATM    7  C   UNL     1      45.273 -10.869   8.033  1.00  0.00     0.227 C 
HETATM    8  N   UNL     1      44.093 -11.477   7.656  1.00  0.00    -0.327 N 
HETATM    9  H   UNL     1      43.408 -11.611   8.396  1.00  0.00     0.169 HD
HETATM   10  O   UNL     1      46.268 -10.749   7.317  1.00  0.00    -0.273 OA
BRANCH   8  11
HETATM   11  C   UNL     1      43.789 -12.079   6.417  1.00  0.00     0.036 A 
HETATM   12  C   UNL     1      43.398 -13.409   6.266  1.00  0.00     0.053 A 
HETATM   13  C   UNL     1      43.075 -13.916   5.001  1.00  0.00     0.042 A 
HETATM   14  C   UNL     1      43.135 -13.102   3.861  1.00  0.00    -0.040 A 
HETATM   15 CL   UNL     1      42.594 -15.574   4.895  1.00  0.00    -0.084 Cl
HETATM   16  C   UNL     1      42.771 -13.615   2.496  1.00  0.00     0.050 C 
HETATM   17  C   UNL     1      43.552 -11.775   4.014  1.00  0.00     0.011 A 
HETATM   18  C   UNL     1      43.883 -11.273   5.277  1.00  0.00     0.030 A 
ENDBRANCH   8  11
ENDBRANCH   6   7
ENDBRANCH   1   6
BRANCH   3  19
HETATM   19  N   UNL     1      40.595  -8.887   9.521  1.00  0.00    -0.287 N 
HETATM   20  C   UNL     1      39.980  -9.349   8.394  1.00  0.00     0.326 C 
HETATM   21  N   UNL     1      40.696 -10.205   7.601  1.00  0.00    -0.309 N 
HETATM   22  O   UNL     1      38.830  -8.966   8.186  1.00  0.00    -0.247 OA
HETATM   23  H   UNL     1      41.567 -10.538   8.001  1.00  0.00     0.170 HD
HETATM   24  H   UNL     1      40.026  -8.295  10.107  1.00  0.00     0.172 HD
BRANCH  21  25
HETATM   25  C   UNL     1      40.324 -10.741   6.351  1.00  0.00     0.036 A 
HETATM   26  C   UNL     1      40.377 -10.025   5.152  1.00  0.00     0.032 A 
HETATM   27  C   UNL     1      40.034 -10.641   3.944  1.00  0.00     0.044 A 
HETATM   28  C   UNL     1      39.639 -11.972   3.938  1.00  0.00     0.116 A 
HETATM   29  F   UNL     1      39.322 -12.562   2.778  1.00  0.00    -0.206 F 
HETATM   30  C   UNL     1      39.575 -12.700   5.119  1.00  0.00     0.044 A 
HETATM   31  C   UNL     1      39.917 -12.083   6.325  1.00  0.00     0.032 A 
ENDBRANCH  21  25
ENDBRANCH   3  19
TORSDOF 5
ENDMDL
MODEL 10
REMARK VINA RESULT:      -8.3      3.280      4.130
REMARK  5 active torsions:
REMARK  status: ('A' for Active; 'I' for Inactive)
REMARK    1  A    between atoms: C_6  and  N_7 
REMARK       I    between atoms: N_7  and  C_8 
REMARK    2  A    between atoms: C_8  and  C_9 
REMARK    3  A    between atoms: C_9  and  C_10 
REMARK    4  A    between atoms: C_12  and  N_13 
REMARK       I    between atoms: N_13  and  C_14 
REMARK       I    between atoms: C_14  and  N_15 
REMARK    5  A    between atoms: N_15  and  C_16 
ROOT
HETATM    1  C   UNL     1      40.909 -12.311   2.891  1.00  0.00     0.052 A 
HETATM    2  N   UNL     1      40.940 -12.062   4.262  1.00  0.00    -0.228 NA
HETATM    3  C   UNL     1      40.016 -11.180   4.564  1.00  0.00     0.174 A 
HETATM    4  S   UNL     1      39.060 -10.597   3.284  1.00  0.00    -0.062 SA
HETATM    5  C   UNL     1      39.944 -11.591   2.204  1.00  0.00     0.081 A 
ENDROOT
BRANCH   1   6
HETATM    6  C   UNL     1      41.874 -13.265   2.255  1.00  0.00     0.163 C 
BRANCH   6   7
HETATM    7  C   UNL     1      41.868 -14.716   2.719  1.00  0.00     0.227 C 
HETATM    8  N   UNL     1      43.101 -15.319   2.866  1.00  0.00    -0.327 N 
HETATM    9  H   UNL     1      43.892 -14.809   2.480  1.00  0.00     0.169 HD
HETATM   10  O   UNL     1      40.788 -15.239   2.993  1.00  0.00    -0.273 OA
BRANCH   8  11
HETATM   11  C   UNL     1      43.376 -16.621   3.335  1.00  0.00     0.036 A 
HETATM   12  C   UNL     1      43.394 -17.757   2.528  1.00  0.00     0.053 A 
HETATM   13  C   UNL     1      43.717 -19.009   3.070  1.00  0.00     0.042 A 
HETATM   14  C   UNL     1      44.030 -19.147   4.429  1.00  0.00    -0.040 A 
HETATM   15 CL   UNL     1      43.724 -20.372   2.005  1.00  0.00    -0.084 Cl
HETATM   16  C   UNL     1      44.402 -20.473   5.030  1.00  0.00     0.050 C 
HETATM   17  C   UNL     1      43.986 -18.007   5.240  1.00  0.00     0.011 A 
HETATM   18  C   UNL     1      43.655 -16.760   4.699  1.00  0.00     0.030 A 
ENDBRANCH   8  11
ENDBRANCH   6   7
ENDBRANCH   1   6
BRANCH   3  19
HETATM   19  N   UNL     1      39.698 -10.671   5.785  1.00  0.00    -0.287 N 
HETATM   20  C   UNL     1      40.566 -10.302   6.772  1.00  0.00     0.326 C 
HETATM   21  N   UNL     1      41.900 -10.318   6.464  1.00  0.00    -0.309 N 
HETATM   22  O   UNL     1      40.080  -9.976   7.853  1.00  0.00    -0.247 OA
HETATM   23  H   UNL     1      42.116 -10.459   5.482  1.00  0.00     0.170 HD
HETATM   24  H   UNL     1      38.721 -10.605   6.029  1.00  0.00     0.172 HD
BRANCH  21  25
HETATM   25  C   UNL     1      42.989 -10.072   7.324  1.00  0.00     0.036 A 
HETATM   26  C   UNL     1      43.918 -11.048   7.698  1.00  0.00     0.032 A 
HETATM   27  C   UNL     1      45.000 -10.716   8.521  1.00  0.00     0.044 A 
HETATM   28  C   UNL     1      45.149  -9.410   8.969  1.00  0.00     0.116 A 
HETATM   29  F   UNL     1      46.192  -9.094   9.747  1.00  0.00    -0.206 F 
HETATM   30  C   UNL     1      44.235  -8.428   8.612  1.00  0.00     0.044 A 
HETATM   31  C   UNL     1      43.155  -8.760   7.791  1.00  0.00     0.032 A 
ENDBRANCH  21  25
ENDBRANCH   3  19
TORSDOF 5
ENDMDL
