MODEL 1
REMARK VINA RESULT:     -10.4      0.000      0.000
REMARK  5 active torsions:
REMARK  status: ('A' for Active; 'I' for Inactive)
REMARK    1  A    between atoms: C_7  and  C_8 
REMARK    2  A    between atoms: C_16  and  C_17 
REMARK    3  A    between atoms: C_19  and  O_20 
REMARK    4  A    between atoms: C_24  and  C_25 
REMARK       I    between atoms: C_25  and  N_26 
REMARK    5  A    between atoms: N_26  and  C_27 
ROOT
HETATM    1  C   UNL     1      40.252 -13.404   6.533  1.00  0.00     0.070 C 
HETATM    2  C   UNL     1      40.776 -13.828   5.184  1.00  0.00     0.037 C 
HETATM    3  N   UNL     1      39.812 -13.992   4.187  1.00  0.00    -0.192 N 
HETATM    4  C   UNL     1      40.138 -14.069   2.880  1.00  0.00     0.726 A 
HETATM    5  N   UNL     1      41.438 -14.286   2.534  1.00  0.00    -0.083 N 
HETATM    6  N   UNL     1      41.623 -14.217   1.203  1.00  0.00    -0.135 NA
HETATM    7  C   UNL     1      40.366 -13.966   0.782  1.00  0.00     0.200 A 
HETATM    8  N   UNL     1      39.428 -13.910   1.796  1.00  0.00    -0.041 NA
HETATM    9  C   UNL     1      42.514 -14.491   3.505  1.00  0.00     0.202 C 
HETATM   10  C   UNL     1      42.090 -14.033   4.898  1.00  0.00     0.062 C 
HETATM   11  H   UNL     1      38.868 -13.681   4.413  1.00  0.00     0.184 HD
ENDROOT
BRANCH  10  12
HETATM   12  C   UNL     1      43.163 -13.590   5.843  1.00  0.00     0.256 C 
HETATM   13  N   UNL     1      43.490 -12.254   5.763  1.00  0.00    -0.323 N 
HETATM   14  H   UNL     1      43.084 -11.699   5.021  1.00  0.00     0.169 HD
HETATM   15  O   UNL     1      43.623 -14.399   6.642  1.00  0.00    -0.267 OA
BRANCH  13  16
HETATM   16  C   UNL     1      44.344 -11.531   6.626  1.00  0.00     0.035 A 
HETATM   17  C   UNL     1      45.703 -11.314   6.385  1.00  0.00     0.029 A 
HETATM   18  C   UNL     1      46.482 -10.605   7.305  1.00  0.00     0.002 A 
HETATM   19  C   UNL     1      45.913 -10.114   8.477  1.00  0.00     0.000 A 
HETATM   20  C   UNL     1      44.560 -10.323   8.727  1.00  0.00     0.002 A 
HETATM   21  C   UNL     1      43.778 -11.022   7.802  1.00  0.00     0.029 A 
ENDBRANCH  13  16
ENDBRANCH  10  12
BRANCH   9  22
HETATM   22  C   UNL     1      42.955 -15.956   3.445  1.00  0.00    -0.025 A 
HETATM   23  C   UNL     1      43.175 -16.663   4.640  1.00  0.00     0.046 A 
HETATM   24  C   UNL     1      43.568 -17.998   4.599  1.00  0.00     0.066 A 
HETATM   25  C   UNL     1      43.747 -18.654   3.387  1.00  0.00     0.036 A 
HETATM   26  C   UNL     1      43.555 -17.960   2.195  1.00  0.00     0.003 A 
HETATM   27  C   UNL     1      43.171 -16.619   2.222  1.00  0.00     0.010 A 
BRANCH  24  28
HETATM   28  O   UNL     1      43.796 -18.707   5.740  1.00  0.00    -0.361 OA
HETATM   29  H   UNL     1      44.439 -19.411   5.550  1.00  0.00     0.217 HD
ENDBRANCH  24  28
ENDBRANCH   9  22
BRANCH   7  30
HETATM   30  C   UNL     1      40.028 -13.800  -0.626  1.00  0.00     0.036 A 
HETATM   31  C   UNL     1      40.352 -12.648  -1.361  1.00  0.00     0.048 A 
HETATM   32 CL   UNL     1      41.235 -11.315  -0.698  1.00  0.00    -0.083 Cl
HETATM   33  C   UNL     1      40.005 -12.557  -2.716  1.00  0.00     0.025 A 
HETATM   34  C   UNL     1      39.339 -13.605  -3.351  1.00  0.00     0.002 A 
HETATM   35  C   UNL     1      39.020 -14.755  -2.636  1.00  0.00     0.001 A 
HETATM   36  C   UNL     1      39.363 -14.852  -1.285  1.00  0.00     0.017 A 
ENDBRANCH   7  30
TORSDOF 5
ENDMDL
MODEL 2
REMARK VINA RESULT:     -10.1      2.961      6.936
REMARK  5 active torsions:
REMARK  status: ('A' for Active; 'I' for Inactive)
REMARK    1  A    between atoms: C_7  and  C_8 
REMARK    2  A    between atoms: C_16  and  C_17 
REMARK    3  A    between atoms: C_19  and  O_20 
REMARK    4  A    between atoms: C_24  and  C_25 
REMARK       I    between atoms: C_25  and  N_26 
REMARK    5  A    between atoms: N_26  and  C_27 
ROOT
HETATM    1  C   UNL     1      38.753 -12.391   2.649  1.00  0.00     0.070 C 
HETATM    2  C   UNL     1      40.073 -13.068   2.915  1.00  0.00     0.037 C 
HETATM    3  N   UNL     1      39.993 -14.371   3.410  1.00  0.00    -0.192 N 
HETATM    4  C   UNL     1      41.055 -15.204   3.411  1.00  0.00     0.726 A 
HETATM    5  N   UNL     1      42.299 -14.691   3.203  1.00  0.00    -0.083 N 
HETATM    6  N   UNL     1      43.234 -15.655   3.112  1.00  0.00    -0.135 NA
HETATM    7  C   UNL     1      42.481 -16.759   3.296  1.00  0.00     0.200 A 
HETATM    8  N   UNL     1      41.141 -16.503   3.521  1.00  0.00    -0.041 NA
HETATM    9  C   UNL     1      42.569 -13.264   3.020  1.00  0.00     0.202 C 
HETATM   10  C   UNL     1      41.289 -12.502   2.688  1.00  0.00     0.062 C 
HETATM   11  H   UNL     1      39.068 -14.797   3.417  1.00  0.00     0.184 HD
ENDROOT
BRANCH  10  12
HETATM   12  C   UNL     1      41.416 -11.238   1.895  1.00  0.00     0.256 C 
HETATM   13  N   UNL     1      41.324 -11.400   0.530  1.00  0.00    -0.323 N 
HETATM   14  H   UNL     1      41.294 -12.338   0.154  1.00  0.00     0.169 HD
HETATM   15  O   UNL     1      41.526 -10.171   2.490  1.00  0.00    -0.267 OA
BRANCH  13  16
HETATM   16  C   UNL     1      41.253 -10.381  -0.447  1.00  0.00     0.035 A 
HETATM   17  C   UNL     1      42.155  -9.319  -0.541  1.00  0.00     0.029 A 
HETATM   18  C   UNL     1      41.998  -8.340  -1.528  1.00  0.00     0.002 A 
HETATM   19  C   UNL     1      40.933  -8.408  -2.422  1.00  0.00     0.000 A 
HETATM   20  C   UNL     1      40.028  -9.462  -2.338  1.00  0.00     0.002 A 
HETATM   21  C   UNL     1      40.192 -10.448  -1.360  1.00  0.00     0.029 A 
ENDBRANCH  13  16
ENDBRANCH  10  12
BRANCH   9  22
HETATM   22  C   UNL     1      43.294 -12.740   4.263  1.00  0.00    -0.025 A 
HETATM   23  C   UNL     1      42.996 -13.288   5.523  1.00  0.00     0.046 A 
HETATM   24  C   UNL     1      43.654 -12.825   6.659  1.00  0.00     0.066 A 
HETATM   25  C   UNL     1      44.613 -11.823   6.571  1.00  0.00     0.036 A 
HETATM   26  C   UNL     1      44.902 -11.254   5.334  1.00  0.00     0.003 A 
HETATM   27  C   UNL     1      44.243 -11.702   4.189  1.00  0.00     0.010 A 
BRANCH  24  28
HETATM   28  O   UNL     1      43.381 -13.332   7.894  1.00  0.00    -0.361 OA
HETATM   29  H   UNL     1      43.054 -14.242   7.795  1.00  0.00     0.217 HD
ENDBRANCH  24  28
ENDBRANCH   9  22
BRANCH   7  30
HETATM   30  C   UNL     1      43.043 -18.104   3.286  1.00  0.00     0.036 A 
HETATM   31  C   UNL     1      43.708 -18.664   4.388  1.00  0.00     0.048 A 
HETATM   32 CL   UNL     1      43.893 -17.847   5.903  1.00  0.00    -0.083 Cl
HETATM   33  C   UNL     1      44.218 -19.968   4.314  1.00  0.00     0.025 A 
HETATM   34  C   UNL     1      44.069 -20.724   3.151  1.00  0.00     0.002 A 
HETATM   35  C   UNL     1      43.404 -20.183   2.055  1.00  0.00     0.001 A 
HETATM   36  C   UNL     1      42.894 -18.884   2.123  1.00  0.00     0.017 A 
ENDBRANCH   7  30
TORSDOF 5
ENDMDL
MODEL 3
REMARK VINA RESULT:      -9.9      3.921      6.850
REMARK  5 active torsions:
REMARK  status: ('A' for Active; 'I' for Inactive)
REMARK    1  A    between atoms: C_7  and  C_8 
REMARK    2  A    between atoms: C_16  and  C_17 
REMARK    3  A    between atoms: C_19  and  O_20 
REMARK    4  A    between atoms: C_24  and  C_25 
REMARK       I    between atoms: C_25  and  N_26 
REMARK    5  A    between atoms: N_26  and  C_27 
ROOT
HETATM    1  C   UNL     1      39.470 -12.675   3.458  1.00  0.00     0.070 C 
HETATM    2  C   UNL     1      39.866 -12.399   2.029  1.00  0.00     0.037 C 
HETATM    3  N   UNL     1      39.773 -11.066   1.624  1.00  0.00    -0.192 N 
HETATM    4  C   UNL     1      40.367 -10.616   0.499  1.00  0.00     0.726 A 
HETATM    5  N   UNL     1      40.818 -11.517  -0.417  1.00  0.00    -0.083 N 
HETATM    6  N   UNL     1      41.489 -10.922  -1.420  1.00  0.00    -0.135 NA
HETATM    7  C   UNL     1      41.395  -9.625  -1.059  1.00  0.00     0.200 A 
HETATM    8  N   UNL     1      40.673  -9.410   0.101  1.00  0.00    -0.041 NA
HETATM    9  C   UNL     1      40.657 -12.965  -0.280  1.00  0.00     0.202 C 
HETATM   10  C   UNL     1      40.309 -13.344   1.157  1.00  0.00     0.062 C 
HETATM   11  H   UNL     1      39.583 -10.382   2.355  1.00  0.00     0.184 HD
ENDROOT
BRANCH  10  12
HETATM   12  C   UNL     1      40.696 -14.711   1.631  1.00  0.00     0.256 C 
HETATM   13  N   UNL     1      41.999 -14.825   2.063  1.00  0.00    -0.323 N 
HETATM   14  H   UNL     1      42.624 -14.042   1.933  1.00  0.00     0.169 HD
HETATM   15  O   UNL     1      39.845 -15.593   1.661  1.00  0.00    -0.267 OA
BRANCH  13  16
HETATM   16  C   UNL     1      42.591 -15.939   2.702  1.00  0.00     0.035 A 
HETATM   17  C   UNL     1      43.036 -17.082   2.034  1.00  0.00     0.029 A 
HETATM   18  C   UNL     1      43.591 -18.149   2.747  1.00  0.00     0.002 A 
HETATM   19  C   UNL     1      43.699 -18.088   4.133  1.00  0.00     0.000 A 
HETATM   20  C   UNL     1      43.259 -16.954   4.810  1.00  0.00     0.002 A 
HETATM   21  C   UNL     1      42.715 -15.881   4.096  1.00  0.00     0.029 A 
ENDBRANCH  13  16
ENDBRANCH  10  12
BRANCH   9  22
HETATM   22  C   UNL     1      39.631 -13.443  -1.310  1.00  0.00    -0.025 A 
HETATM   23  C   UNL     1      38.604 -12.575  -1.723  1.00  0.00     0.046 A 
HETATM   24  C   UNL     1      37.670 -12.997  -2.664  1.00  0.00     0.066 A 
HETATM   25  C   UNL     1      37.733 -14.271  -3.214  1.00  0.00     0.036 A 
HETATM   26  C   UNL     1      38.729 -15.150  -2.799  1.00  0.00     0.003 A 
HETATM   27  C   UNL     1      39.667 -14.745  -1.847  1.00  0.00     0.010 A 
BRANCH  24  28
HETATM   28  O   UNL     1      36.660 -12.180  -3.078  1.00  0.00    -0.361 OA
HETATM   29  H   UNL     1      35.902 -12.289  -2.480  1.00  0.00     0.217 HD
ENDBRANCH  24  28
ENDBRANCH   9  22
BRANCH   7  30
HETATM   30  C   UNL     1      41.981  -8.546  -1.844  1.00  0.00     0.036 A 
HETATM   31  C   UNL     1      41.621  -8.285  -3.175  1.00  0.00     0.048 A 
HETATM   32 CL   UNL     1      40.405  -9.178  -4.024  1.00  0.00    -0.083 Cl
HETATM   33  C   UNL     1      42.218  -7.224  -3.871  1.00  0.00     0.025 A 
HETATM   34  C   UNL     1      43.170  -6.415  -3.250  1.00  0.00     0.002 A 
HETATM   35  C   UNL     1      43.528  -6.658  -1.928  1.00  0.00     0.001 A 
HETATM   36  C   UNL     1      42.936  -7.714  -1.231  1.00  0.00     0.017 A 
ENDBRANCH   7  30
TORSDOF 5
ENDMDL
MODEL 4
REMARK VINA RESULT:      -9.8      3.940      7.973
REMARK  5 active torsions:
REMARK  status: ('A' for Active; 'I' for Inactive)
REMARK    1  A    between atoms: C_7  and  C_8 
REMARK    2  A    between atoms: C_16  and  C_17 
REMARK    3  A    between atoms: C_19  and  O_20 
REMARK    4  A    between atoms: C_24  and  C_25 
REMARK       I    between atoms: C_25  and  N_26 
REMARK    5  A    between atoms: N_26  and  C_27 
ROOT
HETATM    1  C   UNL     1      38.893 -14.226  -2.052  1.00  0.00     0.070 C 
HETATM    2  C   UNL     1      39.729 -14.097  -0.804  1.00  0.00     0.037 C 
HETATM    3  N   UNL     1      39.620 -15.151   0.106  1.00  0.00    -0.192 N 
HETATM    4  C   UNL     1      40.511 -15.331   1.103  1.00  0.00     0.726 A 
HETATM    5  N   UNL     1      41.363 -14.317   1.421  1.00  0.00    -0.083 N 
HETATM    6  N   UNL     1      42.265 -14.689   2.348  1.00  0.00    -0.135 NA
HETATM    7  C   UNL     1      41.891 -15.965   2.573  1.00  0.00     0.200 A 
HETATM    8  N   UNL     1      40.787 -16.370   1.845  1.00  0.00    -0.041 NA
HETATM    9  C   UNL     1      41.344 -13.006   0.771  1.00  0.00     0.202 C 
HETATM   10  C   UNL     1      40.562 -13.055  -0.540  1.00  0.00     0.062 C 
HETATM   11  H   UNL     1      39.103 -15.970  -0.210  1.00  0.00     0.184 HD
ENDROOT
BRANCH  10  12
HETATM   12  C   UNL     1      40.924 -12.066  -1.604  1.00  0.00     0.256 C 
HETATM   13  N   UNL     1      40.803 -10.745  -1.231  1.00  0.00    -0.323 N 
HETATM   14  H   UNL     1      40.384 -10.530  -0.337  1.00  0.00     0.169 HD
HETATM   15  O   UNL     1      41.349 -12.477  -2.678  1.00  0.00    -0.267 OA
BRANCH  13  16
HETATM   16  C   UNL     1      41.217  -9.610  -1.965  1.00  0.00     0.035 A 
HETATM   17  C   UNL     1      40.602  -9.167  -3.138  1.00  0.00     0.029 A 
HETATM   18  C   UNL     1      41.091  -8.044  -3.814  1.00  0.00     0.002 A 
HETATM   19  C   UNL     1      42.203  -7.361  -3.331  1.00  0.00     0.000 A 
HETATM   20  C   UNL     1      42.824  -7.794  -2.162  1.00  0.00     0.002 A 
HETATM   21  C   UNL     1      42.328  -8.909  -1.479  1.00  0.00     0.029 A 
ENDBRANCH  13  16
ENDBRANCH  10  12
BRANCH   9  22
HETATM   22  C   UNL     1      40.812 -11.973   1.767  1.00  0.00    -0.025 A 
HETATM   23  C   UNL     1      41.705 -11.078   2.383  1.00  0.00     0.046 A 
HETATM   24  C   UNL     1      41.232 -10.129   3.285  1.00  0.00     0.066 A 
HETATM   25  C   UNL     1      39.879 -10.045   3.590  1.00  0.00     0.036 A 
HETATM   26  C   UNL     1      38.985 -10.938   3.006  1.00  0.00     0.003 A 
HETATM   27  C   UNL     1      39.447 -11.902   2.109  1.00  0.00     0.010 A 
BRANCH  24  28
HETATM   28  O   UNL     1      42.074  -9.253   3.902  1.00  0.00    -0.361 OA
HETATM   29  H   UNL     1      41.864  -9.231   4.851  1.00  0.00     0.217 HD
ENDBRANCH  24  28
ENDBRANCH   9  22
BRANCH   7  30
HETATM   30  C   UNL     1      42.577 -16.830   3.525  1.00  0.00     0.036 A 
HETATM   31  C   UNL     1      42.372 -16.757   4.911  1.00  0.00     0.048 A 
HETATM   32 CL   UNL     1      41.244 -15.671   5.649  1.00  0.00    -0.083 Cl
HETATM   33  C   UNL     1      43.059 -17.625   5.771  1.00  0.00     0.025 A 
HETATM   34  C   UNL     1      43.949 -18.571   5.263  1.00  0.00     0.002 A 
HETATM   35  C   UNL     1      44.155 -18.659   3.890  1.00  0.00     0.001 A 
HETATM   36  C   UNL     1      43.472 -17.796   3.028  1.00  0.00     0.017 A 
ENDBRANCH   7  30
TORSDOF 5
ENDMDL
MODEL 5
REMARK VINA RESULT:      -9.8      3.854      7.432
REMARK  5 active torsions:
REMARK  status: ('A' for Active; 'I' for Inactive)
REMARK    1  A    between atoms: C_7  and  C_8 
REMARK    2  A    between atoms: C_16  and  C_17 
REMARK    3  A    between atoms: C_19  and  O_20 
REMARK    4  A    between atoms: C_24  and  C_25 
REMARK       I    between atoms: C_25  and  N_26 
REMARK    5  A    between atoms: N_26  and  C_27 
ROOT
HETATM    1  C   UNL     1      42.147 -10.661   3.100  1.00  0.00     0.070 C 
HETATM    2  C   UNL     1      41.836 -12.055   2.617  1.00  0.00     0.037 C 
HETATM    3  N   UNL     1      42.909 -12.948   2.621  1.00  0.00    -0.192 N 
HETATM    4  C   UNL     1      42.732 -14.282   2.513  1.00  0.00     0.726 A 
HETATM    5  N   UNL     1      41.525 -14.757   2.099  1.00  0.00    -0.083 N 
HETATM    6  N   UNL     1      41.466 -16.101   2.157  1.00  0.00    -0.135 NA
HETATM    7  C   UNL     1      42.704 -16.392   2.607  1.00  0.00     0.200 A 
HETATM    8  N   UNL     1      43.515 -15.288   2.796  1.00  0.00    -0.041 NA
HETATM    9  C   UNL     1      40.403 -13.901   1.714  1.00  0.00     0.202 C 
HETATM   10  C   UNL     1      40.606 -12.473   2.213  1.00  0.00     0.062 C 
HETATM   11  H   UNL     1      43.764 -12.628   3.073  1.00  0.00     0.184 HD
ENDROOT
BRANCH  10  12
HETATM   12  C   UNL     1      39.386 -11.643   2.468  1.00  0.00     0.256 C 
HETATM   13  N   UNL     1      39.002 -10.841   1.416  1.00  0.00    -0.323 N 
HETATM   14  H   UNL     1      39.608 -10.775   0.609  1.00  0.00     0.169 HD
HETATM   15  O   UNL     1      38.792 -11.771   3.533  1.00  0.00    -0.267 OA
BRANCH  13  16
HETATM   16  C   UNL     1      37.817 -10.077   1.313  1.00  0.00     0.035 A 
HETATM   17  C   UNL     1      36.639 -10.533   0.718  1.00  0.00     0.029 A 
HETATM   18  C   UNL     1      35.516  -9.702   0.639  1.00  0.00     0.002 A 
HETATM   19  C   UNL     1      35.564  -8.406   1.146  1.00  0.00     0.000 A 
HETATM   20  C   UNL     1      36.733  -7.941   1.742  1.00  0.00     0.002 A 
HETATM   21  C   UNL     1      37.852  -8.776   1.832  1.00  0.00     0.029 A 
ENDBRANCH  13  16
ENDBRANCH  10  12
BRANCH   9  22
HETATM   22  C   UNL     1      40.206 -14.002   0.199  1.00  0.00    -0.025 A 
HETATM   23  C   UNL     1      39.449 -15.060  -0.334  1.00  0.00     0.046 A 
HETATM   24  C   UNL     1      39.257 -15.158  -1.710  1.00  0.00     0.066 A 
HETATM   25  C   UNL     1      39.803 -14.219  -2.576  1.00  0.00     0.036 A 
HETATM   26  C   UNL     1      40.574 -13.178  -2.066  1.00  0.00     0.003 A 
HETATM   27  C   UNL     1      40.783 -13.074  -0.690  1.00  0.00     0.010 A 
BRANCH  24  28
HETATM   28  O   UNL     1      38.534 -16.176  -2.255  1.00  0.00    -0.361 OA
HETATM   29  H   UNL     1      39.110 -16.689  -2.847  1.00  0.00     0.217 HD
ENDBRANCH  24  28
ENDBRANCH   9  22
BRANCH   7  30
HETATM   30  C   UNL     1      43.152 -17.759   2.845  1.00  0.00     0.036 A 
HETATM   31  C   UNL     1      43.876 -18.140   3.986  1.00  0.00     0.048 A 
HETATM   32 CL   UNL     1      44.277 -17.047   5.267  1.00  0.00    -0.083 Cl
HETATM   33  C   UNL     1      44.269 -19.475   4.157  1.00  0.00     0.025 A 
HETATM   34  C   UNL     1      43.944 -20.438   3.202  1.00  0.00     0.002 A 
HETATM   35  C   UNL     1      43.219 -20.075   2.072  1.00  0.00     0.001 A 
HETATM   36  C   UNL     1      42.825 -18.746   1.896  1.00  0.00     0.017 A 
ENDBRANCH   7  30
TORSDOF 5
ENDMDL
MODEL 6
REMARK VINA RESULT:      -9.8      3.371      7.435
REMARK  5 active torsions:
REMARK  status: ('A' for Active; 'I' for Inactive)
REMARK    1  A    between atoms: C_7  and  C_8 
REMARK    2  A    between atoms: C_16  and  C_17 
REMARK    3  A    between atoms: C_19  and  O_20 
REMARK    4  A    between atoms: C_24  and  C_25 
REMARK       I    between atoms: C_25  and  N_26 
REMARK    5  A    between atoms: N_26  and  C_27 
ROOT
HETATM    1  C   UNL     1      38.498 -12.175  -0.020  1.00  0.00     0.070 C 
HETATM    2  C   UNL     1      39.593 -12.580   0.935  1.00  0.00     0.037 C 
HETATM    3  N   UNL     1      39.523 -13.892   1.409  1.00  0.00    -0.192 N 
HETATM    4  C   UNL     1      40.570 -14.491   2.014  1.00  0.00     0.726 A 
HETATM    5  N   UNL     1      41.614 -13.727   2.439  1.00  0.00    -0.083 N 
HETATM    6  N   UNL     1      42.628 -14.477   2.910  1.00  0.00    -0.135 NA
HETATM    7  C   UNL     1      42.121 -15.718   2.759  1.00  0.00     0.200 A 
HETATM    8  N   UNL     1      40.838 -15.748   2.244  1.00  0.00    -0.041 NA
HETATM    9  C   UNL     1      41.656 -12.269   2.322  1.00  0.00     0.202 C 
HETATM   10  C   UNL     1      40.612 -11.770   1.326  1.00  0.00     0.062 C 
HETATM   11  H   UNL     1      38.832 -14.497   0.969  1.00  0.00     0.184 HD
ENDROOT
BRANCH  10  12
HETATM   12  C   UNL     1      40.882 -10.475   0.624  1.00  0.00     0.256 C 
HETATM   13  N   UNL     1      41.560 -10.594  -0.569  1.00  0.00    -0.323 N 
HETATM   14  H   UNL     1      41.922 -11.500  -0.833  1.00  0.00     0.169 HD
HETATM   15  O   UNL     1      40.444  -9.435   1.105  1.00  0.00    -0.267 OA
BRANCH  13  16
HETATM   16  C   UNL     1      41.813  -9.572  -1.513  1.00  0.00     0.035 A 
HETATM   17  C   UNL     1      42.726  -8.533  -1.319  1.00  0.00     0.029 A 
HETATM   18  C   UNL     1      42.899  -7.549  -2.298  1.00  0.00     0.002 A 
HETATM   19  C   UNL     1      42.154  -7.589  -3.474  1.00  0.00     0.000 A 
HETATM   20  C   UNL     1      41.242  -8.620  -3.678  1.00  0.00     0.002 A 
HETATM   21  C   UNL     1      41.078  -9.611  -2.705  1.00  0.00     0.029 A 
ENDBRANCH  13  16
ENDBRANCH  10  12
BRANCH   9  22
HETATM   22  C   UNL     1      41.515 -11.661   3.719  1.00  0.00    -0.025 A 
HETATM   23  C   UNL     1      40.614 -12.230   4.637  1.00  0.00     0.046 A 
HETATM   24  C   UNL     1      40.483 -11.690   5.913  1.00  0.00     0.066 A 
HETATM   25  C   UNL     1      41.235 -10.590   6.305  1.00  0.00     0.036 A 
HETATM   26  C   UNL     1      42.114 -10.000   5.401  1.00  0.00     0.003 A 
HETATM   27  C   UNL     1      42.248 -10.525   4.114  1.00  0.00     0.010 A 
BRANCH  24  28
HETATM   28  O   UNL     1      39.613 -12.216   6.821  1.00  0.00    -0.361 OA
HETATM   29  H   UNL     1      38.718 -11.892   6.624  1.00  0.00     0.217 HD
ENDBRANCH  24  28
ENDBRANCH   9  22
BRANCH   7  30
HETATM   30  C   UNL     1      42.857 -16.919   3.134  1.00  0.00     0.036 A 
HETATM   31  C   UNL     1      43.533 -17.051   4.357  1.00  0.00     0.048 A 
HETATM   32 CL   UNL     1      43.530 -15.829   5.582  1.00  0.00    -0.083 Cl
HETATM   33  C   UNL     1      44.215 -18.239   4.659  1.00  0.00     0.025 A 
HETATM   34  C   UNL     1      44.227 -19.300   3.755  1.00  0.00     0.002 A 
HETATM   35  C   UNL     1      43.553 -19.184   2.544  1.00  0.00     0.001 A 
HETATM   36  C   UNL     1      42.872 -18.003   2.237  1.00  0.00     0.017 A 
ENDBRANCH   7  30
TORSDOF 5
ENDMDL
MODEL 7
REMARK VINA RESULT:      -9.4      4.319      7.379
REMARK  5 active torsions:
REMARK  status: ('A' for Active; 'I' for Inactive)
REMARK    1  A    between atoms: C_7  and  C_8 
REMARK    2  A    between atoms: C_16  and  C_17 
REMARK    3  A    between atoms: C_19  and  O_20 
REMARK    4  A    between atoms: C_24  and  C_25 
REMARK       I    between atoms: C_25  and  N_26 
REMARK    5  A    between atoms: N_26  and  C_27 
ROOT
HETATM    1  C   UNL     1      45.034  -8.920   8.592  1.00  0.00     0.070 C 
HETATM    2  C   UNL     1      44.010  -9.706   7.812  1.00  0.00     0.037 C 
HETATM    3  N   UNL     1      44.518 -10.504   6.785  1.00  0.00    -0.192 N 
HETATM    4  C   UNL     1      43.786 -11.480   6.208  1.00  0.00     0.726 A 
HETATM    5  N   UNL     1      42.439 -11.506   6.412  1.00  0.00    -0.083 N 
HETATM    6  N   UNL     1      41.869 -12.599   5.874  1.00  0.00    -0.135 NA
HETATM    7  C   UNL     1      42.944 -13.206   5.327  1.00  0.00     0.200 A 
HETATM    8  N   UNL     1      44.130 -12.513   5.487  1.00  0.00    -0.041 NA
HETATM    9  C   UNL     1      41.716 -10.501   7.193  1.00  0.00     0.202 C 
HETATM   10  C   UNL     1      42.673  -9.689   8.062  1.00  0.00     0.062 C 
HETATM   11  H   UNL     1      45.532 -10.595   6.741  1.00  0.00     0.184 HD
ENDROOT
BRANCH  10  12
HETATM   12  C   UNL     1      42.130  -9.085   9.320  1.00  0.00     0.256 C 
HETATM   13  N   UNL     1      42.335  -9.835  10.457  1.00  0.00    -0.323 N 
HETATM   14  H   UNL     1      42.722 -10.765  10.362  1.00  0.00     0.169 HD
HETATM   15  O   UNL     1      41.613  -7.975   9.271  1.00  0.00    -0.267 OA
BRANCH  13  16
HETATM   16  C   UNL     1      42.074  -9.450  11.792  1.00  0.00     0.035 A 
HETATM   17  C   UNL     1      40.935  -9.824  12.508  1.00  0.00     0.029 A 
HETATM   18  C   UNL     1      40.745  -9.379  13.821  1.00  0.00     0.002 A 
HETATM   19  C   UNL     1      41.685  -8.550  14.425  1.00  0.00     0.000 A 
HETATM   20  C   UNL     1      42.825  -8.171  13.721  1.00  0.00     0.002 A 
HETATM   21  C   UNL     1      43.022  -8.625  12.413  1.00  0.00     0.029 A 
ENDBRANCH  13  16
ENDBRANCH  10  12
BRANCH   9  22
HETATM   22  C   UNL     1      40.878  -9.648   6.237  1.00  0.00    -0.025 A 
HETATM   23  C   UNL     1      39.481  -9.805   6.211  1.00  0.00     0.046 A 
HETATM   24  C   UNL     1      38.708  -9.029   5.352  1.00  0.00     0.066 A 
HETATM   25  C   UNL     1      39.294  -8.090   4.513  1.00  0.00     0.036 A 
HETATM   26  C   UNL     1      40.678  -7.939   4.510  1.00  0.00     0.003 A 
HETATM   27  C   UNL     1      41.467  -8.718   5.359  1.00  0.00     0.010 A 
BRANCH  24  28
HETATM   28  O   UNL     1      37.352  -9.164   5.299  1.00  0.00    -0.361 OA
HETATM   29  H   UNL     1      36.944  -8.418   5.769  1.00  0.00     0.217 HD
ENDBRANCH  24  28
ENDBRANCH   9  22
BRANCH   7  30
HETATM   30  C   UNL     1      42.850 -14.469   4.606  1.00  0.00     0.036 A 
HETATM   31  C   UNL     1      42.629 -15.700   5.242  1.00  0.00     0.048 A 
HETATM   32 CL   UNL     1      42.390 -15.858   6.950  1.00  0.00    -0.083 Cl
HETATM   33  C   UNL     1      42.541 -16.878   4.487  1.00  0.00     0.025 A 
HETATM   34  C   UNL     1      42.667 -16.842   3.098  1.00  0.00     0.002 A 
HETATM   35  C   UNL     1      42.878 -15.626   2.455  1.00  0.00     0.001 A 
HETATM   36  C   UNL     1      42.967 -14.450   3.203  1.00  0.00     0.017 A 
ENDBRANCH   7  30
TORSDOF 5
ENDMDL
MODEL 8
REMARK VINA RESULT:      -9.2      2.404      3.241
REMARK  5 active torsions:
REMARK  status: ('A' for Active; 'I' for Inactive)
REMARK    1  A    between atoms: C_7  and  C_8 
REMARK    2  A    between atoms: C_16  and  C_17 
REMARK    3  A    between atoms: C_19  and  O_20 
REMARK    4  A    between atoms: C_24  and  C_25 
REMARK       I    between atoms: C_25  and  N_26 
REMARK    5  A    between atoms: N_26  and  C_27 
ROOT
HETATM    1  C   UNL     1      39.085  -9.182   6.104  1.00  0.00     0.070 C 
HETATM    2  C   UNL     1      39.763 -10.234   5.264  1.00  0.00     0.037 C 
HETATM    3  N   UNL     1      39.009 -10.734   4.200  1.00  0.00    -0.192 N 
HETATM    4  C   UNL     1      39.568 -11.440   3.195  1.00  0.00     0.726 A 
HETATM    5  N   UNL     1      40.828 -11.931   3.352  1.00  0.00    -0.083 N 
HETATM    6  N   UNL     1      41.290 -12.504   2.225  1.00  0.00    -0.135 NA
HETATM    7  C   UNL     1      40.232 -12.342   1.403  1.00  0.00     0.200 A 
HETATM    8  N   UNL     1      39.144 -11.723   1.992  1.00  0.00    -0.041 NA
HETATM    9  C   UNL     1      41.612 -11.781   4.578  1.00  0.00     0.202 C 
HETATM   10  C   UNL     1      41.028 -10.689   5.472  1.00  0.00     0.062 C 
HETATM   11  H   UNL     1      38.133 -10.254   4.000  1.00  0.00     0.184 HD
ENDROOT
BRANCH  10  12
HETATM   12  C   UNL     1      41.959  -9.980   6.405  1.00  0.00     0.256 C 
HETATM   13  N   UNL     1      42.371 -10.725   7.488  1.00  0.00    -0.323 N 
HETATM   14  H   UNL     1      41.946 -11.629   7.645  1.00  0.00     0.169 HD
HETATM   15  O   UNL     1      42.333  -8.846   6.124  1.00  0.00    -0.267 OA
BRANCH  13  16
HETATM   16  C   UNL     1      43.358 -10.376   8.438  1.00  0.00     0.035 A 
HETATM   17  C   UNL     1      43.089  -9.738   9.651  1.00  0.00     0.029 A 
HETATM   18  C   UNL     1      44.130  -9.409  10.526  1.00  0.00     0.002 A 
HETATM   19  C   UNL     1      45.449  -9.705  10.191  1.00  0.00     0.000 A 
HETATM   20  C   UNL     1      45.728 -10.341   8.985  1.00  0.00     0.002 A 
HETATM   21  C   UNL     1      44.687 -10.682   8.117  1.00  0.00     0.029 A 
ENDBRANCH  13  16
ENDBRANCH  10  12
BRANCH   9  22
HETATM   22  C   UNL     1      41.717 -13.146   5.263  1.00  0.00    -0.025 A 
HETATM   23  C   UNL     1      40.550 -13.792   5.707  1.00  0.00     0.046 A 
HETATM   24  C   UNL     1      40.633 -15.037   6.324  1.00  0.00     0.066 A 
HETATM   25  C   UNL     1      41.859 -15.663   6.509  1.00  0.00     0.036 A 
HETATM   26  C   UNL     1      43.026 -15.026   6.096  1.00  0.00     0.003 A 
HETATM   27  C   UNL     1      42.959 -13.773   5.485  1.00  0.00     0.010 A 
BRANCH  24  28
HETATM   28  O   UNL     1      39.520 -15.684   6.771  1.00  0.00    -0.361 OA
HETATM   29  H   UNL     1      39.516 -16.588   6.413  1.00  0.00     0.217 HD
ENDBRANCH  24  28
ENDBRANCH   9  22
BRANCH   7  30
HETATM   30  C   UNL     1      40.231 -12.808   0.022  1.00  0.00     0.036 A 
HETATM   31  C   UNL     1      40.698 -12.030  -1.049  1.00  0.00     0.048 A 
HETATM   32 CL   UNL     1      41.375 -10.449  -0.851  1.00  0.00    -0.083 Cl
HETATM   33  C   UNL     1      40.677 -12.543  -2.353  1.00  0.00     0.025 A 
HETATM   34  C   UNL     1      40.199 -13.829  -2.603  1.00  0.00     0.002 A 
HETATM   35  C   UNL     1      39.742 -14.614  -1.549  1.00  0.00     0.001 A 
HETATM   36  C   UNL     1      39.760 -14.107  -0.247  1.00  0.00     0.017 A 
ENDBRANCH   7  30
TORSDOF 5
ENDMDL
MODEL 9
REMARK VINA RESULT:      -9.1      2.958      8.047
REMARK  5 active torsions:
REMARK  status: ('A' for Active; 'I' for Inactive)
REMARK    1  A    between atoms: C_7  and  C_8 
REMARK    2  A    between atoms: C_16  and  C_17 
REMARK    3  A    between atoms: C_19  and  O_20 
REMARK    4  A    between atoms: C_24  and  C_25 
REMARK       I    between atoms: C_25  and  N_26 
REMARK    5  A    between atoms: N_26  and  C_27 
ROOT
HETATM    1  C   UNL     1      40.104 -16.222   5.968  1.00  0.00     0.070 C 
HETATM    2  C   UNL     1      41.041 -15.118   5.548  1.00  0.00     0.037 C 
HETATM    3  N   UNL     1      41.090 -14.012   6.399  1.00  0.00    -0.192 N 
HETATM    4  C   UNL     1      42.080 -13.097   6.330  1.00  0.00     0.726 A 
HETATM    5  N   UNL     1      42.885 -13.076   5.232  1.00  0.00    -0.083 N 
HETATM    6  N   UNL     1      43.893 -12.194   5.363  1.00  0.00    -0.135 NA
HETATM    7  C   UNL     1      43.630 -11.684   6.585  1.00  0.00     0.200 A 
HETATM    8  N   UNL     1      42.493 -12.198   7.182  1.00  0.00    -0.041 NA
HETATM    9  C   UNL     1      42.717 -13.967   4.083  1.00  0.00     0.202 C 
HETATM   10  C   UNL     1      41.822 -15.153   4.435  1.00  0.00     0.062 C 
HETATM   11  H   UNL     1      40.603 -14.104   7.289  1.00  0.00     0.184 HD
ENDROOT
BRANCH  10  12
HETATM   12  C   UNL     1      42.015 -16.423   3.666  1.00  0.00     0.256 C 
HETATM   13  N   UNL     1      43.091 -17.184   4.067  1.00  0.00    -0.323 N 
HETATM   14  H   UNL     1      43.729 -16.800   4.750  1.00  0.00     0.169 HD
HETATM   15  O   UNL     1      41.197 -16.726   2.804  1.00  0.00    -0.267 OA
BRANCH  13  16
HETATM   16  C   UNL     1      43.422 -18.488   3.634  1.00  0.00     0.035 A 
HETATM   17  C   UNL     1      43.320 -18.927   2.312  1.00  0.00     0.029 A 
HETATM   18  C   UNL     1      43.649 -20.244   1.974  1.00  0.00     0.002 A 
HETATM   19  C   UNL     1      44.072 -21.136   2.955  1.00  0.00     0.000 A 
HETATM   20  C   UNL     1      44.178 -20.710   4.276  1.00  0.00     0.002 A 
HETATM   21  C   UNL     1      43.862 -19.390   4.612  1.00  0.00     0.029 A 
ENDBRANCH  13  16
ENDBRANCH  10  12
BRANCH   9  22
HETATM   22  C   UNL     1      42.210 -13.143   2.896  1.00  0.00    -0.025 A 
HETATM   23  C   UNL     1      42.262 -11.739   2.952  1.00  0.00     0.046 A 
HETATM   24  C   UNL     1      41.812 -10.981   1.875  1.00  0.00     0.066 A 
HETATM   25  C   UNL     1      41.308 -11.589   0.732  1.00  0.00     0.036 A 
HETATM   26  C   UNL     1      41.228 -12.978   0.671  1.00  0.00     0.003 A 
HETATM   27  C   UNL     1      41.667 -13.751   1.747  1.00  0.00     0.010 A 
BRANCH  24  28
HETATM   28  O   UNL     1      41.844  -9.619   1.903  1.00  0.00    -0.361 OA
HETATM   29  H   UNL     1      41.111  -9.276   1.364  1.00  0.00     0.217 HD
ENDBRANCH  24  28
ENDBRANCH   9  22
BRANCH   7  30
HETATM   30  C   UNL     1      44.459 -10.657   7.203  1.00  0.00     0.036 A 
HETATM   31  C   UNL     1      43.928  -9.529   7.846  1.00  0.00     0.048 A 
HETATM   32 CL   UNL     1      42.229  -9.248   8.026  1.00  0.00    -0.083 Cl
HETATM   33  C   UNL     1      44.783  -8.583   8.429  1.00  0.00     0.025 A 
HETATM   34  C   UNL     1      46.167  -8.752   8.381  1.00  0.00     0.002 A 
HETATM   35  C   UNL     1      46.705  -9.871   7.754  1.00  0.00     0.001 A 
HETATM   36  C   UNL     1      45.857 -10.817   7.172  1.00  0.00     0.017 A 
ENDBRANCH   7  30
TORSDOF 5
ENDMDL
MODEL 10
REMARK VINA RESULT:      -9.0      4.136      8.114
REMARK  5 active torsions:
REMARK  status: ('A' for Active; 'I' for Inactive)
REMARK    1  A    between atoms: C_7  and  C_8 
REMARK    2  A    between atoms: C_16  and  C_17 
REMARK    3  A    between atoms: C_19  and  O_20 
REMARK    4  A    between atoms: C_24  and  C_25 
REMARK       I    between atoms: C_25  and  N_26 
REMARK    5  A    between atoms: N_26  and  C_27 
ROOT
HETATM    1  C   UNL     1      41.065  -9.197   2.074  1.00  0.00     0.070 C 
HETATM    2  C   UNL     1      40.999 -10.681   1.816  1.00  0.00     0.037 C 
HETATM    3  N   UNL     1      42.172 -11.392   2.081  1.00  0.00    -0.192 N 
HETATM    4  C   UNL     1      42.185 -12.737   2.192  1.00  0.00     0.726 A 
HETATM    5  N   UNL     1      41.109 -13.447   1.753  1.00  0.00    -0.083 N 
HETATM    6  N   UNL     1      41.220 -14.757   2.040  1.00  0.00    -0.135 NA
HETATM    7  C   UNL     1      42.422 -14.785   2.653  1.00  0.00     0.200 A 
HETATM    8  N   UNL     1      43.052 -13.556   2.723  1.00  0.00    -0.041 NA
HETATM    9  C   UNL     1      39.940 -12.841   1.116  1.00  0.00     0.202 C 
HETATM   10  C   UNL     1      39.893 -11.337   1.374  1.00  0.00     0.062 C 
HETATM   11  H   UNL     1      42.916 -10.879   2.551  1.00  0.00     0.184 HD
ENDROOT
BRANCH  10  12
HETATM   12  C   UNL     1      38.553 -10.669   1.359  1.00  0.00     0.256 C 
HETATM   13  N   UNL     1      38.276  -9.955   0.213  1.00  0.00    -0.323 N 
HETATM   14  H   UNL     1      39.008  -9.834  -0.472  1.00  0.00     0.169 HD
HETATM   15  O   UNL     1      37.791 -10.843   2.303  1.00  0.00    -0.267 OA
BRANCH  13  16
HETATM   16  C   UNL     1      37.045  -9.358  -0.143  1.00  0.00     0.035 A 
HETATM   17  C   UNL     1      36.547  -8.185   0.428  1.00  0.00     0.029 A 
HETATM   18  C   UNL     1      35.307  -7.673   0.032  1.00  0.00     0.002 A 
HETATM   19  C   UNL     1      34.549  -8.335  -0.930  1.00  0.00     0.000 A 
HETATM   20  C   UNL     1      35.035  -9.505  -1.506  1.00  0.00     0.002 A 
HETATM   21  C   UNL     1      36.281 -10.010  -1.120  1.00  0.00     0.029 A 
ENDBRANCH  13  16
ENDBRANCH  10  12
BRANCH   9  22
HETATM   22  C   UNL     1      39.944 -13.211  -0.370  1.00  0.00    -0.025 A 
HETATM   23  C   UNL     1      39.243 -14.351  -0.803  1.00  0.00     0.046 A 
HETATM   24  C   UNL     1      39.234 -14.693  -2.152  1.00  0.00     0.066 A 
HETATM   25  C   UNL     1      39.906 -13.921  -3.091  1.00  0.00     0.036 A 
HETATM   26  C   UNL     1      40.624 -12.803  -2.675  1.00  0.00     0.003 A 
HETATM   27  C   UNL     1      40.651 -12.454  -1.324  1.00  0.00     0.010 A 
BRANCH  24  28
HETATM   28  O   UNL     1      38.569 -15.795  -2.601  1.00  0.00    -0.361 OA
HETATM   29  H   UNL     1      39.188 -16.352  -3.104  1.00  0.00     0.217 HD
ENDBRANCH  24  28
ENDBRANCH   9  22
BRANCH   7  30
HETATM   30  C   UNL     1      43.012 -16.014   3.169  1.00  0.00     0.036 A 
HETATM   31  C   UNL     1      43.402 -16.172   4.508  1.00  0.00     0.048 A 
HETATM   32 CL   UNL     1      43.182 -14.949   5.714  1.00  0.00    -0.083 Cl
HETATM   33  C   UNL     1      43.956 -17.385   4.942  1.00  0.00     0.025 A 
HETATM   34  C   UNL     1      44.123 -18.447   4.053  1.00  0.00     0.002 A 
HETATM   35  C   UNL     1      43.732 -18.305   2.726  1.00  0.00     0.001 A 
HETATM   36  C   UNL     1      43.179 -17.099   2.288  1.00  0.00     0.017 A 
ENDBRANCH   7  30
TORSDOF 5
ENDMDL
