MODEL 1
REMARK VINA RESULT:      -8.6      0.000      0.000
REMARK  5 active torsions:
REMARK  status: ('A' for Active; 'I' for Inactive)
REMARK    1  A    between atoms: C_9  and  C_10 
REMARK       I    between atoms: C_10  and  N_11 
REMARK    2  A    between atoms: N_11  and  C_12 
REMARK    3  A    between atoms: C_12  and  C_13 
REMARK    4  A    between atoms: C_16  and  N_17 
REMARK       I    between atoms: N_17  and  C_18 
REMARK    5  A    between atoms: C_18  and  C_19 
ROOT
HETATM    1  C   UNL     1      42.964 -11.556   5.653  1.00  0.00     0.273 C 
HETATM    2  N   UNL     1      43.088 -11.666   4.286  1.00  0.00    -0.351 N 
HETATM    3  O   UNL     1      41.927 -11.826   6.255  1.00  0.00    -0.266 OA
HETATM    4  H   UNL     1      44.022 -11.524   3.913  1.00  0.00     0.163 HD
ENDROOT
BRANCH   2   5
HETATM    5  C   UNL     1      42.056 -12.271   3.490  1.00  0.00     0.161 C 
BRANCH   5   6
HETATM    6  C   UNL     1      42.349 -13.720   3.215  1.00  0.00    -0.040 A 
HETATM    7  C   UNL     1      43.180 -14.090   2.152  1.00  0.00     0.011 A 
HETATM    8  C   UNL     1      43.461 -15.437   1.898  1.00  0.00     0.030 A 
HETATM    9  C   UNL     1      42.913 -16.440   2.699  1.00  0.00     0.034 A 
HETATM   10  C   UNL     1      42.063 -16.072   3.749  1.00  0.00     0.030 A 
HETATM   11  C   UNL     1      41.778 -14.726   4.002  1.00  0.00     0.011 A 
BRANCH   9  12
HETATM   12  N   UNL     1      43.163 -17.817   2.526  1.00  0.00    -0.327 N 
HETATM   13  C   UNL     1      43.986 -18.632   3.290  1.00  0.00     0.225 C 
HETATM   14  O   UNL     1      44.654 -18.280   4.256  1.00  0.00    -0.273 OA
HETATM   15  H   UNL     1      42.665 -18.260   1.766  1.00  0.00     0.169 HD
BRANCH  13  16
HETATM   16  C   UNL     1      43.982 -20.085   2.799  1.00  0.00     0.070 C 
HETATM   17  C   UNL     1      43.843 -21.054   3.972  1.00  0.00     0.019 C 
HETATM   18  C   UNL     1      42.863 -20.321   1.786  1.00  0.00     0.019 C 
ENDBRANCH  13  16
ENDBRANCH   9  12
ENDBRANCH   5   6
ENDBRANCH   2   5
BRANCH   1  19
HETATM   19  C   UNL     1      44.196 -11.105   6.319  1.00  0.00     0.157 A 
HETATM   20  C   UNL     1      44.316 -10.548   7.627  1.00  0.00     0.029 A 
HETATM   21  C   UNL     1      43.434 -10.233   8.681  1.00  0.00     0.023 A 
HETATM   22  C   UNL     1      45.673 -10.301   7.793  1.00  0.00     0.063 A 
HETATM   23  C   UNL     1      43.943  -9.681   9.869  1.00  0.00    -0.061 A 
HETATM   24  C   UNL     1      43.023  -9.341  11.005  1.00  0.00     0.048 C 
HETATM   25  C   UNL     1      45.319  -9.447   9.993  1.00  0.00     0.009 A 
HETATM   26  C   UNL     1      46.211  -9.751   8.959  1.00  0.00     0.032 A 
HETATM   27  N   UNL     1      46.257 -10.705   6.625  1.00  0.00    -0.277 N 
HETATM   28  H   UNL     1      47.243 -10.672   6.391  1.00  0.00     0.189 HD
HETATM   29  N   UNL     1      45.401 -11.200   5.714  1.00  0.00    -0.168 NA
ENDBRANCH   1  19
TORSDOF 5
ENDMDL
MODEL 2
REMARK VINA RESULT:      -8.5      5.545      9.343
REMARK  5 active torsions:
REMARK  status: ('A' for Active; 'I' for Inactive)
REMARK    1  A    between atoms: C_9  and  C_10 
REMARK       I    between atoms: C_10  and  N_11 
REMARK    2  A    between atoms: N_11  and  C_12 
REMARK    3  A    between atoms: C_12  and  C_13 
REMARK    4  A    between atoms: C_16  and  N_17 
REMARK       I    between atoms: N_17  and  C_18 
REMARK    5  A    between atoms: C_18  and  C_19 
ROOT
HETATM    1  C   UNL     1      40.679 -15.398   2.145  1.00  0.00     0.273 C 
HETATM    2  N   UNL     1      41.189 -14.736   1.050  1.00  0.00    -0.351 N 
HETATM    3  O   UNL     1      39.484 -15.654   2.275  1.00  0.00    -0.266 OA
HETATM    4  H   UNL     1      42.202 -14.680   0.999  1.00  0.00     0.163 HD
ENDROOT
BRANCH   2   5
HETATM    5  C   UNL     1      40.372 -14.450  -0.096  1.00  0.00     0.161 C 
BRANCH   5   6
HETATM    6  C   UNL     1      40.615 -13.060  -0.615  1.00  0.00    -0.040 A 
HETATM    7  C   UNL     1      40.819 -11.995   0.270  1.00  0.00     0.011 A 
HETATM    8  C   UNL     1      41.054 -10.701  -0.210  1.00  0.00     0.030 A 
HETATM    9  C   UNL     1      41.084 -10.447  -1.582  1.00  0.00     0.034 A 
HETATM   10  C   UNL     1      40.857 -11.508  -2.467  1.00  0.00     0.030 A 
HETATM   11  C   UNL     1      40.619 -12.801  -1.990  1.00  0.00     0.011 A 
BRANCH   9  12
HETATM   12  N   UNL     1      41.336  -9.180  -2.147  1.00  0.00    -0.327 N 
HETATM   13  C   UNL     1      42.420  -8.348  -1.913  1.00  0.00     0.225 C 
HETATM   14  O   UNL     1      43.354  -8.575  -1.151  1.00  0.00    -0.273 OA
HETATM   15  H   UNL     1      40.651  -8.856  -2.818  1.00  0.00     0.169 HD
BRANCH  13  16
HETATM   16  C   UNL     1      42.349  -7.055  -2.736  1.00  0.00     0.070 C 
HETATM   17  C   UNL     1      43.408  -6.057  -2.272  1.00  0.00     0.019 C 
HETATM   18  C   UNL     1      42.514  -7.342  -4.227  1.00  0.00     0.019 C 
ENDBRANCH  13  16
ENDBRANCH   9  12
ENDBRANCH   5   6
ENDBRANCH   2   5
BRANCH   1  19
HETATM   19  C   UNL     1      41.704 -15.785   3.126  1.00  0.00     0.157 A 
HETATM   20  C   UNL     1      42.487 -16.977   3.132  1.00  0.00     0.029 A 
HETATM   21  C   UNL     1      42.592 -18.127   2.323  1.00  0.00     0.023 A 
HETATM   22  C   UNL     1      43.311 -16.865   4.245  1.00  0.00     0.063 A 
HETATM   23  C   UNL     1      43.520 -19.127   2.657  1.00  0.00    -0.061 A 
HETATM   24  C   UNL     1      43.651 -20.359   1.808  1.00  0.00     0.048 C 
HETATM   25  C   UNL     1      44.331 -18.974   3.790  1.00  0.00     0.009 A 
HETATM   26  C   UNL     1      44.243 -17.841   4.606  1.00  0.00     0.032 A 
HETATM   27  N   UNL     1      42.985 -15.666   4.814  1.00  0.00    -0.277 N 
HETATM   28  H   UNL     1      43.388 -15.254   5.648  1.00  0.00     0.189 HD
HETATM   29  N   UNL     1      42.025 -14.983   4.166  1.00  0.00    -0.168 NA
ENDBRANCH   1  19
TORSDOF 5
ENDMDL
MODEL 3
REMARK VINA RESULT:      -8.5      4.219      7.334
REMARK  5 active torsions:
REMARK  status: ('A' for Active; 'I' for Inactive)
REMARK    1  A    between atoms: C_9  and  C_10 
REMARK       I    between atoms: C_10  and  N_11 
REMARK    2  A    between atoms: N_11  and  C_12 
REMARK    3  A    between atoms: C_12  and  C_13 
REMARK    4  A    between atoms: C_16  and  N_17 
REMARK       I    between atoms: N_17  and  C_18 
REMARK    5  A    between atoms: C_18  and  C_19 
ROOT
HETATM    1  C   UNL     1      41.118 -14.514   6.198  1.00  0.00     0.273 C 
HETATM    2  N   UNL     1      41.762 -13.533   5.478  1.00  0.00    -0.351 N 
HETATM    3  O   UNL     1      39.945 -14.423   6.553  1.00  0.00    -0.266 OA
HETATM    4  H   UNL     1      42.693 -13.766   5.145  1.00  0.00     0.163 HD
ENDROOT
BRANCH   2   5
HETATM    5  C   UNL     1      41.045 -12.406   4.946  1.00  0.00     0.161 C 
BRANCH   5   6
HETATM    6  C   UNL     1      40.551 -12.675   3.552  1.00  0.00    -0.040 A 
HETATM    7  C   UNL     1      41.181 -13.629   2.744  1.00  0.00     0.011 A 
HETATM    8  C   UNL     1      40.719 -13.887   1.448  1.00  0.00     0.030 A 
HETATM    9  C   UNL     1      39.623 -13.192   0.934  1.00  0.00     0.034 A 
HETATM   10  C   UNL     1      39.008 -12.221   1.733  1.00  0.00     0.030 A 
HETATM   11  C   UNL     1      39.470 -11.960   3.027  1.00  0.00     0.011 A 
BRANCH   9  12
HETATM   12  N   UNL     1      39.081 -13.407  -0.350  1.00  0.00    -0.327 N 
HETATM   13  C   UNL     1      39.607 -13.011  -1.570  1.00  0.00     0.225 C 
HETATM   14  O   UNL     1      40.648 -12.385  -1.738  1.00  0.00    -0.273 OA
HETATM   15  H   UNL     1      38.216 -13.931  -0.377  1.00  0.00     0.169 HD
BRANCH  13  16
HETATM   16  C   UNL     1      38.732 -13.450  -2.751  1.00  0.00     0.070 C 
HETATM   17  C   UNL     1      38.739 -14.971  -2.897  1.00  0.00     0.019 C 
HETATM   18  C   UNL     1      37.299 -12.944  -2.592  1.00  0.00     0.019 C 
ENDBRANCH  13  16
ENDBRANCH   9  12
ENDBRANCH   5   6
ENDBRANCH   2   5
BRANCH   1  19
HETATM   19  C   UNL     1      41.964 -15.684   6.480  1.00  0.00     0.157 A 
HETATM   20  C   UNL     1      42.525 -16.592   5.533  1.00  0.00     0.029 A 
HETATM   21  C   UNL     1      42.505 -16.738   4.131  1.00  0.00     0.023 A 
HETATM   22  C   UNL     1      43.246 -17.506   6.291  1.00  0.00     0.063 A 
HETATM   23  C   UNL     1      43.211 -17.795   3.534  1.00  0.00    -0.061 A 
HETATM   24  C   UNL     1      43.206 -17.968   2.043  1.00  0.00     0.048 C 
HETATM   25  C   UNL     1      43.925 -18.695   4.337  1.00  0.00     0.009 A 
HETATM   26  C   UNL     1      43.958 -18.569   5.730  1.00  0.00     0.032 A 
HETATM   27  N   UNL     1      43.080 -17.109   7.588  1.00  0.00    -0.277 N 
HETATM   28  H   UNL     1      43.468 -17.545   8.416  1.00  0.00     0.189 HD
HETATM   29  N   UNL     1      42.318 -16.011   7.743  1.00  0.00    -0.168 NA
ENDBRANCH   1  19
TORSDOF 5
ENDMDL
MODEL 4
REMARK VINA RESULT:      -8.4      2.302      9.613
REMARK  5 active torsions:
REMARK  status: ('A' for Active; 'I' for Inactive)
REMARK    1  A    between atoms: C_9  and  C_10 
REMARK       I    between atoms: C_10  and  N_11 
REMARK    2  A    between atoms: N_11  and  C_12 
REMARK    3  A    between atoms: C_12  and  C_13 
REMARK    4  A    between atoms: C_16  and  N_17 
REMARK       I    between atoms: N_17  and  C_18 
REMARK    5  A    between atoms: C_18  and  C_19 
ROOT
HETATM    1  C   UNL     1      43.202 -15.482   4.312  1.00  0.00     0.273 C 
HETATM    2  N   UNL     1      43.024 -14.406   5.152  1.00  0.00    -0.351 N 
HETATM    3  O   UNL     1      43.217 -15.379   3.087  1.00  0.00    -0.266 OA
HETATM    4  H   UNL     1      43.141 -14.594   6.144  1.00  0.00     0.163 HD
ENDROOT
BRANCH   2   5
HETATM    5  C   UNL     1      43.015 -13.060   4.649  1.00  0.00     0.161 C 
BRANCH   5   6
HETATM    6  C   UNL     1      43.153 -12.056   5.759  1.00  0.00    -0.040 A 
HETATM    7  C   UNL     1      42.316 -10.936   5.815  1.00  0.00     0.011 A 
HETATM    8  C   UNL     1      42.438 -10.002   6.852  1.00  0.00     0.030 A 
HETATM    9  C   UNL     1      43.401 -10.168   7.847  1.00  0.00     0.034 A 
HETATM   10  C   UNL     1      44.254 -11.277   7.779  1.00  0.00     0.030 A 
HETATM   11  C   UNL     1      44.137 -12.209   6.742  1.00  0.00     0.011 A 
BRANCH   9  12
HETATM   12  N   UNL     1      43.574  -9.290   8.936  1.00  0.00    -0.327 N 
HETATM   13  C   UNL     1      42.770  -9.160  10.058  1.00  0.00     0.225 C 
HETATM   14  O   UNL     1      41.746  -9.796  10.289  1.00  0.00    -0.273 OA
HETATM   15  H   UNL     1      44.396  -8.701   8.897  1.00  0.00     0.169 HD
BRANCH  13  16
HETATM   16  C   UNL     1      43.301  -8.105  11.036  1.00  0.00     0.070 C 
HETATM   17  C   UNL     1      42.586  -6.770  10.836  1.00  0.00     0.019 C 
HETATM   18  C   UNL     1      43.148  -8.571  12.484  1.00  0.00     0.019 C 
ENDBRANCH  13  16
ENDBRANCH   9  12
ENDBRANCH   5   6
ENDBRANCH   2   5
BRANCH   1  19
HETATM   19  C   UNL     1      43.391 -16.756   5.022  1.00  0.00     0.157 A 
HETATM   20  C   UNL     1      43.543 -18.052   4.445  1.00  0.00     0.029 A 
HETATM   21  C   UNL     1      43.567 -18.586   3.141  1.00  0.00     0.023 A 
HETATM   22  C   UNL     1      43.704 -18.913   5.524  1.00  0.00     0.063 A 
HETATM   23  C   UNL     1      43.752 -19.967   2.960  1.00  0.00    -0.061 A 
HETATM   24  C   UNL     1      43.784 -20.557   1.580  1.00  0.00     0.048 C 
HETATM   25  C   UNL     1      43.909 -20.800   4.076  1.00  0.00     0.009 A 
HETATM   26  C   UNL     1      43.888 -20.290   5.379  1.00  0.00     0.032 A 
HETATM   27  N   UNL     1      43.639 -18.116   6.632  1.00  0.00    -0.277 N 
HETATM   28  H   UNL     1      43.718 -18.407   7.600  1.00  0.00     0.189 HD
HETATM   29  N   UNL     1      43.457 -16.810   6.371  1.00  0.00    -0.168 NA
ENDBRANCH   1  19
TORSDOF 5
ENDMDL
MODEL 5
REMARK VINA RESULT:      -8.3      4.054      8.062
REMARK  5 active torsions:
REMARK  status: ('A' for Active; 'I' for Inactive)
REMARK    1  A    between atoms: C_9  and  C_10 
REMARK       I    between atoms: C_10  and  N_11 
REMARK    2  A    between atoms: N_11  and  C_12 
REMARK    3  A    between atoms: C_12  and  C_13 
REMARK    4  A    between atoms: C_16  and  N_17 
REMARK       I    between atoms: N_17  and  C_18 
REMARK    5  A    between atoms: C_18  and  C_19 
ROOT
HETATM    1  C   UNL     1      43.178 -15.500   4.265  1.00  0.00     0.273 C 
HETATM    2  N   UNL     1      42.479 -14.581   5.015  1.00  0.00    -0.351 N 
HETATM    3  O   UNL     1      43.573 -15.270   3.124  1.00  0.00    -0.266 OA
HETATM    4  H   UNL     1      42.303 -14.841   5.982  1.00  0.00     0.163 HD
ENDROOT
BRANCH   2   5
HETATM    5  C   UNL     1      42.314 -13.225   4.570  1.00  0.00     0.161 C 
BRANCH   5   6
HETATM    6  C   UNL     1      41.479 -13.152   3.323  1.00  0.00    -0.040 A 
HETATM    7  C   UNL     1      41.933 -12.447   2.202  1.00  0.00     0.011 A 
HETATM    8  C   UNL     1      41.161 -12.383   1.036  1.00  0.00     0.030 A 
HETATM    9  C   UNL     1      39.920 -13.018   0.970  1.00  0.00     0.034 A 
HETATM   10  C   UNL     1      39.455 -13.703   2.099  1.00  0.00     0.030 A 
HETATM   11  C   UNL     1      40.223 -13.766   3.267  1.00  0.00     0.011 A 
BRANCH   9  12
HETATM   12  N   UNL     1      39.092 -13.022  -0.171  1.00  0.00    -0.327 N 
HETATM   13  C   UNL     1      39.064 -13.957  -1.195  1.00  0.00     0.225 C 
HETATM   14  O   UNL     1      39.777 -14.950  -1.285  1.00  0.00    -0.273 OA
HETATM   15  H   UNL     1      38.428 -12.261  -0.233  1.00  0.00     0.169 HD
BRANCH  13  16
HETATM   16  C   UNL     1      38.006 -13.626  -2.256  1.00  0.00     0.070 C 
HETATM   17  C   UNL     1      38.030 -12.138  -2.602  1.00  0.00     0.019 C 
HETATM   18  C   UNL     1      38.213 -14.462  -3.518  1.00  0.00     0.019 C 
ENDBRANCH  13  16
ENDBRANCH   9  12
ENDBRANCH   5   6
ENDBRANCH   2   5
BRANCH   1  19
HETATM   19  C   UNL     1      43.421 -16.769   4.968  1.00  0.00     0.157 A 
HETATM   20  C   UNL     1      43.563 -18.065   4.388  1.00  0.00     0.029 A 
HETATM   21  C   UNL     1      43.528 -18.603   3.085  1.00  0.00     0.023 A 
HETATM   22  C   UNL     1      43.789 -18.919   5.459  1.00  0.00     0.063 A 
HETATM   23  C   UNL     1      43.723 -19.982   2.900  1.00  0.00    -0.061 A 
HETATM   24  C   UNL     1      43.694 -20.576   1.521  1.00  0.00     0.048 C 
HETATM   25  C   UNL     1      43.948 -20.808   4.009  1.00  0.00     0.009 A 
HETATM   26  C   UNL     1      43.985 -20.295   5.310  1.00  0.00     0.032 A 
HETATM   27  N   UNL     1      43.769 -18.120   6.567  1.00  0.00    -0.277 N 
HETATM   28  H   UNL     1      43.901 -18.406   7.531  1.00  0.00     0.189 HD
HETATM   29  N   UNL     1      43.555 -16.817   6.312  1.00  0.00    -0.168 NA
ENDBRANCH   1  19
TORSDOF 5
ENDMDL
MODEL 6
REMARK VINA RESULT:      -8.2      2.537      9.703
REMARK  5 active torsions:
REMARK  status: ('A' for Active; 'I' for Inactive)
REMARK    1  A    between atoms: C_9  and  C_10 
REMARK       I    between atoms: C_10  and  N_11 
REMARK    2  A    between atoms: N_11  and  C_12 
REMARK    3  A    between atoms: C_12  and  C_13 
REMARK    4  A    between atoms: C_16  and  N_17 
REMARK       I    between atoms: N_17  and  C_18 
REMARK    5  A    between atoms: C_18  and  C_19 
ROOT
HETATM    1  C   UNL     1      43.608 -13.195   6.010  1.00  0.00     0.273 C 
HETATM    2  N   UNL     1      44.064 -11.916   5.781  1.00  0.00    -0.351 N 
HETATM    3  O   UNL     1      44.178 -13.983   6.761  1.00  0.00    -0.266 OA
HETATM    4  H   UNL     1      43.452 -11.319   5.232  1.00  0.00     0.163 HD
ENDROOT
BRANCH   2   5
HETATM    5  C   UNL     1      45.150 -11.363   6.542  1.00  0.00     0.161 C 
BRANCH   5   6
HETATM    6  C   UNL     1      44.658 -10.668   7.781  1.00  0.00    -0.040 A 
HETATM    7  C   UNL     1      45.493 -10.520   8.894  1.00  0.00     0.011 A 
HETATM    8  C   UNL     1      45.041  -9.867  10.046  1.00  0.00     0.030 A 
HETATM    9  C   UNL     1      43.744  -9.355  10.109  1.00  0.00     0.034 A 
HETATM   10  C   UNL     1      42.901  -9.523   9.004  1.00  0.00     0.030 A 
HETATM   11  C   UNL     1      43.350 -10.178   7.853  1.00  0.00     0.011 A 
BRANCH   9  12
HETATM   12  N   UNL     1      43.219  -8.664  11.221  1.00  0.00    -0.327 N 
HETATM   13  C   UNL     1      42.760  -9.201  12.414  1.00  0.00     0.225 C 
HETATM   14  O   UNL     1      42.725 -10.393  12.703  1.00  0.00    -0.273 OA
HETATM   15  H   UNL     1      43.195  -7.656  11.138  1.00  0.00     0.169 HD
BRANCH  13  16
HETATM   16  C   UNL     1      42.281  -8.121  13.392  1.00  0.00     0.070 C 
HETATM   17  C   UNL     1      41.629  -8.752  14.621  1.00  0.00     0.019 C 
HETATM   18  C   UNL     1      43.434  -7.213  13.817  1.00  0.00     0.019 C 
ENDBRANCH  13  16
ENDBRANCH   9  12
ENDBRANCH   5   6
ENDBRANCH   2   5
BRANCH   1  19
HETATM   19  C   UNL     1      42.367 -13.513   5.289  1.00  0.00     0.157 A 
HETATM   20  C   UNL     1      42.167 -14.551   4.330  1.00  0.00     0.029 A 
HETATM   21  C   UNL     1      42.960 -15.561   3.748  1.00  0.00     0.023 A 
HETATM   22  C   UNL     1      40.834 -14.446   3.955  1.00  0.00     0.063 A 
HETATM   23  C   UNL     1      42.388 -16.434   2.808  1.00  0.00    -0.061 A 
HETATM   24  C   UNL     1      43.213 -17.519   2.177  1.00  0.00     0.048 C 
HETATM   25  C   UNL     1      41.039 -16.293   2.457  1.00  0.00     0.009 A 
HETATM   26  C   UNL     1      40.235 -15.297   3.022  1.00  0.00     0.032 A 
HETATM   27  N   UNL     1      40.338 -13.398   4.677  1.00  0.00    -0.277 N 
HETATM   28  H   UNL     1      39.392 -13.035   4.659  1.00  0.00     0.189 HD
HETATM   29  N   UNL     1      41.229 -12.813   5.497  1.00  0.00    -0.168 NA
ENDBRANCH   1  19
TORSDOF 5
ENDMDL
MODEL 7
REMARK VINA RESULT:      -7.9      2.214      8.666
REMARK  5 active torsions:
REMARK  status: ('A' for Active; 'I' for Inactive)
REMARK    1  A    between atoms: C_9  and  C_10 
REMARK       I    between atoms: C_10  and  N_11 
REMARK    2  A    between atoms: N_11  and  C_12 
REMARK    3  A    between atoms: C_12  and  C_13 
REMARK    4  A    between atoms: C_16  and  N_17 
REMARK       I    between atoms: N_17  and  C_18 
REMARK    5  A    between atoms: C_18  and  C_19 
ROOT
HETATM    1  C   UNL     1      42.261 -13.423   2.997  1.00  0.00     0.273 C 
HETATM    2  N   UNL     1      43.340 -12.641   3.345  1.00  0.00    -0.351 N 
HETATM    3  O   UNL     1      41.098 -13.037   3.089  1.00  0.00    -0.266 OA
HETATM    4  H   UNL     1      44.255 -13.022   3.120  1.00  0.00     0.163 HD
ENDROOT
BRANCH   2   5
HETATM    5  C   UNL     1      43.178 -11.254   3.681  1.00  0.00     0.161 C 
BRANCH   5   6
HETATM    6  C   UNL     1      43.246 -11.035   5.167  1.00  0.00    -0.040 A 
HETATM    7  C   UNL     1      44.219 -11.679   5.939  1.00  0.00     0.011 A 
HETATM    8  C   UNL     1      44.290 -11.472   7.321  1.00  0.00     0.030 A 
HETATM    9  C   UNL     1      43.386 -10.621   7.958  1.00  0.00     0.034 A 
HETATM   10  C   UNL     1      42.397  -9.993   7.190  1.00  0.00     0.030 A 
HETATM   11  C   UNL     1      42.323 -10.202   5.809  1.00  0.00     0.011 A 
BRANCH   9  12
HETATM   12  N   UNL     1      43.402 -10.339   9.340  1.00  0.00    -0.327 N 
HETATM   13  C   UNL     1      44.109  -9.342   9.994  1.00  0.00     0.225 C 
HETATM   14  O   UNL     1      44.863  -8.528   9.469  1.00  0.00    -0.273 OA
HETATM   15  H   UNL     1      42.809 -10.925   9.913  1.00  0.00     0.169 HD
BRANCH  13  16
HETATM   16  C   UNL     1      43.851  -9.341  11.506  1.00  0.00     0.070 C 
HETATM   17  C   UNL     1      42.776  -8.319  11.872  1.00  0.00     0.019 C 
HETATM   18  C   UNL     1      43.445 -10.730  11.996  1.00  0.00     0.019 C 
ENDBRANCH  13  16
ENDBRANCH   9  12
ENDBRANCH   5   6
ENDBRANCH   2   5
BRANCH   1  19
HETATM   19  C   UNL     1      42.639 -14.749   2.486  1.00  0.00     0.157 A 
HETATM   20  C   UNL     1      42.991 -15.901   3.252  1.00  0.00     0.029 A 
HETATM   21  C   UNL     1      43.114 -16.210   4.622  1.00  0.00     0.023 A 
HETATM   22  C   UNL     1      43.249 -16.894   2.316  1.00  0.00     0.063 A 
HETATM   23  C   UNL     1      43.491 -17.507   5.008  1.00  0.00    -0.061 A 
HETATM   24  C   UNL     1      43.625 -17.860   6.462  1.00  0.00     0.048 C 
HETATM   25  C   UNL     1      43.743 -18.479   4.031  1.00  0.00     0.009 A 
HETATM   26  C   UNL     1      43.627 -18.193   2.666  1.00  0.00     0.032 A 
HETATM   27  N   UNL     1      43.047 -16.304   1.100  1.00  0.00    -0.277 N 
HETATM   28  H   UNL     1      43.144 -16.733   0.187  1.00  0.00     0.189 HD
HETATM   29  N   UNL     1      42.673 -15.013   1.161  1.00  0.00    -0.168 NA
ENDBRANCH   1  19
TORSDOF 5
ENDMDL
MODEL 8
REMARK VINA RESULT:      -7.9      2.978      4.349
REMARK  5 active torsions:
REMARK  status: ('A' for Active; 'I' for Inactive)
REMARK    1  A    between atoms: C_9  and  C_10 
REMARK       I    between atoms: C_10  and  N_11 
REMARK    2  A    between atoms: N_11  and  C_12 
REMARK    3  A    between atoms: C_12  and  C_13 
REMARK    4  A    between atoms: C_16  and  N_17 
REMARK       I    between atoms: N_17  and  C_18 
REMARK    5  A    between atoms: C_18  and  C_19 
ROOT
HETATM    1  C   UNL     1      42.914 -12.228   6.268  1.00  0.00     0.273 C 
HETATM    2  N   UNL     1      43.158 -13.496   5.789  1.00  0.00    -0.351 N 
HETATM    3  O   UNL     1      41.785 -11.748   6.344  1.00  0.00    -0.266 OA
HETATM    4  H   UNL     1      44.115 -13.826   5.878  1.00  0.00     0.163 HD
ENDROOT
BRANCH   2   5
HETATM    5  C   UNL     1      42.083 -14.405   5.504  1.00  0.00     0.161 C 
BRANCH   5   6
HETATM    6  C   UNL     1      41.790 -14.468   4.031  1.00  0.00    -0.040 A 
HETATM    7  C   UNL     1      40.785 -15.310   3.539  1.00  0.00     0.011 A 
HETATM    8  C   UNL     1      40.504 -15.365   2.169  1.00  0.00     0.030 A 
HETATM    9  C   UNL     1      41.226 -14.585   1.265  1.00  0.00     0.034 A 
HETATM   10  C   UNL     1      42.247 -13.760   1.753  1.00  0.00     0.030 A 
HETATM   11  C   UNL     1      42.531 -13.706   3.121  1.00  0.00     0.011 A 
BRANCH   9  12
HETATM   12  N   UNL     1      40.991 -14.564  -0.126  1.00  0.00    -0.327 N 
HETATM   13  C   UNL     1      40.039 -13.828  -0.814  1.00  0.00     0.225 C 
HETATM   14  O   UNL     1      39.217 -13.065  -0.316  1.00  0.00    -0.273 OA
HETATM   15  H   UNL     1      41.608 -15.141  -0.682  1.00  0.00     0.169 HD
BRANCH  13  16
HETATM   16  C   UNL     1      40.108 -14.059  -2.329  1.00  0.00     0.070 C 
HETATM   17  C   UNL     1      38.719 -14.339  -2.900  1.00  0.00     0.019 C 
HETATM   18  C   UNL     1      40.737 -12.861  -3.039  1.00  0.00     0.019 C 
ENDBRANCH  13  16
ENDBRANCH   9  12
ENDBRANCH   5   6
ENDBRANCH   2   5
BRANCH   1  19
HETATM   19  C   UNL     1      44.129 -11.519   6.697  1.00  0.00     0.157 A 
HETATM   20  C   UNL     1      44.358 -10.881   7.952  1.00  0.00     0.029 A 
HETATM   21  C   UNL     1      43.624 -10.681   9.139  1.00  0.00     0.023 A 
HETATM   22  C   UNL     1      45.650 -10.374   7.871  1.00  0.00     0.063 A 
HETATM   23  C   UNL     1      44.209  -9.980  10.207  1.00  0.00    -0.061 A 
HETATM   24  C   UNL     1      43.447  -9.759  11.481  1.00  0.00     0.048 C 
HETATM   25  C   UNL     1      45.514  -9.485  10.082  1.00  0.00     0.009 A 
HETATM   26  C   UNL     1      46.260  -9.672   8.913  1.00  0.00     0.032 A 
HETATM   27  N   UNL     1      46.095 -10.723   6.627  1.00  0.00    -0.277 N 
HETATM   28  H   UNL     1      47.001 -10.518   6.222  1.00  0.00     0.189 HD
HETATM   29  N   UNL     1      45.210 -11.418   5.891  1.00  0.00    -0.168 NA
ENDBRANCH   1  19
TORSDOF 5
ENDMDL
MODEL 9
REMARK VINA RESULT:      -7.5     16.157     18.313
REMARK  5 active torsions:
REMARK  status: ('A' for Active; 'I' for Inactive)
REMARK    1  A    between atoms: C_9  and  C_10 
REMARK       I    between atoms: C_10  and  N_11 
REMARK    2  A    between atoms: N_11  and  C_12 
REMARK    3  A    between atoms: C_12  and  C_13 
REMARK    4  A    between atoms: C_16  and  N_17 
REMARK       I    between atoms: N_17  and  C_18 
REMARK    5  A    between atoms: C_18  and  C_19 
ROOT
HETATM    1  C   UNL     1      46.258 -28.623   1.574  1.00  0.00     0.273 C 
HETATM    2  N   UNL     1      45.402 -28.870   0.523  1.00  0.00    -0.351 N 
HETATM    3  O   UNL     1      47.024 -27.663   1.601  1.00  0.00    -0.266 OA
HETATM    4  H   UNL     1      44.738 -29.627   0.661  1.00  0.00     0.163 HD
ENDROOT
BRANCH   2   5
HETATM    5  C   UNL     1      45.231 -27.919  -0.539  1.00  0.00     0.161 C 
BRANCH   5   6
HETATM    6  C   UNL     1      45.081 -28.600  -1.871  1.00  0.00    -0.040 A 
HETATM    7  C   UNL     1      45.358 -27.912  -3.058  1.00  0.00     0.011 A 
HETATM    8  C   UNL     1      45.226 -28.545  -4.300  1.00  0.00     0.030 A 
HETATM    9  C   UNL     1      44.811 -29.875  -4.378  1.00  0.00     0.034 A 
HETATM   10  C   UNL     1      44.512 -30.557  -3.191  1.00  0.00     0.030 A 
HETATM   11  C   UNL     1      44.640 -29.925  -1.950  1.00  0.00     0.011 A 
BRANCH   9  12
HETATM   12  N   UNL     1      44.676 -30.593  -5.584  1.00  0.00    -0.327 N 
HETATM   13  C   UNL     1      45.585 -31.471  -6.155  1.00  0.00     0.225 C 
HETATM   14  O   UNL     1      46.685 -31.768  -5.701  1.00  0.00    -0.273 OA
HETATM   15  H   UNL     1      43.801 -30.462  -6.075  1.00  0.00     0.169 HD
BRANCH  13  16
HETATM   16  C   UNL     1      45.066 -32.074  -7.466  1.00  0.00     0.070 C 
HETATM   17  C   UNL     1      44.549 -33.494  -7.244  1.00  0.00     0.019 C 
HETATM   18  C   UNL     1      43.967 -31.204  -8.075  1.00  0.00     0.019 C 
ENDBRANCH  13  16
ENDBRANCH   9  12
ENDBRANCH   5   6
ENDBRANCH   2   5
BRANCH   1  19
HETATM   19  C   UNL     1      46.148 -29.605   2.663  1.00  0.00     0.157 A 
HETATM   20  C   UNL     1      47.212 -30.170   3.427  1.00  0.00     0.029 A 
HETATM   21  C   UNL     1      48.616 -30.050   3.455  1.00  0.00     0.023 A 
HETATM   22  C   UNL     1      46.595 -31.025   4.332  1.00  0.00     0.063 A 
HETATM   23  C   UNL     1      49.357 -30.791   4.391  1.00  0.00    -0.061 A 
HETATM   24  C   UNL     1      50.853 -30.676   4.441  1.00  0.00     0.048 C 
HETATM   25  C   UNL     1      48.694 -31.643   5.285  1.00  0.00     0.009 A 
HETATM   26  C   UNL     1      47.302 -31.777   5.274  1.00  0.00     0.032 A 
HETATM   27  N   UNL     1      45.259 -30.927   4.066  1.00  0.00    -0.277 N 
HETATM   28  H   UNL     1      44.504 -31.413   4.536  1.00  0.00     0.189 HD
HETATM   29  N   UNL     1      44.948 -30.077   3.071  1.00  0.00    -0.168 NA
ENDBRANCH   1  19
TORSDOF 5
ENDMDL
MODEL 10
REMARK VINA RESULT:      -7.4      3.013      3.788
REMARK  5 active torsions:
REMARK  status: ('A' for Active; 'I' for Inactive)
REMARK    1  A    between atoms: C_9  and  C_10 
REMARK       I    between atoms: C_10  and  N_11 
REMARK    2  A    between atoms: N_11  and  C_12 
REMARK    3  A    between atoms: C_12  and  C_13 
REMARK    4  A    between atoms: C_16  and  N_17 
REMARK       I    between atoms: N_17  and  C_18 
REMARK    5  A    between atoms: C_18  and  C_19 
ROOT
HETATM    1  C   UNL     1      39.941  -9.640   7.622  1.00  0.00     0.273 C 
HETATM    2  N   UNL     1      40.189 -10.937   7.230  1.00  0.00    -0.351 N 
HETATM    3  O   UNL     1      39.408  -8.810   6.889  1.00  0.00    -0.266 OA
HETATM    4  H   UNL     1      40.530 -11.561   7.956  1.00  0.00     0.163 HD
ENDROOT
BRANCH   2   5
HETATM    5  C   UNL     1      39.681 -11.451   5.989  1.00  0.00     0.161 C 
BRANCH   5   6
HETATM    6  C   UNL     1      40.491 -12.621   5.504  1.00  0.00    -0.040 A 
HETATM    7  C   UNL     1      41.351 -12.487   4.408  1.00  0.00     0.011 A 
HETATM    8  C   UNL     1      42.112 -13.573   3.958  1.00  0.00     0.030 A 
HETATM    9  C   UNL     1      42.023 -14.813   4.592  1.00  0.00     0.034 A 
HETATM   10  C   UNL     1      41.145 -14.953   5.674  1.00  0.00     0.030 A 
HETATM   11  C   UNL     1      40.381 -13.871   6.123  1.00  0.00     0.011 A 
BRANCH   9  12
HETATM   12  N   UNL     1      42.770 -15.949   4.218  1.00  0.00    -0.327 N 
HETATM   13  C   UNL     1      42.588 -16.756   3.106  1.00  0.00     0.225 C 
HETATM   14  O   UNL     1      41.720 -16.620   2.250  1.00  0.00    -0.273 OA
HETATM   15  H   UNL     1      43.543 -16.184   4.828  1.00  0.00     0.169 HD
BRANCH  13  16
HETATM   16  C   UNL     1      43.619 -17.888   3.033  1.00  0.00     0.070 C 
HETATM   17  C   UNL     1      44.038 -18.334   4.434  1.00  0.00     0.019 C 
HETATM   18  C   UNL     1      43.076 -19.078   2.244  1.00  0.00     0.019 C 
ENDBRANCH  13  16
ENDBRANCH   9  12
ENDBRANCH   5   6
ENDBRANCH   2   5
BRANCH   1  19
HETATM   19  C   UNL     1      40.357  -9.356   9.004  1.00  0.00     0.157 A 
HETATM   20  C   UNL     1      41.691  -9.247   9.499  1.00  0.00     0.029 A 
HETATM   21  C   UNL     1      42.988  -9.357   8.956  1.00  0.00     0.023 A 
HETATM   22  C   UNL     1      41.554  -8.958  10.851  1.00  0.00     0.063 A 
HETATM   23  C   UNL     1      44.105  -9.171   9.787  1.00  0.00    -0.061 A 
HETATM   24  C   UNL     1      45.495  -9.280   9.229  1.00  0.00     0.048 C 
HETATM   25  C   UNL     1      43.921  -8.882  11.145  1.00  0.00     0.009 A 
HETATM   26  C   UNL     1      42.644  -8.769  11.705  1.00  0.00     0.032 A 
HETATM   27  N   UNL     1      40.207  -8.915  11.074  1.00  0.00    -0.277 N 
HETATM   28  H   UNL     1      39.738  -8.727  11.953  1.00  0.00     0.189 HD
HETATM   29  N   UNL     1      39.452  -9.144   9.985  1.00  0.00    -0.168 NA
ENDBRANCH   1  19
TORSDOF 5
ENDMDL
