MODEL 1
REMARK VINA RESULT:      -8.4      0.000      0.000
REMARK  9 active torsions:
REMARK  status: ('A' for Active; 'I' for Inactive)
REMARK    1  A    between atoms: C_2  and  O_3 
REMARK    2  A    between atoms: O_3  and  C_4 
REMARK    3  A    between atoms: C_5  and  C_6 
REMARK    4  A    between atoms: N_7  and  C_9 
REMARK    5  A    between atoms: C_9  and  C_10 
REMARK       I    between atoms: C_10  and  N_11 
REMARK    6  A    between atoms: N_11  and  C_12 
REMARK    7  A    between atoms: C_20  and  C_21 
REMARK    8  A    between atoms: C_21  and  O_22 
REMARK    9  A    between atoms: C_28  and  O_29 
ROOT
HETATM    1  C   UNL     1      42.089  -9.136   7.669  1.00  0.00     0.231 C 
HETATM    2  N   UNL     1      41.148 -10.213   7.102  1.00  0.00    -0.054 N 
HETATM    3  H   UNL     1      41.506 -11.102   7.497  1.00  0.00     0.281 HD
HETATM    4  C   UNL     1      39.703 -10.127   7.528  1.00  0.00     0.239 C 
HETATM    5  C   UNL     1      39.132  -8.739   7.309  1.00  0.00     0.066 C 
HETATM    6  C   UNL     1      39.973  -7.664   8.000  1.00  0.00     0.065 C 
HETATM    7  C   UNL     1      41.431  -7.739   7.499  1.00  0.00     0.055 C 
HETATM    8  C   UNL     1      39.372  -6.270   7.727  1.00  0.00     0.038 C 
HETATM    9  C   UNL     1      40.233  -5.144   8.297  1.00  0.00     0.003 C 
HETATM   10  C   UNL     1      41.665  -5.228   7.785  1.00  0.00     0.001 C 
HETATM   11  C   UNL     1      42.287  -6.593   8.071  1.00  0.00     0.010 C 
ENDROOT
BRANCH   2  12
HETATM   12  C   UNL     1      41.295 -10.442   5.588  1.00  0.00     0.338 C 
BRANCH  12  13
HETATM   13  C   UNL     1      41.246 -11.947   5.297  1.00  0.00     0.248 C 
HETATM   14  N   UNL     1      42.480 -12.513   5.049  1.00  0.00    -0.319 N 
HETATM   15  H   UNL     1      43.320 -11.932   5.083  1.00  0.00     0.169 HD
HETATM   16  O   UNL     1      40.134 -12.454   5.161  1.00  0.00    -0.271 OA
BRANCH  14  17
HETATM   17  C   UNL     1      42.714 -13.790   4.544  1.00  0.00     0.094 A 
HETATM   18  S   UNL     1      42.844 -14.066   2.876  1.00  0.00    -0.075 SA
HETATM   19  C   UNL     1      43.115 -15.721   3.101  1.00  0.00    -0.008 A 
HETATM   20  C   UNL     1      43.125 -16.088   4.435  1.00  0.00    -0.026 A 
HETATM   21  C   UNL     1      43.358 -16.639   1.940  1.00  0.00     0.047 C 
HETATM   22  C   UNL     1      43.369 -17.518   4.842  1.00  0.00     0.041 C 
HETATM   23  C   UNL     1      42.854 -14.954   5.297  1.00  0.00     0.080 A 
HETATM   24  C   UNL     1      43.943 -18.366   3.696  1.00  0.00     0.005 C 
HETATM   25  C   UNL     1      43.217 -18.103   2.372  1.00  0.00     0.005 C 
BRANCH  23  26
HETATM   26  C   UNL     1      42.767 -14.926   6.762  1.00  0.00     0.296 C 
HETATM   27  O   UNL     1      43.477 -14.184   7.439  1.00  0.00    -0.259 OA
BRANCH  26  28
HETATM   28  O   UNL     1      41.848 -15.788   7.273  1.00  0.00    -0.322 OA
HETATM   29  C   UNL     1      40.529 -15.652   6.741  1.00  0.00     0.213 C 
ENDBRANCH  26  28
ENDBRANCH  23  26
ENDBRANCH  14  17
ENDBRANCH  12  13
ENDBRANCH   2  12
BRANCH   1  30
HETATM   30  C   UNL     1      42.726  -9.497   9.015  1.00  0.00     0.006 A 
HETATM   31  C   UNL     1      44.117  -9.755   9.101  1.00  0.00     0.077 A 
HETATM   32  C   UNL     1      44.700 -10.110  10.328  1.00  0.00     0.037 A 
HETATM   33  C   UNL     1      43.928 -10.201  11.483  1.00  0.00     0.003 A 
HETATM   34  C   UNL     1      42.570  -9.933  11.422  1.00  0.00     0.001 A 
HETATM   35  C   UNL     1      41.981  -9.581  10.206  1.00  0.00     0.012 A 
BRANCH  31  36
HETATM   36  O   UNL     1      44.835  -9.640   7.933  1.00  0.00    -0.351 OA
BRANCH  36  37
HETATM   37  C   UNL     1      45.905 -10.571   7.733  1.00  0.00     0.171 C 
HETATM   38  C   UNL     1      45.593 -11.406   6.505  1.00  0.00     0.034 C 
ENDBRANCH  36  37
ENDBRANCH  31  36
ENDBRANCH   1  30
BRANCH   6  39
HETATM   39  O   UNL     1      39.935  -7.934   9.398  1.00  0.00    -0.389 OA
HETATM   40  H   UNL     1      40.218  -7.146   9.901  1.00  0.00     0.210 HD
ENDBRANCH   6  39
TORSDOF 9
ENDMDL
MODEL 2
REMARK VINA RESULT:      -8.3      2.773      8.392
REMARK  9 active torsions:
REMARK  status: ('A' for Active; 'I' for Inactive)
REMARK    1  A    between atoms: C_2  and  O_3 
REMARK    2  A    between atoms: O_3  and  C_4 
REMARK    3  A    between atoms: C_5  and  C_6 
REMARK    4  A    between atoms: N_7  and  C_9 
REMARK    5  A    between atoms: C_9  and  C_10 
REMARK       I    between atoms: C_10  and  N_11 
REMARK    6  A    between atoms: N_11  and  C_12 
REMARK    7  A    between atoms: C_20  and  C_21 
REMARK    8  A    between atoms: C_21  and  O_22 
REMARK    9  A    between atoms: C_28  and  O_29 
ROOT
HETATM    1  C   UNL     1      40.574 -14.528   2.981  1.00  0.00     0.231 C 
HETATM    2  N   UNL     1      40.846 -13.272   3.827  1.00  0.00    -0.054 N 
HETATM    3  H   UNL     1      41.349 -13.627   4.660  1.00  0.00     0.281 HD
HETATM    4  C   UNL     1      41.752 -12.235   3.210  1.00  0.00     0.239 C 
HETATM    5  C   UNL     1      41.307 -11.860   1.809  1.00  0.00     0.066 C 
HETATM    6  C   UNL     1      41.181 -13.087   0.905  1.00  0.00     0.065 C 
HETATM    7  C   UNL     1      40.203 -14.101   1.533  1.00  0.00     0.055 C 
HETATM    8  C   UNL     1      40.701 -12.659  -0.497  1.00  0.00     0.038 C 
HETATM    9  C   UNL     1      40.447 -13.855  -1.413  1.00  0.00     0.003 C 
HETATM   10  C   UNL     1      39.472 -14.840  -0.781  1.00  0.00     0.001 C 
HETATM   11  C   UNL     1      39.945 -15.296   0.597  1.00  0.00     0.010 C 
ENDROOT
BRANCH   2  12
HETATM   12  C   UNL     1      39.584 -12.647   4.446  1.00  0.00     0.338 C 
BRANCH  12  13
HETATM   13  C   UNL     1      39.932 -12.062   5.821  1.00  0.00     0.248 C 
HETATM   14  N   UNL     1      40.780 -10.974   5.771  1.00  0.00    -0.319 N 
HETATM   15  H   UNL     1      41.104 -10.625   4.867  1.00  0.00     0.169 HD
HETATM   16  O   UNL     1      39.562 -12.695   6.807  1.00  0.00    -0.271 OA
BRANCH  14  17
HETATM   17  C   UNL     1      41.433 -10.388   6.853  1.00  0.00     0.094 A 
HETATM   18  S   UNL     1      40.652  -9.258   7.845  1.00  0.00    -0.075 SA
HETATM   19  C   UNL     1      42.017  -9.072   8.828  1.00  0.00    -0.008 A 
HETATM   20  C   UNL     1      43.077  -9.868   8.431  1.00  0.00    -0.026 A 
HETATM   21  C   UNL     1      42.006  -8.160  10.018  1.00  0.00     0.047 C 
HETATM   22  C   UNL     1      44.377  -9.859   9.191  1.00  0.00     0.041 C 
HETATM   23  C   UNL     1      42.750 -10.628   7.239  1.00  0.00     0.080 A 
HETATM   24  C   UNL     1      44.246  -9.199  10.573  1.00  0.00     0.005 C 
HETATM   25  C   UNL     1      43.434  -7.901  10.511  1.00  0.00     0.005 C 
BRANCH  23  26
HETATM   26  C   UNL     1      43.599 -11.571   6.502  1.00  0.00     0.296 C 
HETATM   27  O   UNL     1      43.428 -12.787   6.571  1.00  0.00    -0.259 OA
BRANCH  26  28
HETATM   28  O   UNL     1      44.570 -10.973   5.763  1.00  0.00    -0.322 OA
HETATM   29  C   UNL     1      45.908 -11.249   6.182  1.00  0.00     0.213 C 
ENDBRANCH  26  28
ENDBRANCH  23  26
ENDBRANCH  14  17
ENDBRANCH  12  13
ENDBRANCH   2  12
BRANCH   1  30
HETATM   30  C   UNL     1      41.588 -15.659   3.183  1.00  0.00     0.006 A 
HETATM   31  C   UNL     1      42.157 -15.889   4.460  1.00  0.00     0.077 A 
HETATM   32  C   UNL     1      43.104 -16.910   4.643  1.00  0.00     0.037 A 
HETATM   33  C   UNL     1      43.491 -17.721   3.580  1.00  0.00     0.003 A 
HETATM   34  C   UNL     1      42.931 -17.524   2.328  1.00  0.00     0.001 A 
HETATM   35  C   UNL     1      41.988 -16.511   2.137  1.00  0.00     0.012 A 
BRANCH  31  36
HETATM   36  O   UNL     1      41.732 -15.067   5.477  1.00  0.00    -0.351 OA
BRANCH  36  37
HETATM   37  C   UNL     1      41.358 -15.696   6.709  1.00  0.00     0.171 C 
HETATM   38  C   UNL     1      39.938 -16.214   6.573  1.00  0.00     0.034 C 
ENDBRANCH  36  37
ENDBRANCH  31  36
ENDBRANCH   1  30
BRANCH   6  39
HETATM   39  O   UNL     1      42.477 -13.672   0.807  1.00  0.00    -0.389 OA
HETATM   40  H   UNL     1      43.162 -12.975   0.808  1.00  0.00     0.210 HD
ENDBRANCH   6  39
TORSDOF 9
ENDMDL
MODEL 3
REMARK VINA RESULT:      -8.3      1.396      2.040
REMARK  9 active torsions:
REMARK  status: ('A' for Active; 'I' for Inactive)
REMARK    1  A    between atoms: C_2  and  O_3 
REMARK    2  A    between atoms: O_3  and  C_4 
REMARK    3  A    between atoms: C_5  and  C_6 
REMARK    4  A    between atoms: N_7  and  C_9 
REMARK    5  A    between atoms: C_9  and  C_10 
REMARK       I    between atoms: C_10  and  N_11 
REMARK    6  A    between atoms: N_11  and  C_12 
REMARK    7  A    between atoms: C_20  and  C_21 
REMARK    8  A    between atoms: C_21  and  O_22 
REMARK    9  A    between atoms: C_28  and  O_29 
ROOT
HETATM    1  C   UNL     1      42.013  -9.346   7.536  1.00  0.00     0.231 C 
HETATM    2  N   UNL     1      41.039 -10.476   7.161  1.00  0.00    -0.054 N 
HETATM    3  H   UNL     1      41.374 -11.295   7.700  1.00  0.00     0.281 HD
HETATM    4  C   UNL     1      39.600 -10.278   7.566  1.00  0.00     0.239 C 
HETATM    5  C   UNL     1      39.067  -8.931   7.115  1.00  0.00     0.066 C 
HETATM    6  C   UNL     1      39.942  -7.779   7.613  1.00  0.00     0.065 C 
HETATM    7  C   UNL     1      41.395  -7.979   7.132  1.00  0.00     0.055 C 
HETATM    8  C   UNL     1      39.379  -6.435   7.108  1.00  0.00     0.038 C 
HETATM    9  C   UNL     1      40.275  -5.254   7.478  1.00  0.00     0.003 C 
HETATM   10  C   UNL     1      41.701  -5.465   6.986  1.00  0.00     0.001 C 
HETATM   11  C   UNL     1      42.285  -6.778   7.500  1.00  0.00     0.010 C 
ENDROOT
BRANCH   2  12
HETATM   12  C   UNL     1      41.172 -10.963   5.707  1.00  0.00     0.338 C 
BRANCH  12  13
HETATM   13  C   UNL     1      41.362 -12.485   5.700  1.00  0.00     0.248 C 
HETATM   14  N   UNL     1      42.538 -12.902   5.109  1.00  0.00    -0.319 N 
HETATM   15  H   UNL     1      43.192 -12.210   4.739  1.00  0.00     0.169 HD
HETATM   16  O   UNL     1      40.409 -13.169   6.064  1.00  0.00    -0.271 OA
BRANCH  14  17
HETATM   17  C   UNL     1      42.868 -14.211   4.764  1.00  0.00     0.094 A 
HETATM   18  S   UNL     1      43.493 -15.292   5.910  1.00  0.00    -0.075 SA
HETATM   19  C   UNL     1      43.598 -16.543   4.776  1.00  0.00    -0.008 A 
HETATM   20  C   UNL     1      43.152 -16.169   3.521  1.00  0.00    -0.026 A 
HETATM   21  C   UNL     1      44.089 -17.907   5.159  1.00  0.00     0.047 C 
HETATM   22  C   UNL     1      43.149 -17.150   2.377  1.00  0.00     0.041 C 
HETATM   23  C   UNL     1      42.749 -14.776   3.496  1.00  0.00     0.080 A 
HETATM   24  C   UNL     1      43.325 -18.602   2.848  1.00  0.00     0.005 C 
HETATM   25  C   UNL     1      44.423 -18.729   3.909  1.00  0.00     0.005 C 
BRANCH  23  26
HETATM   26  C   UNL     1      42.233 -13.999   2.363  1.00  0.00     0.296 C 
HETATM   27  O   UNL     1      42.735 -12.926   2.032  1.00  0.00    -0.259 OA
BRANCH  26  28
HETATM   28  O   UNL     1      41.169 -14.574   1.742  1.00  0.00    -0.322 OA
HETATM   29  C   UNL     1      39.930 -14.470   2.445  1.00  0.00     0.213 C 
ENDBRANCH  26  28
ENDBRANCH  23  26
ENDBRANCH  14  17
ENDBRANCH  12  13
ENDBRANCH   2  12
BRANCH   1  30
HETATM   30  C   UNL     1      42.647  -9.492   8.923  1.00  0.00     0.006 A 
HETATM   31  C   UNL     1      44.055  -9.584   9.060  1.00  0.00     0.077 A 
HETATM   32  C   UNL     1      44.637  -9.741  10.328  1.00  0.00     0.037 A 
HETATM   33  C   UNL     1      43.847  -9.797  11.473  1.00  0.00     0.003 A 
HETATM   34  C   UNL     1      42.470  -9.688  11.361  1.00  0.00     0.001 A 
HETATM   35  C   UNL     1      41.882  -9.532  10.104  1.00  0.00     0.012 A 
BRANCH  31  36
HETATM   36  O   UNL     1      44.789  -9.512   7.900  1.00  0.00    -0.351 OA
BRANCH  36  37
HETATM   37  C   UNL     1      45.830 -10.481   7.728  1.00  0.00     0.171 C 
HETATM   38  C   UNL     1      45.292 -11.622   6.884  1.00  0.00     0.034 C 
ENDBRANCH  36  37
ENDBRANCH  31  36
ENDBRANCH   1  30
BRANCH   6  39
HETATM   39  O   UNL     1      39.903  -7.807   9.037  1.00  0.00    -0.389 OA
HETATM   40  H   UNL     1      40.758  -7.508   9.403  1.00  0.00     0.210 HD
ENDBRANCH   6  39
TORSDOF 9
ENDMDL
MODEL 4
REMARK VINA RESULT:      -8.3      2.659      8.568
REMARK  9 active torsions:
REMARK  status: ('A' for Active; 'I' for Inactive)
REMARK    1  A    between atoms: C_2  and  O_3 
REMARK    2  A    between atoms: O_3  and  C_4 
REMARK    3  A    between atoms: C_5  and  C_6 
REMARK    4  A    between atoms: N_7  and  C_9 
REMARK    5  A    between atoms: C_9  and  C_10 
REMARK       I    between atoms: C_10  and  N_11 
REMARK    6  A    between atoms: N_11  and  C_12 
REMARK    7  A    between atoms: C_20  and  C_21 
REMARK    8  A    between atoms: C_21  and  O_22 
REMARK    9  A    between atoms: C_28  and  O_29 
ROOT
HETATM    1  C   UNL     1      40.593 -14.548   3.007  1.00  0.00     0.231 C 
HETATM    2  N   UNL     1      40.903 -13.292   3.838  1.00  0.00    -0.054 N 
HETATM    3  H   UNL     1      41.415 -13.650   4.665  1.00  0.00     0.281 HD
HETATM    4  C   UNL     1      41.816 -12.277   3.198  1.00  0.00     0.239 C 
HETATM    5  C   UNL     1      41.352 -11.903   1.802  1.00  0.00     0.066 C 
HETATM    6  C   UNL     1      41.187 -13.133   0.910  1.00  0.00     0.065 C 
HETATM    7  C   UNL     1      40.202 -14.125   1.564  1.00  0.00     0.055 C 
HETATM    8  C   UNL     1      40.689 -12.707  -0.486  1.00  0.00     0.038 C 
HETATM    9  C   UNL     1      40.395 -13.905  -1.389  1.00  0.00     0.003 C 
HETATM   10  C   UNL     1      39.414 -14.867  -0.732  1.00  0.00     0.001 C 
HETATM   11  C   UNL     1      39.905 -15.322   0.641  1.00  0.00     0.010 C 
ENDROOT
BRANCH   2  12
HETATM   12  C   UNL     1      39.665 -12.639   4.477  1.00  0.00     0.338 C 
BRANCH  12  13
HETATM   13  C   UNL     1      40.031 -12.114   5.870  1.00  0.00     0.248 C 
HETATM   14  N   UNL     1      40.787 -10.959   5.855  1.00  0.00    -0.319 N 
HETATM   15  H   UNL     1      41.038 -10.529   4.962  1.00  0.00     0.169 HD
HETATM   16  O   UNL     1      39.762 -12.835   6.828  1.00  0.00    -0.271 OA
BRANCH  14  17
HETATM   17  C   UNL     1      41.443 -10.389   6.943  1.00  0.00     0.094 A 
HETATM   18  S   UNL     1      43.125 -10.504   7.115  1.00  0.00    -0.075 SA
HETATM   19  C   UNL     1      43.109  -9.620   8.558  1.00  0.00    -0.008 A 
HETATM   20  C   UNL     1      41.838  -9.214   8.925  1.00  0.00    -0.026 A 
HETATM   21  C   UNL     1      44.375  -9.302   9.294  1.00  0.00     0.047 C 
HETATM   22  C   UNL     1      41.617  -8.399  10.172  1.00  0.00     0.041 C 
HETATM   23  C   UNL     1      40.839  -9.695   7.990  1.00  0.00     0.080 A 
HETATM   24  C   UNL     1      42.921  -7.801  10.722  1.00  0.00     0.005 C 
HETATM   25  C   UNL     1      44.064  -8.821  10.717  1.00  0.00     0.005 C 
BRANCH  23  26
HETATM   26  C   UNL     1      39.386  -9.494   8.029  1.00  0.00     0.296 C 
HETATM   27  O   UNL     1      38.678 -10.047   8.869  1.00  0.00    -0.259 OA
BRANCH  26  28
HETATM   28  O   UNL     1      38.921  -8.660   7.062  1.00  0.00    -0.322 OA
HETATM   29  C   UNL     1      39.012  -7.267   7.367  1.00  0.00     0.213 C 
ENDBRANCH  26  28
ENDBRANCH  23  26
ENDBRANCH  14  17
ENDBRANCH  12  13
ENDBRANCH   2  12
BRANCH   1  30
HETATM   30  C   UNL     1      41.589 -15.697   3.198  1.00  0.00     0.006 A 
HETATM   31  C   UNL     1      41.951 -16.120   4.502  1.00  0.00     0.077 A 
HETATM   32  C   UNL     1      42.882 -17.155   4.680  1.00  0.00     0.037 A 
HETATM   33  C   UNL     1      43.455 -17.794   3.584  1.00  0.00     0.003 A 
HETATM   34  C   UNL     1      43.099 -17.408   2.303  1.00  0.00     0.001 A 
HETATM   35  C   UNL     1      42.174 -16.379   2.115  1.00  0.00     0.012 A 
BRANCH  31  36
HETATM   36  O   UNL     1      41.347 -15.463   5.548  1.00  0.00    -0.351 OA
BRANCH  36  37
HETATM   37  C   UNL     1      42.013 -15.507   6.816  1.00  0.00     0.171 C 
HETATM   38  C   UNL     1      42.958 -14.323   6.904  1.00  0.00     0.034 C 
ENDBRANCH  36  37
ENDBRANCH  31  36
ENDBRANCH   1  30
BRANCH   6  39
HETATM   39  O   UNL     1      42.470 -13.743   0.792  1.00  0.00    -0.389 OA
HETATM   40  H   UNL     1      42.838 -13.582  -0.098  1.00  0.00     0.210 HD
ENDBRANCH   6  39
TORSDOF 9
ENDMDL
MODEL 5
REMARK VINA RESULT:      -8.2      1.638      4.077
REMARK  9 active torsions:
REMARK  status: ('A' for Active; 'I' for Inactive)
REMARK    1  A    between atoms: C_2  and  O_3 
REMARK    2  A    between atoms: O_3  and  C_4 
REMARK    3  A    between atoms: C_5  and  C_6 
REMARK    4  A    between atoms: N_7  and  C_9 
REMARK    5  A    between atoms: C_9  and  C_10 
REMARK       I    between atoms: C_10  and  N_11 
REMARK    6  A    between atoms: N_11  and  C_12 
REMARK    7  A    between atoms: C_20  and  C_21 
REMARK    8  A    between atoms: C_21  and  O_22 
REMARK    9  A    between atoms: C_28  and  O_29 
ROOT
HETATM    1  C   UNL     1      42.282  -9.510   8.888  1.00  0.00     0.231 C 
HETATM    2  N   UNL     1      43.719  -9.882   8.484  1.00  0.00    -0.054 N 
HETATM    3  H   UNL     1      43.746  -9.732   7.459  1.00  0.00     0.281 HD
HETATM    4  C   UNL     1      44.817  -9.020   9.054  1.00  0.00     0.239 C 
HETATM    5  C   UNL     1      44.697  -8.876  10.560  1.00  0.00     0.066 C 
HETATM    6  C   UNL     1      43.319  -8.356  10.973  1.00  0.00     0.065 C 
HETATM    7  C   UNL     1      42.221  -9.292  10.425  1.00  0.00     0.055 C 
HETATM    8  C   UNL     1      43.235  -8.253  12.509  1.00  0.00     0.038 C 
HETATM    9  C   UNL     1      41.842  -7.847  12.988  1.00  0.00     0.003 C 
HETATM   10  C   UNL     1      40.773  -8.787  12.447  1.00  0.00     0.001 C 
HETATM   11  C   UNL     1      40.823  -8.880  10.924  1.00  0.00     0.010 C 
ENDROOT
BRANCH   2  12
HETATM   12  C   UNL     1      44.037 -11.383   8.605  1.00  0.00     0.338 C 
BRANCH  12  13
HETATM   13  C   UNL     1      44.199 -11.980   7.201  1.00  0.00     0.248 C 
HETATM   14  N   UNL     1      43.096 -12.680   6.756  1.00  0.00    -0.319 N 
HETATM   15  H   UNL     1      42.267 -12.749   7.349  1.00  0.00     0.169 HD
HETATM   16  O   UNL     1      45.316 -11.915   6.693  1.00  0.00    -0.271 OA
BRANCH  14  17
HETATM   17  C   UNL     1      43.040 -13.504   5.635  1.00  0.00     0.094 A 
HETATM   18  S   UNL     1      43.317 -12.893   4.079  1.00  0.00    -0.075 SA
HETATM   19  C   UNL     1      43.093 -14.411   3.366  1.00  0.00    -0.008 A 
HETATM   20  C   UNL     1      42.819 -15.403   4.291  1.00  0.00    -0.026 A 
HETATM   21  C   UNL     1      43.233 -14.608   1.886  1.00  0.00     0.047 C 
HETATM   22  C   UNL     1      42.605 -16.829   3.854  1.00  0.00     0.041 C 
HETATM   23  C   UNL     1      42.753 -14.868   5.637  1.00  0.00     0.080 A 
HETATM   24  C   UNL     1      43.078 -17.080   2.413  1.00  0.00     0.005 C 
HETATM   25  C   UNL     1      42.640 -15.958   1.465  1.00  0.00     0.005 C 
BRANCH  23  26
HETATM   26  C   UNL     1      42.475 -15.585   6.887  1.00  0.00     0.296 C 
HETATM   27  O   UNL     1      43.214 -15.489   7.866  1.00  0.00    -0.259 OA
BRANCH  26  28
HETATM   28  O   UNL     1      41.352 -16.348   6.844  1.00  0.00    -0.322 OA
HETATM   29  C   UNL     1      40.131 -15.621   6.689  1.00  0.00     0.213 C 
ENDBRANCH  26  28
ENDBRANCH  23  26
ENDBRANCH  14  17
ENDBRANCH  12  13
ENDBRANCH   2  12
BRANCH   1  30
HETATM   30  C   UNL     1      41.611  -8.486   7.966  1.00  0.00     0.006 A 
HETATM   31  C   UNL     1      40.313  -8.730   7.452  1.00  0.00     0.077 A 
HETATM   32  C   UNL     1      39.706  -7.805   6.588  1.00  0.00     0.037 A 
HETATM   33  C   UNL     1      40.358  -6.627   6.232  1.00  0.00     0.003 A 
HETATM   34  C   UNL     1      41.619  -6.362   6.742  1.00  0.00     0.001 A 
HETATM   35  C   UNL     1      42.231  -7.277   7.601  1.00  0.00     0.012 A 
BRANCH  31  36
HETATM   36  O   UNL     1      39.710  -9.902   7.843  1.00  0.00    -0.351 OA
BRANCH  36  37
HETATM   37  C   UNL     1      38.924 -10.589   6.861  1.00  0.00     0.171 C 
HETATM   38  C   UNL     1      39.835 -11.520   6.082  1.00  0.00     0.034 C 
ENDBRANCH  36  37
ENDBRANCH  31  36
ENDBRANCH   1  30
BRANCH   6  39
HETATM   39  O   UNL     1      43.170  -7.060  10.399  1.00  0.00    -0.389 OA
HETATM   40  H   UNL     1      43.485  -6.378  11.024  1.00  0.00     0.210 HD
ENDBRANCH   6  39
TORSDOF 9
ENDMDL
MODEL 6
REMARK VINA RESULT:      -8.2      2.094      4.531
REMARK  9 active torsions:
REMARK  status: ('A' for Active; 'I' for Inactive)
REMARK    1  A    between atoms: C_2  and  O_3 
REMARK    2  A    between atoms: O_3  and  C_4 
REMARK    3  A    between atoms: C_5  and  C_6 
REMARK    4  A    between atoms: N_7  and  C_9 
REMARK    5  A    between atoms: C_9  and  C_10 
REMARK       I    between atoms: C_10  and  N_11 
REMARK    6  A    between atoms: N_11  and  C_12 
REMARK    7  A    between atoms: C_20  and  C_21 
REMARK    8  A    between atoms: C_21  and  O_22 
REMARK    9  A    between atoms: C_28  and  O_29 
ROOT
HETATM    1  C   UNL     1      42.402  -9.560   8.675  1.00  0.00     0.231 C 
HETATM    2  N   UNL     1      43.889  -9.840   8.402  1.00  0.00    -0.054 N 
HETATM    3  H   UNL     1      43.997  -9.692   7.382  1.00  0.00     0.281 HD
HETATM    4  C   UNL     1      44.875  -8.908   9.060  1.00  0.00     0.239 C 
HETATM    5  C   UNL     1      44.613  -8.768  10.548  1.00  0.00     0.066 C 
HETATM    6  C   UNL     1      43.174  -8.336  10.833  1.00  0.00     0.065 C 
HETATM    7  C   UNL     1      42.191  -9.343  10.199  1.00  0.00     0.055 C 
HETATM    8  C   UNL     1      42.948  -8.234  12.355  1.00  0.00     0.038 C 
HETATM    9  C   UNL     1      41.495  -7.917  12.706  1.00  0.00     0.003 C 
HETATM   10  C   UNL     1      40.540  -8.926  12.081  1.00  0.00     0.001 C 
HETATM   11  C   UNL     1      40.731  -9.020  10.569  1.00  0.00     0.010 C 
ENDROOT
BRANCH   2  12
HETATM   12  C   UNL     1      44.290 -11.317   8.563  1.00  0.00     0.338 C 
BRANCH  12  13
HETATM   13  C   UNL     1      44.383 -11.970   7.179  1.00  0.00     0.248 C 
HETATM   14  N   UNL     1      43.233 -12.624   6.786  1.00  0.00    -0.319 N 
HETATM   15  H   UNL     1      42.417 -12.628   7.401  1.00  0.00     0.169 HD
HETATM   16  O   UNL     1      45.488 -11.983   6.641  1.00  0.00    -0.271 OA
BRANCH  14  17
HETATM   17  C   UNL     1      43.104 -13.482   5.697  1.00  0.00     0.094 A 
HETATM   18  S   UNL     1      42.893 -15.150   5.911  1.00  0.00    -0.075 SA
HETATM   19  C   UNL     1      42.817 -15.425   4.243  1.00  0.00    -0.008 A 
HETATM   20  C   UNL     1      42.937 -14.264   3.501  1.00  0.00    -0.026 A 
HETATM   21  C   UNL     1      42.597 -16.800   3.686  1.00  0.00     0.047 C 
HETATM   22  C   UNL     1      42.876 -14.298   1.996  1.00  0.00     0.041 C 
HETATM   23  C   UNL     1      43.141 -13.110   4.355  1.00  0.00     0.080 A 
HETATM   24  C   UNL     1      42.320 -15.628   1.460  1.00  0.00     0.005 C 
HETATM   25  C   UNL     1      42.924 -16.833   2.189  1.00  0.00     0.005 C 
BRANCH  23  26
HETATM   26  C   UNL     1      43.323 -11.708   3.960  1.00  0.00     0.296 C 
HETATM   27  O   UNL     1      44.346 -11.322   3.395  1.00  0.00    -0.259 OA
BRANCH  26  28
HETATM   28  O   UNL     1      42.275 -10.906   4.282  1.00  0.00    -0.322 OA
HETATM   29  C   UNL     1      41.449 -10.517   3.183  1.00  0.00     0.213 C 
ENDBRANCH  26  28
ENDBRANCH  23  26
ENDBRANCH  14  17
ENDBRANCH  12  13
ENDBRANCH   2  12
BRANCH   1  30
HETATM   30  C   UNL     1      41.750  -8.584   7.689  1.00  0.00     0.006 A 
HETATM   31  C   UNL     1      40.664  -9.003   6.881  1.00  0.00     0.077 A 
HETATM   32  C   UNL     1      40.081  -8.117   5.960  1.00  0.00     0.037 A 
HETATM   33  C   UNL     1      40.549  -6.812   5.832  1.00  0.00     0.003 A 
HETATM   34  C   UNL     1      41.597  -6.380   6.628  1.00  0.00     0.001 A 
HETATM   35  C   UNL     1      42.183  -7.253   7.547  1.00  0.00     0.012 A 
BRANCH  31  36
HETATM   36  O   UNL     1      40.235 -10.297   7.055  1.00  0.00    -0.351 OA
BRANCH  36  37
HETATM   37  C   UNL     1      39.162 -10.745   6.217  1.00  0.00     0.171 C 
HETATM   38  C   UNL     1      39.413 -12.195   5.847  1.00  0.00     0.034 C 
ENDBRANCH  36  37
ENDBRANCH  31  36
ENDBRANCH   1  30
BRANCH   6  39
HETATM   39  O   UNL     1      42.994  -7.054  10.238  1.00  0.00    -0.389 OA
HETATM   40  H   UNL     1      42.216  -6.609  10.626  1.00  0.00     0.210 HD
ENDBRANCH   6  39
TORSDOF 9
ENDMDL
MODEL 7
REMARK VINA RESULT:      -8.0      4.053      6.636
REMARK  9 active torsions:
REMARK  status: ('A' for Active; 'I' for Inactive)
REMARK    1  A    between atoms: C_2  and  O_3 
REMARK    2  A    between atoms: O_3  and  C_4 
REMARK    3  A    between atoms: C_5  and  C_6 
REMARK    4  A    between atoms: N_7  and  C_9 
REMARK    5  A    between atoms: C_9  and  C_10 
REMARK       I    between atoms: C_10  and  N_11 
REMARK    6  A    between atoms: N_11  and  C_12 
REMARK    7  A    between atoms: C_20  and  C_21 
REMARK    8  A    between atoms: C_21  and  O_22 
REMARK    9  A    between atoms: C_28  and  O_29 
ROOT
HETATM    1  C   UNL     1      43.089 -12.595   5.385  1.00  0.00     0.231 C 
HETATM    2  N   UNL     1      41.683 -12.009   5.175  1.00  0.00    -0.054 N 
HETATM    3  H   UNL     1      41.074 -12.838   5.049  1.00  0.00     0.281 HD
HETATM    4  C   UNL     1      41.099 -11.243   6.335  1.00  0.00     0.239 C 
HETATM    5  C   UNL     1      42.057 -10.185   6.851  1.00  0.00     0.066 C 
HETATM    6  C   UNL     1      43.418 -10.779   7.214  1.00  0.00     0.065 C 
HETATM    7  C   UNL     1      44.016 -11.504   5.989  1.00  0.00     0.055 C 
HETATM    8  C   UNL     1      44.364  -9.665   7.705  1.00  0.00     0.038 C 
HETATM    9  C   UNL     1      45.777 -10.179   7.975  1.00  0.00     0.003 C 
HETATM   10  C   UNL     1      46.354 -10.882   6.754  1.00  0.00     0.001 C 
HETATM   11  C   UNL     1      45.444 -12.008   6.269  1.00  0.00     0.010 C 
ENDROOT
BRANCH   2  12
HETATM   12  C   UNL     1      41.505 -11.266   3.839  1.00  0.00     0.338 C 
BRANCH  12  13
HETATM   13  C   UNL     1      40.643 -12.115   2.898  1.00  0.00     0.248 C 
HETATM   14  N   UNL     1      41.038 -12.068   1.576  1.00  0.00    -0.319 N 
HETATM   15  H   UNL     1      41.850 -11.509   1.310  1.00  0.00     0.169 HD
HETATM   16  O   UNL     1      39.623 -12.612   3.371  1.00  0.00    -0.271 OA
BRANCH  14  17
HETATM   17  C   UNL     1      40.321 -12.551   0.484  1.00  0.00     0.094 A 
HETATM   18  S   UNL     1      40.429 -14.174   0.009  1.00  0.00    -0.075 SA
HETATM   19  C   UNL     1      39.341 -13.946  -1.267  1.00  0.00    -0.008 A 
HETATM   20  C   UNL     1      38.871 -12.648  -1.346  1.00  0.00    -0.026 A 
HETATM   21  C   UNL     1      38.932 -15.081  -2.158  1.00  0.00     0.047 C 
HETATM   22  C   UNL     1      37.878 -12.248  -2.406  1.00  0.00     0.041 C 
HETATM   23  C   UNL     1      39.473 -11.804  -0.331  1.00  0.00     0.080 A 
HETATM   24  C   UNL     1      37.219 -13.462  -3.082  1.00  0.00     0.005 C 
HETATM   25  C   UNL     1      38.243 -14.551  -3.421  1.00  0.00     0.005 C 
BRANCH  23  26
HETATM   26  C   UNL     1      39.251 -10.374  -0.089  1.00  0.00     0.296 C 
HETATM   27  O   UNL     1      39.628  -9.516  -0.886  1.00  0.00    -0.259 OA
BRANCH  26  28
HETATM   28  O   UNL     1      38.609 -10.108   1.079  1.00  0.00    -0.322 OA
HETATM   29  C   UNL     1      37.248 -10.541   1.135  1.00  0.00     0.213 C 
ENDBRANCH  26  28
ENDBRANCH  23  26
ENDBRANCH  14  17
ENDBRANCH  12  13
ENDBRANCH   2  12
BRANCH   1  30
HETATM   30  C   UNL     1      43.105 -14.002   5.994  1.00  0.00     0.006 A 
HETATM   31  C   UNL     1      43.070 -15.144   5.156  1.00  0.00     0.077 A 
HETATM   32  C   UNL     1      43.059 -16.433   5.712  1.00  0.00     0.037 A 
HETATM   33  C   UNL     1      43.096 -16.614   7.092  1.00  0.00     0.003 A 
HETATM   34  C   UNL     1      43.151 -15.509   7.926  1.00  0.00     0.001 A 
HETATM   35  C   UNL     1      43.161 -14.223   7.382  1.00  0.00     0.012 A 
BRANCH  31  36
HETATM   36  O   UNL     1      43.046 -14.909   3.801  1.00  0.00    -0.351 OA
BRANCH  36  37
HETATM   37  C   UNL     1      42.282 -15.817   2.997  1.00  0.00     0.171 C 
HETATM   38  C   UNL     1      43.213 -16.470   1.993  1.00  0.00     0.034 C 
ENDBRANCH  36  37
ENDBRANCH  31  36
ENDBRANCH   1  30
BRANCH   6  39
HETATM   39  O   UNL     1      43.201 -11.717   8.264  1.00  0.00    -0.389 OA
HETATM   40  H   UNL     1      42.470 -11.416   8.839  1.00  0.00     0.210 HD
ENDBRANCH   6  39
TORSDOF 9
ENDMDL
MODEL 8
REMARK VINA RESULT:      -8.0      1.973      2.521
REMARK  9 active torsions:
REMARK  status: ('A' for Active; 'I' for Inactive)
REMARK    1  A    between atoms: C_2  and  O_3 
REMARK    2  A    between atoms: O_3  and  C_4 
REMARK    3  A    between atoms: C_5  and  C_6 
REMARK    4  A    between atoms: N_7  and  C_9 
REMARK    5  A    between atoms: C_9  and  C_10 
REMARK       I    between atoms: C_10  and  N_11 
REMARK    6  A    between atoms: N_11  and  C_12 
REMARK    7  A    between atoms: C_20  and  C_21 
REMARK    8  A    between atoms: C_21  and  O_22 
REMARK    9  A    between atoms: C_28  and  O_29 
ROOT
HETATM    1  C   UNL     1      42.303  -8.299   8.827  1.00  0.00     0.231 C 
HETATM    2  N   UNL     1      41.428  -9.049   7.808  1.00  0.00    -0.054 N 
HETATM    3  H   UNL     1      41.628 -10.051   7.985  1.00  0.00     0.281 HD
HETATM    4  C   UNL     1      39.937  -8.893   7.965  1.00  0.00     0.239 C 
HETATM    5  C   UNL     1      39.529  -7.435   8.060  1.00  0.00     0.066 C 
HETATM    6  C   UNL     1      40.278  -6.707   9.176  1.00  0.00     0.065 C 
HETATM    7  C   UNL     1      41.800  -6.834   8.954  1.00  0.00     0.055 C 
HETATM    8  C   UNL     1      39.853  -5.225   9.216  1.00  0.00     0.038 C 
HETATM    9  C   UNL     1      40.652  -4.418  10.238  1.00  0.00     0.003 C 
HETATM   10  C   UNL     1      42.150  -4.547   9.996  1.00  0.00     0.001 C 
HETATM   11  C   UNL     1      42.595  -6.008   9.982  1.00  0.00     0.010 C 
ENDROOT
BRANCH   2  12
HETATM   12  C   UNL     1      41.879  -8.878   6.346  1.00  0.00     0.338 C 
BRANCH  12  13
HETATM   13  C   UNL     1      42.136 -10.259   5.731  1.00  0.00     0.248 C 
HETATM   14  N   UNL     1      41.974 -11.308   6.614  1.00  0.00    -0.319 N 
HETATM   15  H   UNL     1      41.693 -11.119   7.578  1.00  0.00     0.169 HD
HETATM   16  O   UNL     1      42.600 -10.286   4.593  1.00  0.00    -0.271 OA
BRANCH  14  17
HETATM   17  C   UNL     1      42.350 -12.631   6.399  1.00  0.00     0.094 A 
HETATM   18  S   UNL     1      43.914 -13.171   6.765  1.00  0.00    -0.075 SA
HETATM   19  C   UNL     1      43.563 -14.748   6.264  1.00  0.00    -0.008 A 
HETATM   20  C   UNL     1      42.259 -14.895   5.826  1.00  0.00    -0.026 A 
HETATM   21  C   UNL     1      44.584 -15.843   6.351  1.00  0.00     0.047 C 
HETATM   22  C   UNL     1      41.746 -16.231   5.355  1.00  0.00     0.041 C 
HETATM   23  C   UNL     1      41.541 -13.635   5.871  1.00  0.00     0.080 A 
HETATM   24  C   UNL     1      42.670 -17.391   5.760  1.00  0.00     0.005 C 
HETATM   25  C   UNL     1      44.146 -17.055   5.521  1.00  0.00     0.005 C 
BRANCH  23  26
HETATM   26  C   UNL     1      40.152 -13.366   5.483  1.00  0.00     0.296 C 
HETATM   27  O   UNL     1      39.311 -12.995   6.301  1.00  0.00    -0.259 OA
BRANCH  26  28
HETATM   28  O   UNL     1      39.901 -13.574   4.163  1.00  0.00    -0.322 OA
HETATM   29  C   UNL     1      40.230 -12.480   3.305  1.00  0.00     0.213 C 
ENDBRANCH  26  28
ENDBRANCH  23  26
ENDBRANCH  14  17
ENDBRANCH  12  13
ENDBRANCH   2  12
BRANCH   1  30
HETATM   30  C   UNL     1      42.609  -9.091  10.102  1.00  0.00     0.006 A 
HETATM   31  C   UNL     1      43.514 -10.181  10.067  1.00  0.00     0.077 A 
HETATM   32  C   UNL     1      43.778 -10.923  11.230  1.00  0.00     0.037 A 
HETATM   33  C   UNL     1      43.169 -10.595  12.438  1.00  0.00     0.003 A 
HETATM   34  C   UNL     1      42.297  -9.521  12.496  1.00  0.00     0.001 A 
HETATM   35  C   UNL     1      42.027  -8.777  11.345  1.00  0.00     0.012 A 
BRANCH  31  36
HETATM   36  O   UNL     1      44.096 -10.454   8.852  1.00  0.00    -0.351 OA
BRANCH  36  37
HETATM   37  C   UNL     1      45.526 -10.386   8.785  1.00  0.00     0.171 C 
HETATM   38  C   UNL     1      45.920  -8.988   8.343  1.00  0.00     0.034 C 
ENDBRANCH  36  37
ENDBRANCH  31  36
ENDBRANCH   1  30
BRANCH   6  39
HETATM   39  O   UNL     1      39.922  -7.338  10.403  1.00  0.00    -0.389 OA
HETATM   40  H   UNL     1      40.695  -7.802  10.780  1.00  0.00     0.210 HD
ENDBRANCH   6  39
TORSDOF 9
ENDMDL
MODEL 9
REMARK VINA RESULT:      -7.8      2.501      9.107
REMARK  9 active torsions:
REMARK  status: ('A' for Active; 'I' for Inactive)
REMARK    1  A    between atoms: C_2  and  O_3 
REMARK    2  A    between atoms: O_3  and  C_4 
REMARK    3  A    between atoms: C_5  and  C_6 
REMARK    4  A    between atoms: N_7  and  C_9 
REMARK    5  A    between atoms: C_9  and  C_10 
REMARK       I    between atoms: C_10  and  N_11 
REMARK    6  A    between atoms: N_11  and  C_12 
REMARK    7  A    between atoms: C_20  and  C_21 
REMARK    8  A    between atoms: C_21  and  O_22 
REMARK    9  A    between atoms: C_28  and  O_29 
ROOT
HETATM    1  C   UNL     1      42.735 -14.364   3.919  1.00  0.00     0.231 C 
HETATM    2  N   UNL     1      42.281 -13.207   4.825  1.00  0.00    -0.054 N 
HETATM    3  H   UNL     1      41.723 -12.595   4.202  1.00  0.00     0.281 HD
HETATM    4  C   UNL     1      41.366 -13.573   5.967  1.00  0.00     0.239 C 
HETATM    5  C   UNL     1      41.923 -14.720   6.790  1.00  0.00     0.066 C 
HETATM    6  C   UNL     1      42.236 -15.941   5.923  1.00  0.00     0.065 C 
HETATM    7  C   UNL     1      43.221 -15.547   4.801  1.00  0.00     0.055 C 
HETATM    8  C   UNL     1      42.824 -17.068   6.796  1.00  0.00     0.038 C 
HETATM    9  C   UNL     1      43.264 -18.275   5.969  1.00  0.00     0.003 C 
HETATM   10  C   UNL     1      44.242 -17.869   4.874  1.00  0.00     0.001 C 
HETATM   11  C   UNL     1      43.665 -16.772   3.981  1.00  0.00     0.010 C 
ENDROOT
BRANCH   2  12
HETATM   12  C   UNL     1      43.420 -12.272   5.269  1.00  0.00     0.338 C 
BRANCH  12  13
HETATM   13  C   UNL     1      42.823 -10.954   5.778  1.00  0.00     0.248 C 
HETATM   14  N   UNL     1      43.240 -10.599   7.045  1.00  0.00    -0.319 N 
HETATM   15  H   UNL     1      43.901 -11.196   7.547  1.00  0.00     0.169 HD
HETATM   16  O   UNL     1      41.939 -10.441   5.095  1.00  0.00    -0.271 OA
BRANCH  14  17
HETATM   17  C   UNL     1      42.701  -9.589   7.837  1.00  0.00     0.094 A 
HETATM   18  S   UNL     1      41.027  -9.330   7.914  1.00  0.00    -0.075 SA
HETATM   19  C   UNL     1      41.205  -8.049   9.004  1.00  0.00    -0.008 A 
HETATM   20  C   UNL     1      42.525  -7.805   9.336  1.00  0.00    -0.026 A 
HETATM   21  C   UNL     1      40.015  -7.320   9.555  1.00  0.00     0.047 C 
HETATM   22  C   UNL     1      42.889  -6.713  10.309  1.00  0.00     0.041 C 
HETATM   23  C   UNL     1      43.423  -8.692   8.622  1.00  0.00     0.080 A 
HETATM   24  C   UNL     1      41.677  -6.211  11.110  1.00  0.00     0.005 C 
HETATM   25  C   UNL     1      40.449  -6.006  10.217  1.00  0.00     0.005 C 
BRANCH  23  26
HETATM   26  C   UNL     1      44.888  -8.747   8.685  1.00  0.00     0.296 C 
HETATM   27  O   UNL     1      45.588  -7.814   8.294  1.00  0.00    -0.259 OA
BRANCH  26  28
HETATM   28  O   UNL     1      45.372  -9.907   9.201  1.00  0.00    -0.322 OA
HETATM   29  C   UNL     1      44.919 -10.221  10.518  1.00  0.00     0.213 C 
ENDBRANCH  26  28
ENDBRANCH  23  26
ENDBRANCH  14  17
ENDBRANCH  12  13
ENDBRANCH   2  12
BRANCH   1  30
HETATM   30  C   UNL     1      41.797 -14.652   2.742  1.00  0.00     0.006 A 
HETATM   31  C   UNL     1      41.553 -13.659   1.761  1.00  0.00     0.077 A 
HETATM   32  C   UNL     1      40.675 -13.913   0.696  1.00  0.00     0.037 A 
HETATM   33  C   UNL     1      40.039 -15.145   0.574  1.00  0.00     0.003 A 
HETATM   34  C   UNL     1      40.280 -16.135   1.513  1.00  0.00     0.001 A 
HETATM   35  C   UNL     1      41.152 -15.892   2.577  1.00  0.00     0.012 A 
BRANCH  31  36
HETATM   36  O   UNL     1      42.215 -12.464   1.922  1.00  0.00    -0.351 OA
BRANCH  36  37
HETATM   37  C   UNL     1      41.413 -11.279   1.984  1.00  0.00     0.171 C 
HETATM   38  C   UNL     1      41.699 -10.439   0.753  1.00  0.00     0.034 C 
ENDBRANCH  36  37
ENDBRANCH  31  36
ENDBRANCH   1  30
BRANCH   6  39
HETATM   39  O   UNL     1      41.007 -16.375   5.348  1.00  0.00    -0.389 OA
HETATM   40  H   UNL     1      40.742 -15.773   4.626  1.00  0.00     0.210 HD
ENDBRANCH   6  39
TORSDOF 9
ENDMDL
MODEL 10
REMARK VINA RESULT:      -7.8      2.079      4.211
REMARK  9 active torsions:
REMARK  status: ('A' for Active; 'I' for Inactive)
REMARK    1  A    between atoms: C_2  and  O_3 
REMARK    2  A    between atoms: O_3  and  C_4 
REMARK    3  A    between atoms: C_5  and  C_6 
REMARK    4  A    between atoms: N_7  and  C_9 
REMARK    5  A    between atoms: C_9  and  C_10 
REMARK       I    between atoms: C_10  and  N_11 
REMARK    6  A    between atoms: N_11  and  C_12 
REMARK    7  A    between atoms: C_20  and  C_21 
REMARK    8  A    between atoms: C_21  and  O_22 
REMARK    9  A    between atoms: C_28  and  O_29 
ROOT
HETATM    1  C   UNL     1      42.432  -9.817   7.950  1.00  0.00     0.231 C 
HETATM    2  N   UNL     1      43.692 -10.644   7.643  1.00  0.00    -0.054 N 
HETATM    3  H   UNL     1      43.740 -10.666   6.609  1.00  0.00     0.281 HD
HETATM    4  C   UNL     1      45.004 -10.058   8.103  1.00  0.00     0.239 C 
HETATM    5  C   UNL     1      44.961  -9.658   9.566  1.00  0.00     0.066 C 
HETATM    6  C   UNL     1      43.801  -8.706   9.860  1.00  0.00     0.065 C 
HETATM    7  C   UNL     1      42.468  -9.359   9.435  1.00  0.00     0.055 C 
HETATM    8  C   UNL     1      43.781  -8.350  11.361  1.00  0.00     0.038 C 
HETATM    9  C   UNL     1      42.574  -7.492  11.739  1.00  0.00     0.003 C 
HETATM   10  C   UNL     1      41.269  -8.156  11.320  1.00  0.00     0.001 C 
HETATM   11  C   UNL     1      41.259  -8.491   9.830  1.00  0.00     0.010 C 
ENDROOT
BRANCH   2  12
HETATM   12  C   UNL     1      43.567 -12.136   7.999  1.00  0.00     0.338 C 
BRANCH  12  13
HETATM   13  C   UNL     1      43.823 -12.978   6.743  1.00  0.00     0.248 C 
HETATM   14  N   UNL     1      43.045 -14.116   6.660  1.00  0.00    -0.319 N 
HETATM   15  H   UNL     1      42.365 -14.319   7.395  1.00  0.00     0.169 HD
HETATM   16  O   UNL     1      44.775 -12.653   6.037  1.00  0.00    -0.271 OA
BRANCH  14  17
HETATM   17  C   UNL     1      43.216 -15.166   5.762  1.00  0.00     0.094 A 
HETATM   18  S   UNL     1      44.150 -16.523   6.162  1.00  0.00    -0.075 SA
HETATM   19  C   UNL     1      43.855 -17.254   4.665  1.00  0.00    -0.008 A 
HETATM   20  C   UNL     1      43.039 -16.494   3.846  1.00  0.00    -0.026 A 
HETATM   21  C   UNL     1      44.410 -18.607   4.332  1.00  0.00     0.047 C 
HETATM   22  C   UNL     1      42.646 -16.983   2.477  1.00  0.00     0.041 C 
HETATM   23  C   UNL     1      42.682 -15.237   4.477  1.00  0.00     0.080 A 
HETATM   24  C   UNL     1      42.928 -18.481   2.284  1.00  0.00     0.005 C 
HETATM   25  C   UNL     1      44.306 -18.877   2.827  1.00  0.00     0.005 C 
BRANCH  23  26
HETATM   26  C   UNL     1      41.849 -14.156   3.939  1.00  0.00     0.296 C 
HETATM   27  O   UNL     1      42.337 -13.099   3.541  1.00  0.00    -0.259 OA
BRANCH  26  28
HETATM   28  O   UNL     1      40.519 -14.437   3.936  1.00  0.00    -0.322 OA
HETATM   29  C   UNL     1      39.903 -14.434   2.647  1.00  0.00     0.213 C 
ENDBRANCH  26  28
ENDBRANCH  23  26
ENDBRANCH  14  17
ENDBRANCH  12  13
ENDBRANCH   2  12
BRANCH   1  30
HETATM   30  C   UNL     1      42.066  -8.796   6.868  1.00  0.00     0.006 A 
HETATM   31  C   UNL     1      41.633  -9.232   5.591  1.00  0.00     0.077 A 
HETATM   32  C   UNL     1      41.320  -8.299   4.590  1.00  0.00     0.037 A 
HETATM   33  C   UNL     1      41.415  -6.932   4.835  1.00  0.00     0.003 A 
HETATM   34  C   UNL     1      41.817  -6.487   6.084  1.00  0.00     0.001 A 
HETATM   35  C   UNL     1      42.132  -7.407   7.086  1.00  0.00     0.012 A 
BRANCH  31  36
HETATM   36  O   UNL     1      41.546 -10.592   5.406  1.00  0.00    -0.351 OA
BRANCH  36  37
HETATM   37  C   UNL     1      40.298 -11.215   5.738  1.00  0.00     0.171 C 
HETATM   38  C   UNL     1      39.410 -11.199   4.507  1.00  0.00     0.034 C 
ENDBRANCH  36  37
ENDBRANCH  31  36
ENDBRANCH   1  30
BRANCH   6  39
HETATM   39  O   UNL     1      44.020  -7.525   9.093  1.00  0.00    -0.389 OA
HETATM   40  H   UNL     1      44.717  -7.681   8.427  1.00  0.00     0.210 HD
ENDBRANCH   6  39
TORSDOF 9
ENDMDL
