MODEL 1
REMARK VINA RESULT:      -9.4      0.000      0.000
REMARK  3 active torsions:
REMARK  status: ('A' for Active; 'I' for Inactive)
REMARK    1  A    between atoms: C_2  and  N_3 
REMARK    2  A    between atoms: C_7  and  C_8 
REMARK       I    between atoms: C_8  and  N_9 
REMARK    3  A    between atoms: N_9  and  C_10 
ROOT
HETATM    1  C   UNL     1      43.415 -13.317   6.641  1.00  0.00     0.036 A 
HETATM    2  C   UNL     1      42.979 -12.972   5.363  1.00  0.00     0.049 A 
HETATM    3  C   UNL     1      42.860 -13.941   4.343  1.00  0.00     0.061 A 
HETATM    4  C   UNL     1      43.177 -15.279   4.615  1.00  0.00     0.050 A 
HETATM    5  N   UNL     1      43.014 -16.368   3.741  1.00  0.00    -0.324 N 
HETATM    6  C   UNL     1      42.081 -16.536   2.753  1.00  0.00     0.245 C 
HETATM    7  O   UNL     1      41.979 -17.655   2.243  1.00  0.00    -0.271 OA
HETATM    8  C   UNL     1      41.083 -15.410   2.493  1.00  0.00     0.180 C 
HETATM    9  N   UNL     1      41.772 -14.180   2.142  1.00  0.00    -0.334 N 
HETATM   10  C   UNL     1      42.532 -13.416   2.992  1.00  0.00     0.256 C 
HETATM   11  O   UNL     1      42.948 -12.305   2.673  1.00  0.00    -0.267 OA
HETATM   12  C   UNL     1      40.181 -15.698   1.285  1.00  0.00     0.037 C 
HETATM   13  C   UNL     1      39.965 -14.326   0.664  1.00  0.00     0.022 C 
HETATM   14  C   UNL     1      41.312 -13.655   0.870  1.00  0.00     0.127 C 
HETATM   15  C   UNL     1      43.702 -15.600   5.875  1.00  0.00     0.033 A 
HETATM   16  C   UNL     1      43.809 -14.634   6.879  1.00  0.00     0.032 A 
HETATM   17  H   UNL     1      43.476 -17.240   3.970  1.00  0.00     0.169 HD
ENDROOT
BRANCH   1  18
HETATM   18  N   UNL     1      43.448 -12.430   7.736  1.00  0.00    -0.323 N 
HETATM   19  C   UNL     1      44.163 -11.249   7.837  1.00  0.00     0.256 C 
HETATM   20  O   UNL     1      45.044 -10.860   7.082  1.00  0.00    -0.267 OA
HETATM   21  H   UNL     1      42.863 -12.675   8.524  1.00  0.00     0.169 HD
BRANCH  19  22
HETATM   22  C   UNL     1      43.793 -10.386   8.997  1.00  0.00     0.033 A 
HETATM   23  C   UNL     1      43.318  -9.080   8.804  1.00  0.00     0.030 A 
HETATM   24  C   UNL     1      43.029  -8.274   9.924  1.00  0.00    -0.007 A 
HETATM   25  C   UNL     1      43.237  -8.786  11.209  1.00  0.00     0.044 A 
HETATM   26  C   UNL     1      42.549  -6.946  10.065  1.00  0.00     0.031 A 
HETATM   27  N   UNL     1      42.906  -7.779  12.100  1.00  0.00    -0.352 N 
HETATM   28  C   UNL     1      43.719 -10.090  11.412  1.00  0.00     0.031 A 
HETATM   29  C   UNL     1      42.474  -6.671  11.409  1.00  0.00     0.092 A 
HETATM   30  C   UNL     1      43.998 -10.877  10.288  1.00  0.00     0.019 A 
BRANCH  27  31
HETATM   31  C   UNL     1      43.014  -7.852  13.558  1.00  0.00     0.081 C 
HETATM   32  C   UNL     1      42.021  -8.856  14.146  1.00  0.00     0.032 C 
HETATM   33  C   UNL     1      42.866  -6.473  14.204  1.00  0.00     0.032 C 
ENDBRANCH  27  31
ENDBRANCH  19  22
ENDBRANCH   1  18
TORSDOF 3
ENDMDL
MODEL 2
REMARK VINA RESULT:      -9.4      2.512     10.335
REMARK  3 active torsions:
REMARK  status: ('A' for Active; 'I' for Inactive)
REMARK    1  A    between atoms: C_2  and  N_3 
REMARK    2  A    between atoms: C_7  and  C_8 
REMARK       I    between atoms: C_8  and  N_9 
REMARK    3  A    between atoms: N_9  and  C_10 
ROOT
HETATM    1  C   UNL     1      43.339 -11.596   6.654  1.00  0.00     0.036 A 
HETATM    2  C   UNL     1      43.764 -11.205   7.923  1.00  0.00     0.049 A 
HETATM    3  C   UNL     1      43.368  -9.969   8.479  1.00  0.00     0.061 A 
HETATM    4  C   UNL     1      42.527  -9.116   7.751  1.00  0.00     0.050 A 
HETATM    5  N   UNL     1      41.969  -7.910   8.206  1.00  0.00    -0.324 N 
HETATM    6  C   UNL     1      41.622  -7.558   9.484  1.00  0.00     0.245 C 
HETATM    7  O   UNL     1      40.952  -6.534   9.637  1.00  0.00    -0.271 OA
HETATM    8  C   UNL     1      41.889  -8.552  10.612  1.00  0.00     0.180 C 
HETATM    9  N   UNL     1      43.304  -8.877  10.690  1.00  0.00    -0.334 N 
HETATM   10  C   UNL     1      44.011  -9.609   9.770  1.00  0.00     0.256 C 
HETATM   11  O   UNL     1      45.162  -9.984   9.981  1.00  0.00    -0.267 OA
HETATM   12  C   UNL     1      41.556  -7.971  11.993  1.00  0.00     0.037 C 
HETATM   13  C   UNL     1      42.607  -8.589  12.904  1.00  0.00     0.022 C 
HETATM   14  C   UNL     1      43.837  -8.619  12.015  1.00  0.00     0.127 C 
HETATM   15  C   UNL     1      42.181  -9.476   6.441  1.00  0.00     0.033 A 
HETATM   16  C   UNL     1      42.573 -10.704   5.903  1.00  0.00     0.032 A 
HETATM   17  H   UNL     1      41.559  -7.282   7.524  1.00  0.00     0.169 HD
ENDROOT
BRANCH   1  18
HETATM   18  N   UNL     1      43.598 -12.859   6.083  1.00  0.00    -0.323 N 
HETATM   19  C   UNL     1      43.468 -14.096   6.690  1.00  0.00     0.256 C 
HETATM   20  O   UNL     1      43.296 -14.312   7.882  1.00  0.00    -0.267 OA
HETATM   21  H   UNL     1      43.888 -12.856   5.114  1.00  0.00     0.169 HD
BRANCH  19  22
HETATM   22  C   UNL     1      43.549 -15.263   5.764  1.00  0.00     0.033 A 
HETATM   23  C   UNL     1      42.756 -15.324   4.607  1.00  0.00     0.030 A 
HETATM   24  C   UNL     1      42.818 -16.466   3.784  1.00  0.00    -0.007 A 
HETATM   25  C   UNL     1      43.658 -17.526   4.143  1.00  0.00     0.044 A 
HETATM   26  C   UNL     1      42.162 -16.830   2.579  1.00  0.00     0.031 A 
HETATM   27  N   UNL     1      43.493 -18.511   3.184  1.00  0.00    -0.352 N 
HETATM   28  C   UNL     1      44.450 -17.476   5.303  1.00  0.00     0.031 A 
HETATM   29  C   UNL     1      42.600 -18.084   2.229  1.00  0.00     0.092 A 
HETATM   30  C   UNL     1      44.377 -16.333   6.107  1.00  0.00     0.019 A 
BRANCH  27  31
HETATM   31  C   UNL     1      44.141 -19.824   3.179  1.00  0.00     0.081 C 
HETATM   32  C   UNL     1      43.835 -20.597   1.896  1.00  0.00     0.032 C 
HETATM   33  C   UNL     1      43.778 -20.636   4.423  1.00  0.00     0.032 C 
ENDBRANCH  27  31
ENDBRANCH  19  22
ENDBRANCH   1  18
TORSDOF 3
ENDMDL
MODEL 3
REMARK VINA RESULT:      -8.9      2.747      4.467
REMARK  3 active torsions:
REMARK  status: ('A' for Active; 'I' for Inactive)
REMARK    1  A    between atoms: C_2  and  N_3 
REMARK    2  A    between atoms: C_7  and  C_8 
REMARK       I    between atoms: C_8  and  N_9 
REMARK    3  A    between atoms: N_9  and  C_10 
ROOT
HETATM    1  C   UNL     1      42.002 -12.797   2.702  1.00  0.00     0.036 A 
HETATM    2  C   UNL     1      41.511 -11.982   1.682  1.00  0.00     0.049 A 
HETATM    3  C   UNL     1      40.990 -12.533   0.491  1.00  0.00     0.061 A 
HETATM    4  C   UNL     1      40.955 -13.924   0.326  1.00  0.00     0.050 A 
HETATM    5  N   UNL     1      40.378 -14.621  -0.750  1.00  0.00    -0.324 N 
HETATM    6  C   UNL     1      39.311 -14.257  -1.527  1.00  0.00     0.245 C 
HETATM    7  O   UNL     1      38.832 -15.108  -2.282  1.00  0.00    -0.271 OA
HETATM    8  C   UNL     1      38.641 -12.911  -1.264  1.00  0.00     0.180 C 
HETATM    9  N   UNL     1      39.593 -11.823  -1.413  1.00  0.00    -0.334 N 
HETATM   10  C   UNL     1      40.643 -11.554  -0.572  1.00  0.00     0.256 C 
HETATM   11  O   UNL     1      41.306 -10.524  -0.666  1.00  0.00    -0.267 OA
HETATM   12  C   UNL     1      37.540 -12.597  -2.286  1.00  0.00     0.037 C 
HETATM   13  C   UNL     1      37.635 -11.088  -2.461  1.00  0.00     0.022 C 
HETATM   14  C   UNL     1      39.130 -10.838  -2.375  1.00  0.00     0.127 C 
HETATM   15  C   UNL     1      41.534 -14.731   1.315  1.00  0.00     0.033 A 
HETATM   16  C   UNL     1      42.041 -14.176   2.493  1.00  0.00     0.032 A 
HETATM   17  H   UNL     1      40.604 -15.602  -0.863  1.00  0.00     0.169 HD
ENDROOT
BRANCH   1  18
HETATM   18  N   UNL     1      42.429 -12.325   3.960  1.00  0.00    -0.323 N 
HETATM   19  C   UNL     1      43.591 -11.631   4.245  1.00  0.00     0.256 C 
HETATM   20  O   UNL     1      44.550 -11.471   3.500  1.00  0.00    -0.267 OA
HETATM   21  H   UNL     1      41.799 -12.494   4.734  1.00  0.00     0.169 HD
BRANCH  19  22
HETATM   22  C   UNL     1      43.646 -11.027   5.608  1.00  0.00     0.033 A 
HETATM   23  C   UNL     1      44.813 -11.099   6.384  1.00  0.00     0.030 A 
HETATM   24  C   UNL     1      44.812 -10.564   7.688  1.00  0.00    -0.007 A 
HETATM   25  C   UNL     1      43.642  -9.985   8.192  1.00  0.00     0.044 A 
HETATM   26  C   UNL     1      45.800 -10.482   8.704  1.00  0.00     0.031 A 
HETATM   27  N   UNL     1      43.919  -9.581   9.487  1.00  0.00    -0.352 N 
HETATM   28  C   UNL     1      42.468  -9.914   7.424  1.00  0.00     0.031 A 
HETATM   29  C   UNL     1      45.230  -9.867   9.791  1.00  0.00     0.092 A 
HETATM   30  C   UNL     1      42.488 -10.448   6.130  1.00  0.00     0.019 A 
BRANCH  27  31
HETATM   31  C   UNL     1      42.972  -8.964  10.416  1.00  0.00     0.081 C 
HETATM   32  C   UNL     1      43.040  -7.437  10.357  1.00  0.00     0.032 C 
HETATM   33  C   UNL     1      43.167  -9.478  11.844  1.00  0.00     0.032 C 
ENDBRANCH  27  31
ENDBRANCH  19  22
ENDBRANCH   1  18
TORSDOF 3
ENDMDL
MODEL 4
REMARK VINA RESULT:      -8.8      6.931      9.929
REMARK  3 active torsions:
REMARK  status: ('A' for Active; 'I' for Inactive)
REMARK    1  A    between atoms: C_2  and  N_3 
REMARK    2  A    between atoms: C_7  and  C_8 
REMARK       I    between atoms: C_8  and  N_9 
REMARK    3  A    between atoms: N_9  and  C_10 
ROOT
HETATM    1  C   UNL     1      40.548 -12.951   0.314  1.00  0.00     0.036 A 
HETATM    2  C   UNL     1      40.939 -12.331  -0.873  1.00  0.00     0.049 A 
HETATM    3  C   UNL     1      40.248 -11.205  -1.373  1.00  0.00     0.061 A 
HETATM    4  C   UNL     1      39.154 -10.690  -0.665  1.00  0.00     0.050 A 
HETATM    5  N   UNL     1      38.434  -9.525  -0.977  1.00  0.00    -0.324 N 
HETATM    6  C   UNL     1      38.880  -8.386  -1.595  1.00  0.00     0.245 C 
HETATM    7  O   UNL     1      38.142  -7.398  -1.584  1.00  0.00    -0.271 OA
HETATM    8  C   UNL     1      40.333  -8.332  -2.064  1.00  0.00     0.180 C 
HETATM    9  N   UNL     1      40.609  -9.399  -3.012  1.00  0.00    -0.334 N 
HETATM   10  C   UNL     1      40.671 -10.738  -2.718  1.00  0.00     0.256 C 
HETATM   11  O   UNL     1      41.071 -11.565  -3.533  1.00  0.00    -0.267 OA
HETATM   12  C   UNL     1      40.648  -7.045  -2.837  1.00  0.00     0.037 C 
HETATM   13  C   UNL     1      41.648  -7.497  -3.892  1.00  0.00     0.022 C 
HETATM   14  C   UNL     1      41.138  -8.878  -4.260  1.00  0.00     0.127 C 
HETATM   15  C   UNL     1      38.713 -11.374   0.476  1.00  0.00     0.033 A 
HETATM   16  C   UNL     1      39.407 -12.484   0.966  1.00  0.00     0.032 A 
HETATM   17  H   UNL     1      37.540  -9.376  -0.524  1.00  0.00     0.169 HD
ENDROOT
BRANCH   1  18
HETATM   18  N   UNL     1      41.256 -14.003   0.931  1.00  0.00    -0.323 N 
HETATM   19  C   UNL     1      42.212 -13.899   1.926  1.00  0.00     0.256 C 
HETATM   20  O   UNL     1      42.760 -12.875   2.312  1.00  0.00    -0.267 OA
HETATM   21  H   UNL     1      41.016 -14.937   0.627  1.00  0.00     0.169 HD
BRANCH  19  22
HETATM   22  C   UNL     1      42.589 -15.189   2.574  1.00  0.00     0.033 A 
HETATM   23  C   UNL     1      42.571 -15.329   3.970  1.00  0.00     0.030 A 
HETATM   24  C   UNL     1      42.985 -16.545   4.550  1.00  0.00    -0.007 A 
HETATM   25  C   UNL     1      43.422 -17.586   3.724  1.00  0.00     0.044 A 
HETATM   26  C   UNL     1      43.085 -16.995   5.893  1.00  0.00     0.031 A 
HETATM   27  N   UNL     1      43.792 -18.630   4.555  1.00  0.00    -0.352 N 
HETATM   28  C   UNL     1      43.449 -17.453   2.325  1.00  0.00     0.031 A 
HETATM   29  C   UNL     1      43.573 -18.278   5.867  1.00  0.00     0.092 A 
HETATM   30  C   UNL     1      43.032 -16.239   1.767  1.00  0.00     0.019 A 
BRANCH  27  31
HETATM   31  C   UNL     1      44.355 -19.912   4.127  1.00  0.00     0.081 C 
HETATM   32  C   UNL     1      43.628 -20.463   2.900  1.00  0.00     0.032 C 
HETATM   33  C   UNL     1      44.376 -20.928   5.270  1.00  0.00     0.032 C 
ENDBRANCH  27  31
ENDBRANCH  19  22
ENDBRANCH   1  18
TORSDOF 3
ENDMDL
MODEL 5
REMARK VINA RESULT:      -8.8      2.497     10.549
REMARK  3 active torsions:
REMARK  status: ('A' for Active; 'I' for Inactive)
REMARK    1  A    between atoms: C_2  and  N_3 
REMARK    2  A    between atoms: C_7  and  C_8 
REMARK       I    between atoms: C_8  and  N_9 
REMARK    3  A    between atoms: N_9  and  C_10 
ROOT
HETATM    1  C   UNL     1      42.915  -9.493   8.559  1.00  0.00     0.036 A 
HETATM    2  C   UNL     1      42.248  -9.520   9.783  1.00  0.00     0.049 A 
HETATM    3  C   UNL     1      42.177  -8.374  10.604  1.00  0.00     0.061 A 
HETATM    4  C   UNL     1      42.780  -7.180  10.185  1.00  0.00     0.050 A 
HETATM    5  N   UNL     1      42.710  -5.938  10.838  1.00  0.00    -0.324 N 
HETATM    6  C   UNL     1      41.698  -5.438  11.615  1.00  0.00     0.245 C 
HETATM    7  O   UNL     1      41.743  -4.244  11.920  1.00  0.00    -0.271 OA
HETATM    8  C   UNL     1      40.476  -6.316  11.874  1.00  0.00     0.180 C 
HETATM    9  N   UNL     1      40.861  -7.558  12.524  1.00  0.00    -0.334 N 
HETATM   10  C   UNL     1      41.571  -8.580  11.945  1.00  0.00     0.256 C 
HETATM   11  O   UNL     1      41.717  -9.667  12.499  1.00  0.00    -0.267 OA
HETATM   12  C   UNL     1      39.488  -5.666  12.852  1.00  0.00     0.037 C 
HETATM   13  C   UNL     1      38.928  -6.846  13.632  1.00  0.00     0.022 C 
HETATM   14  C   UNL     1      40.136  -7.756  13.766  1.00  0.00     0.127 C 
HETATM   15  C   UNL     1      43.526  -7.188   8.998  1.00  0.00     0.033 A 
HETATM   16  C   UNL     1      43.584  -8.326   8.189  1.00  0.00     0.032 A 
HETATM   17  H   UNL     1      43.358  -5.211  10.558  1.00  0.00     0.169 HD
ENDROOT
BRANCH   1  18
HETATM   18  N   UNL     1      42.929 -10.560   7.637  1.00  0.00    -0.323 N 
HETATM   19  C   UNL     1      43.913 -11.520   7.480  1.00  0.00     0.256 C 
HETATM   20  O   UNL     1      45.033 -11.507   7.972  1.00  0.00    -0.267 OA
HETATM   21  H   UNL     1      42.114 -10.643   7.043  1.00  0.00     0.169 HD
BRANCH  19  22
HETATM   22  C   UNL     1      43.532 -12.677   6.619  1.00  0.00     0.033 A 
HETATM   23  C   UNL     1      43.512 -13.984   7.131  1.00  0.00     0.030 A 
HETATM   24  C   UNL     1      43.200 -15.059   6.274  1.00  0.00    -0.007 A 
HETATM   25  C   UNL     1      42.932 -14.806   4.925  1.00  0.00     0.044 A 
HETATM   26  C   UNL     1      43.100 -16.460   6.474  1.00  0.00     0.031 A 
HETATM   27  N   UNL     1      42.693 -16.032   4.326  1.00  0.00    -0.352 N 
HETATM   28  C   UNL     1      42.955 -13.502   4.402  1.00  0.00     0.031 A 
HETATM   29  C   UNL     1      42.780 -17.032   5.267  1.00  0.00     0.092 A 
HETATM   30  C   UNL     1      43.265 -12.446   5.268  1.00  0.00     0.019 A 
BRANCH  27  31
HETATM   31  C   UNL     1      42.415 -16.256   2.906  1.00  0.00     0.081 C 
HETATM   32  C   UNL     1      40.931 -16.067   2.588  1.00  0.00     0.032 C 
HETATM   33  C   UNL     1      42.918 -17.624   2.442  1.00  0.00     0.032 C 
ENDBRANCH  27  31
ENDBRANCH  19  22
ENDBRANCH   1  18
TORSDOF 3
ENDMDL
MODEL 6
REMARK VINA RESULT:      -8.7      6.792      9.824
REMARK  3 active torsions:
REMARK  status: ('A' for Active; 'I' for Inactive)
REMARK    1  A    between atoms: C_2  and  N_3 
REMARK    2  A    between atoms: C_7  and  C_8 
REMARK       I    between atoms: C_8  and  N_9 
REMARK    3  A    between atoms: N_9  and  C_10 
ROOT
HETATM    1  C   UNL     1      39.780 -13.868  -0.736  1.00  0.00     0.036 A 
HETATM    2  C   UNL     1      39.568 -12.490  -0.701  1.00  0.00     0.049 A 
HETATM    3  C   UNL     1      38.644 -11.868  -1.569  1.00  0.00     0.061 A 
HETATM    4  C   UNL     1      37.916 -12.645  -2.481  1.00  0.00     0.050 A 
HETATM    5  N   UNL     1      36.895 -12.190  -3.332  1.00  0.00    -0.324 N 
HETATM    6  C   UNL     1      36.014 -11.160  -3.134  1.00  0.00     0.245 C 
HETATM    7  O   UNL     1      35.060 -11.061  -3.910  1.00  0.00    -0.271 OA
HETATM    8  C   UNL     1      36.132 -10.335  -1.855  1.00  0.00     0.180 C 
HETATM    9  N   UNL     1      37.446  -9.721  -1.756  1.00  0.00    -0.334 N 
HETATM   10  C   UNL     1      38.627 -10.383  -1.532  1.00  0.00     0.256 C 
HETATM   11  O   UNL     1      39.674  -9.785  -1.297  1.00  0.00    -0.267 OA
HETATM   12  C   UNL     1      35.156  -9.151  -1.832  1.00  0.00     0.037 C 
HETATM   13  C   UNL     1      35.931  -8.063  -1.103  1.00  0.00     0.022 C 
HETATM   14  C   UNL     1      37.350  -8.281  -1.596  1.00  0.00     0.127 C 
HETATM   15  C   UNL     1      38.202 -14.014  -2.572  1.00  0.00     0.033 A 
HETATM   16  C   UNL     1      39.114 -14.620  -1.704  1.00  0.00     0.032 A 
HETATM   17  H   UNL     1      36.598 -12.793  -4.090  1.00  0.00     0.169 HD
ENDROOT
BRANCH   1  18
HETATM   18  N   UNL     1      40.597 -14.570   0.174  1.00  0.00    -0.323 N 
HETATM   19  C   UNL     1      41.465 -14.033   1.108  1.00  0.00     0.256 C 
HETATM   20  O   UNL     1      41.829 -12.867   1.184  1.00  0.00    -0.267 OA
HETATM   21  H   UNL     1      40.518 -15.578   0.153  1.00  0.00     0.169 HD
BRANCH  19  22
HETATM   22  C   UNL     1      41.989 -15.004   2.111  1.00  0.00     0.033 A 
HETATM   23  C   UNL     1      42.721 -16.133   1.711  1.00  0.00     0.030 A 
HETATM   24  C   UNL     1      43.154 -17.058   2.682  1.00  0.00    -0.007 A 
HETATM   25  C   UNL     1      42.833 -16.843   4.027  1.00  0.00     0.044 A 
HETATM   26  C   UNL     1      43.891 -18.269   2.608  1.00  0.00     0.031 A 
HETATM   27  N   UNL     1      43.352 -17.911   4.739  1.00  0.00    -0.352 N 
HETATM   28  C   UNL     1      42.096 -15.719   4.436  1.00  0.00     0.031 A 
HETATM   29  C   UNL     1      44.006 -18.767   3.882  1.00  0.00     0.092 A 
HETATM   30  C   UNL     1      41.676 -14.810   3.458  1.00  0.00     0.019 A 
BRANCH  27  31
HETATM   31  C   UNL     1      43.216 -18.131   6.180  1.00  0.00     0.081 C 
HETATM   32  C   UNL     1      44.048 -17.129   6.982  1.00  0.00     0.032 C 
HETATM   33  C   UNL     1      43.551 -19.573   6.565  1.00  0.00     0.032 C 
ENDBRANCH  27  31
ENDBRANCH  19  22
ENDBRANCH   1  18
TORSDOF 3
ENDMDL
MODEL 7
REMARK VINA RESULT:      -8.7      6.904     10.293
REMARK  3 active torsions:
REMARK  status: ('A' for Active; 'I' for Inactive)
REMARK    1  A    between atoms: C_2  and  N_3 
REMARK    2  A    between atoms: C_7  and  C_8 
REMARK       I    between atoms: C_8  and  N_9 
REMARK    3  A    between atoms: N_9  and  C_10 
ROOT
HETATM    1  C   UNL     1      38.911 -12.318  -0.449  1.00  0.00     0.036 A 
HETATM    2  C   UNL     1      37.747 -11.574  -0.257  1.00  0.00     0.049 A 
HETATM    3  C   UNL     1      37.194 -10.799  -1.300  1.00  0.00     0.061 A 
HETATM    4  C   UNL     1      37.815 -10.778  -2.556  1.00  0.00     0.050 A 
HETATM    5  N   UNL     1      37.333 -10.141  -3.713  1.00  0.00    -0.324 N 
HETATM    6  C   UNL     1      36.034  -9.911  -4.081  1.00  0.00     0.245 C 
HETATM    7  O   UNL     1      35.823  -9.527  -5.234  1.00  0.00    -0.271 OA
HETATM    8  C   UNL     1      34.919 -10.345  -3.133  1.00  0.00     0.180 C 
HETATM    9  N   UNL     1      35.057  -9.693  -1.841  1.00  0.00    -0.334 N 
HETATM   10  C   UNL     1      36.043  -9.938  -0.920  1.00  0.00     0.256 C 
HETATM   11  O   UNL     1      36.004  -9.471   0.216  1.00  0.00    -0.267 OA
HETATM   12  C   UNL     1      33.531  -9.916  -3.630  1.00  0.00     0.037 C 
HETATM   13  C   UNL     1      32.775  -9.599  -2.347  1.00  0.00     0.022 C 
HETATM   14  C   UNL     1      33.849  -8.974  -1.476  1.00  0.00     0.127 C 
HETATM   15  C   UNL     1      39.033 -11.454  -2.712  1.00  0.00     0.033 A 
HETATM   16  C   UNL     1      39.569 -12.223  -1.676  1.00  0.00     0.032 A 
HETATM   17  H   UNL     1      37.969 -10.015  -4.491  1.00  0.00     0.169 HD
ENDROOT
BRANCH   1  18
HETATM   18  N   UNL     1      39.455 -13.201   0.505  1.00  0.00    -0.323 N 
HETATM   19  C   UNL     1      39.820 -14.522   0.313  1.00  0.00     0.256 C 
HETATM   20  O   UNL     1      39.556 -15.220  -0.657  1.00  0.00    -0.267 OA
HETATM   21  H   UNL     1      39.619 -12.814   1.425  1.00  0.00     0.169 HD
BRANCH  19  22
HETATM   22  C   UNL     1      40.616 -15.123   1.422  1.00  0.00     0.033 A 
HETATM   23  C   UNL     1      40.046 -15.343   2.685  1.00  0.00     0.030 A 
HETATM   24  C   UNL     1      40.843 -15.863   3.725  1.00  0.00    -0.007 A 
HETATM   25  C   UNL     1      42.194 -16.135   3.483  1.00  0.00     0.044 A 
HETATM   26  C   UNL     1      40.577 -16.190   5.080  1.00  0.00     0.031 A 
HETATM   27  N   UNL     1      42.729 -16.598   4.674  1.00  0.00    -0.352 N 
HETATM   28  C   UNL     1      42.775 -15.912   2.224  1.00  0.00     0.031 A 
HETATM   29  C   UNL     1      41.747 -16.646   5.636  1.00  0.00     0.092 A 
HETATM   30  C   UNL     1      41.967 -15.397   1.202  1.00  0.00     0.019 A 
BRANCH  27  31
HETATM   31  C   UNL     1      44.128 -16.962   4.903  1.00  0.00     0.081 C 
HETATM   32  C   UNL     1      44.373 -18.448   4.637  1.00  0.00     0.032 C 
HETATM   33  C   UNL     1      44.593 -16.560   6.304  1.00  0.00     0.032 C 
ENDBRANCH  27  31
ENDBRANCH  19  22
ENDBRANCH   1  18
TORSDOF 3
ENDMDL
MODEL 8
REMARK VINA RESULT:      -8.5      2.865      3.769
REMARK  3 active torsions:
REMARK  status: ('A' for Active; 'I' for Inactive)
REMARK    1  A    between atoms: C_2  and  N_3 
REMARK    2  A    between atoms: C_7  and  C_8 
REMARK       I    between atoms: C_8  and  N_9 
REMARK    3  A    between atoms: N_9  and  C_10 
ROOT
HETATM    1  C   UNL     1      40.229 -11.451   5.756  1.00  0.00     0.036 A 
HETATM    2  C   UNL     1      40.699 -12.760   5.659  1.00  0.00     0.049 A 
HETATM    3  C   UNL     1      40.601 -13.485   4.451  1.00  0.00     0.061 A 
HETATM    4  C   UNL     1      40.030 -12.881   3.322  1.00  0.00     0.050 A 
HETATM    5  N   UNL     1      39.955 -13.432   2.032  1.00  0.00    -0.324 N 
HETATM    6  C   UNL     1      40.816 -14.310   1.427  1.00  0.00     0.245 C 
HETATM    7  O   UNL     1      40.683 -14.505   0.217  1.00  0.00    -0.271 OA
HETATM    8  C   UNL     1      42.012 -14.824   2.225  1.00  0.00     0.180 C 
HETATM    9  N   UNL     1      41.575 -15.508   3.430  1.00  0.00    -0.334 N 
HETATM   10  C   UNL     1      40.999 -14.914   4.525  1.00  0.00     0.256 C 
HETATM   11  O   UNL     1      40.806 -15.528   5.572  1.00  0.00    -0.267 OA
HETATM   12  C   UNL     1      42.814 -15.883   1.456  1.00  0.00     0.037 C 
HETATM   13  C   UNL     1      43.285 -16.835   2.546  1.00  0.00     0.022 C 
HETATM   14  C   UNL     1      42.104 -16.858   3.499  1.00  0.00     0.127 C 
HETATM   15  C   UNL     1      39.478 -11.600   3.455  1.00  0.00     0.033 A 
HETATM   16  C   UNL     1      39.586 -10.889   4.653  1.00  0.00     0.032 A 
HETATM   17  H   UNL     1      39.334 -12.998   1.359  1.00  0.00     0.169 HD
ENDROOT
BRANCH   1  18
HETATM   18  N   UNL     1      40.396 -10.629   6.890  1.00  0.00    -0.323 N 
HETATM   19  C   UNL     1      39.501 -10.442   7.929  1.00  0.00     0.256 C 
HETATM   20  O   UNL     1      38.330 -10.796   7.958  1.00  0.00    -0.267 OA
HETATM   21  H   UNL     1      41.281 -10.144   6.960  1.00  0.00     0.169 HD
BRANCH  19  22
HETATM   22  C   UNL     1      40.056  -9.734   9.118  1.00  0.00     0.033 A 
HETATM   23  C   UNL     1      39.345  -9.684  10.327  1.00  0.00     0.030 A 
HETATM   24  C   UNL     1      39.875  -8.961  11.415  1.00  0.00    -0.007 A 
HETATM   25  C   UNL     1      41.094  -8.291  11.264  1.00  0.00     0.044 A 
HETATM   26  C   UNL     1      39.416  -8.720  12.736  1.00  0.00     0.031 A 
HETATM   27  N   UNL     1      41.350  -7.648  12.463  1.00  0.00    -0.352 N 
HETATM   28  C   UNL     1      41.810  -8.329  10.055  1.00  0.00     0.031 A 
HETATM   29  C   UNL     1      40.342  -7.920  13.360  1.00  0.00     0.092 A 
HETATM   30  C   UNL     1      41.269  -9.055   8.987  1.00  0.00     0.019 A 
BRANCH  27  31
HETATM   31  C   UNL     1      42.497  -6.785  12.749  1.00  0.00     0.081 C 
HETATM   32  C   UNL     1      43.197  -7.192  14.047  1.00  0.00     0.032 C 
HETATM   33  C   UNL     1      42.101  -5.307  12.766  1.00  0.00     0.032 C 
ENDBRANCH  27  31
ENDBRANCH  19  22
ENDBRANCH   1  18
TORSDOF 3
ENDMDL
MODEL 9
REMARK VINA RESULT:      -8.3     18.770     21.371
REMARK  3 active torsions:
REMARK  status: ('A' for Active; 'I' for Inactive)
REMARK    1  A    between atoms: C_2  and  N_3 
REMARK    2  A    between atoms: C_7  and  C_8 
REMARK       I    between atoms: C_8  and  N_9 
REMARK    3  A    between atoms: N_9  and  C_10 
ROOT
HETATM    1  C   UNL     1      41.861 -31.891   6.513  1.00  0.00     0.036 A 
HETATM    2  C   UNL     1      42.394 -31.340   7.677  1.00  0.00     0.049 A 
HETATM    3  C   UNL     1      41.961 -31.764   8.953  1.00  0.00     0.061 A 
HETATM    4  C   UNL     1      40.984 -32.763   9.059  1.00  0.00     0.050 A 
HETATM    5  N   UNL     1      40.528 -33.358  10.247  1.00  0.00    -0.324 N 
HETATM    6  C   UNL     1      41.212 -33.564  11.416  1.00  0.00     0.245 C 
HETATM    7  O   UNL     1      40.694 -34.294  12.265  1.00  0.00    -0.271 OA
HETATM    8  C   UNL     1      42.652 -33.068  11.515  1.00  0.00     0.180 C 
HETATM    9  N   UNL     1      42.720 -31.633  11.296  1.00  0.00    -0.334 N 
HETATM   10  C   UNL     1      42.498 -30.991  10.103  1.00  0.00     0.256 C 
HETATM   11  O   UNL     1      42.734 -29.795   9.954  1.00  0.00    -0.267 OA
HETATM   12  C   UNL     1      43.243 -33.267  12.917  1.00  0.00     0.037 C 
HETATM   13  C   UNL     1      44.148 -32.057  13.100  1.00  0.00     0.022 C 
HETATM   14  C   UNL     1      43.370 -30.955  12.403  1.00  0.00     0.127 C 
HETATM   15  C   UNL     1      40.389 -33.244   7.885  1.00  0.00     0.033 A 
HETATM   16  C   UNL     1      40.829 -32.822   6.627  1.00  0.00     0.032 A 
HETATM   17  H   UNL     1      39.675 -33.905  10.214  1.00  0.00     0.169 HD
ENDROOT
BRANCH   1  18
HETATM   18  N   UNL     1      42.323 -31.601   5.213  1.00  0.00    -0.323 N 
HETATM   19  C   UNL     1      41.694 -30.830   4.251  1.00  0.00     0.256 C 
HETATM   20  O   UNL     1      40.540 -30.423   4.280  1.00  0.00    -0.267 OA
HETATM   21  H   UNL     1      43.228 -31.982   4.969  1.00  0.00     0.169 HD
BRANCH  19  22
HETATM   22  C   UNL     1      42.541 -30.475   3.075  1.00  0.00     0.033 A 
HETATM   23  C   UNL     1      43.888 -30.864   3.011  1.00  0.00     0.030 A 
HETATM   24  C   UNL     1      44.672 -30.466   1.910  1.00  0.00    -0.007 A 
HETATM   25  C   UNL     1      44.098 -29.675   0.908  1.00  0.00     0.044 A 
HETATM   26  C   UNL     1      46.029 -30.685   1.555  1.00  0.00     0.031 A 
HETATM   27  N   UNL     1      45.095 -29.412  -0.017  1.00  0.00    -0.352 N 
HETATM   28  C   UNL     1      42.752 -29.276   0.968  1.00  0.00     0.031 A 
HETATM   29  C   UNL     1      46.260 -30.036   0.367  1.00  0.00     0.092 A 
HETATM   30  C   UNL     1      41.988 -29.683   2.068  1.00  0.00     0.019 A 
BRANCH  27  31
HETATM   31  C   UNL     1      44.960 -28.580  -1.213  1.00  0.00     0.081 C 
HETATM   32  C   UNL     1      44.220 -29.318  -2.330  1.00  0.00     0.032 C 
HETATM   33  C   UNL     1      46.314 -28.054  -1.690  1.00  0.00     0.032 C 
ENDBRANCH  27  31
ENDBRANCH  19  22
ENDBRANCH   1  18
TORSDOF 3
ENDMDL
MODEL 10
REMARK VINA RESULT:      -8.0      1.982      3.030
REMARK  3 active torsions:
REMARK  status: ('A' for Active; 'I' for Inactive)
REMARK    1  A    between atoms: C_2  and  N_3 
REMARK    2  A    between atoms: C_7  and  C_8 
REMARK       I    between atoms: C_8  and  N_9 
REMARK    3  A    between atoms: N_9  and  C_10 
ROOT
HETATM    1  C   UNL     1      43.194 -10.716   7.520  1.00  0.00     0.036 A 
HETATM    2  C   UNL     1      42.434 -10.507   6.370  1.00  0.00     0.049 A 
HETATM    3  C   UNL     1      42.462 -11.426   5.297  1.00  0.00     0.061 A 
HETATM    4  C   UNL     1      43.259 -12.575   5.387  1.00  0.00     0.050 A 
HETATM    5  N   UNL     1      43.314 -13.624   4.454  1.00  0.00    -0.324 N 
HETATM    6  C   UNL     1      42.325 -14.080   3.623  1.00  0.00     0.245 C 
HETATM    7  O   UNL     1      42.514 -15.147   3.034  1.00  0.00    -0.271 OA
HETATM    8  C   UNL     1      40.974 -13.369   3.639  1.00  0.00     0.180 C 
HETATM    9  N   UNL     1      41.125 -11.965   3.296  1.00  0.00    -0.334 N 
HETATM   10  C   UNL     1      41.727 -11.009   4.075  1.00  0.00     0.256 C 
HETATM   11  O   UNL     1      41.673  -9.813   3.797  1.00  0.00    -0.267 OA
HETATM   12  C   UNL     1      40.013 -13.919   2.576  1.00  0.00     0.037 C 
HETATM   13  C   UNL     1      39.231 -12.691   2.132  1.00  0.00     0.022 C 
HETATM   14  C   UNL     1      40.283 -11.597   2.172  1.00  0.00     0.127 C 
HETATM   15  C   UNL     1      44.089 -12.729   6.506  1.00  0.00     0.033 A 
HETATM   16  C   UNL     1      44.049 -11.817   7.564  1.00  0.00     0.032 A 
HETATM   17  H   UNL     1      44.079 -14.286   4.520  1.00  0.00     0.169 HD
ENDROOT
BRANCH   1  18
HETATM   18  N   UNL     1      43.129  -9.906   8.673  1.00  0.00    -0.323 N 
HETATM   19  C   UNL     1      43.821  -8.732   8.912  1.00  0.00     0.256 C 
HETATM   20  O   UNL     1      44.756  -8.287   8.259  1.00  0.00    -0.267 OA
HETATM   21  H   UNL     1      42.486 -10.209   9.392  1.00  0.00     0.169 HD
BRANCH  19  22
HETATM   22  C   UNL     1      43.350  -7.954  10.095  1.00  0.00     0.033 A 
HETATM   23  C   UNL     1      43.470  -8.471  11.394  1.00  0.00     0.030 A 
HETATM   24  C   UNL     1      42.966  -7.731  12.483  1.00  0.00    -0.007 A 
HETATM   25  C   UNL     1      42.339  -6.502  12.247  1.00  0.00     0.044 A 
HETATM   26  C   UNL     1      42.927  -7.968  13.882  1.00  0.00     0.031 A 
HETATM   27  N   UNL     1      41.920  -6.023  13.477  1.00  0.00    -0.352 N 
HETATM   28  C   UNL     1      42.209  -5.981  10.949  1.00  0.00     0.031 A 
HETATM   29  C   UNL     1      42.289  -6.903  14.468  1.00  0.00     0.092 A 
HETATM   30  C   UNL     1      42.718  -6.728   9.880  1.00  0.00     0.019 A 
BRANCH  27  31
HETATM   31  C   UNL     1      41.173  -4.785  13.708  1.00  0.00     0.081 C 
HETATM   32  C   UNL     1      41.189  -4.387  15.185  1.00  0.00     0.032 C 
HETATM   33  C   UNL     1      39.745  -4.879  13.169  1.00  0.00     0.032 C 
ENDBRANCH  27  31
ENDBRANCH  19  22
ENDBRANCH   1  18
TORSDOF 3
ENDMDL
