MODEL 1
REMARK VINA RESULT:      -7.7      0.000      0.000
REMARK  5 active torsions:
REMARK  status: ('A' for Active; 'I' for Inactive)
REMARK    1  A    between atoms: S_2  and  C_3 
REMARK    2  A    between atoms: C_3  and  C_4 
REMARK    3  A    between atoms: C_7  and  C_8 
REMARK       I    between atoms: C_8  and  N_9 
REMARK    4  A    between atoms: N_9  and  C_10 
REMARK    5  A    between atoms: C_12  and  C_13 
ROOT
HETATM    1  C   UNL     1      40.729 -15.012   1.519  1.00  0.00     0.256 C 
HETATM    2  N   UNL     1      42.039 -14.991   1.965  1.00  0.00    -0.323 N 
HETATM    3  O   UNL     1      39.806 -15.642   2.023  1.00  0.00    -0.267 OA
HETATM    4  H   UNL     1      42.695 -14.401   1.475  1.00  0.00     0.169 HD
ENDROOT
BRANCH   2   5
HETATM    5  C   UNL     1      42.603 -15.781   2.993  1.00  0.00     0.035 A 
HETATM    6  C   UNL     1      42.833 -17.157   2.884  1.00  0.00     0.042 A 
HETATM    7  C   UNL     1      43.461 -17.876   3.915  1.00  0.00    -0.021 A 
HETATM    8  C   UNL     1      43.832 -17.193   5.081  1.00  0.00     0.012 A 
HETATM    9  C   UNL     1      43.594 -15.825   5.207  1.00  0.00     0.003 A 
HETATM   10  C   UNL     1      42.991 -15.121   4.164  1.00  0.00     0.029 A 
BRANCH   7  11
HETATM   11  C   UNL     1      43.749 -19.293   3.742  1.00  0.00     0.010 A 
HETATM   12  C   UNL     1      43.682 -20.114   2.588  1.00  0.00     0.152 A 
HETATM   13  N   UNL     1      44.042 -21.378   2.828  1.00  0.00    -0.187 NA
HETATM   14  N   UNL     1      44.328 -21.379   4.138  1.00  0.00    -0.289 N 
HETATM   15  H   UNL     1      44.627 -22.249   4.563  1.00  0.00     0.188 HD
HETATM   16  C   UNL     1      44.171 -20.159   4.730  1.00  0.00     0.123 A 
ENDBRANCH   7  11
ENDBRANCH   2   5
BRANCH   1  17
HETATM   17  C   UNL     1      40.440 -14.220   0.282  1.00  0.00     0.032 A 
HETATM   18  C   UNL     1      39.636 -14.686  -0.766  1.00  0.00     0.017 A 
HETATM   19  C   UNL     1      39.350 -13.855  -1.854  1.00  0.00     0.009 A 
HETATM   20  C   UNL     1      39.874 -12.555  -1.924  1.00  0.00    -0.049 A 
HETATM   21  C   UNL     1      40.716 -12.111  -0.897  1.00  0.00     0.009 A 
HETATM   22  C   UNL     1      40.996 -12.936   0.194  1.00  0.00     0.017 A 
BRANCH  20  23
HETATM   23  C   UNL     1      39.521 -11.641  -3.070  1.00  0.00     0.112 C 
BRANCH  23  24
HETATM   24  S   UNL     1      38.411 -10.279  -2.585  1.00  0.00    -0.169 SA
HETATM   25  C   UNL     1      36.824 -11.151  -2.619  1.00  0.00     0.090 C 
ENDBRANCH  23  24
ENDBRANCH  20  23
ENDBRANCH   1  17
TORSDOF 5
ENDMDL
MODEL 2
REMARK VINA RESULT:      -7.5      6.602      9.778
REMARK  5 active torsions:
REMARK  status: ('A' for Active; 'I' for Inactive)
REMARK    1  A    between atoms: S_2  and  C_3 
REMARK    2  A    between atoms: C_3  and  C_4 
REMARK    3  A    between atoms: C_7  and  C_8 
REMARK       I    between atoms: C_8  and  N_9 
REMARK    4  A    between atoms: N_9  and  C_10 
REMARK    5  A    between atoms: C_12  and  C_13 
ROOT
HETATM    1  C   UNL     1      43.430 -12.926   6.290  1.00  0.00     0.256 C 
HETATM    2  N   UNL     1      44.620 -12.492   6.850  1.00  0.00    -0.323 N 
HETATM    3  O   UNL     1      42.377 -12.299   6.260  1.00  0.00    -0.267 OA
HETATM    4  H   UNL     1      45.424 -13.096   6.776  1.00  0.00     0.169 HD
ENDROOT
BRANCH   2   5
HETATM    5  C   UNL     1      44.827 -11.316   7.606  1.00  0.00     0.035 A 
HETATM    6  C   UNL     1      44.003 -10.910   8.661  1.00  0.00     0.042 A 
HETATM    7  C   UNL     1      44.300  -9.766   9.422  1.00  0.00    -0.021 A 
HETATM    8  C   UNL     1      45.431  -9.012   9.087  1.00  0.00     0.012 A 
HETATM    9  C   UNL     1      46.253  -9.399   8.028  1.00  0.00     0.003 A 
HETATM   10  C   UNL     1      45.956 -10.550   7.298  1.00  0.00     0.029 A 
BRANCH   7  11
HETATM   11  C   UNL     1      43.459  -9.410  10.556  1.00  0.00     0.010 A 
HETATM   12  C   UNL     1      42.079  -9.636  10.790  1.00  0.00     0.152 A 
HETATM   13  N   UNL     1      41.668  -9.167  11.972  1.00  0.00    -0.187 NA
HETATM   14  N   UNL     1      42.777  -8.627  12.497  1.00  0.00    -0.289 N 
HETATM   15  H   UNL     1      42.712  -8.193  13.411  1.00  0.00     0.188 HD
HETATM   16  C   UNL     1      43.874  -8.746  11.693  1.00  0.00     0.123 A 
ENDBRANCH   7  11
ENDBRANCH   2   5
BRANCH   1  17
HETATM   17  C   UNL     1      43.439 -14.306   5.710  1.00  0.00     0.032 A 
HETATM   18  C   UNL     1      42.893 -14.624   4.461  1.00  0.00     0.017 A 
HETATM   19  C   UNL     1      43.010 -15.923   3.953  1.00  0.00     0.009 A 
HETATM   20  C   UNL     1      43.655 -16.927   4.690  1.00  0.00    -0.049 A 
HETATM   21  C   UNL     1      44.158 -16.616   5.959  1.00  0.00     0.009 A 
HETATM   22  C   UNL     1      44.050 -15.318   6.463  1.00  0.00     0.017 A 
BRANCH  20  23
HETATM   23  C   UNL     1      43.829 -18.312   4.119  1.00  0.00     0.112 C 
BRANCH  23  24
HETATM   24  S   UNL     1      43.192 -18.472   2.420  1.00  0.00    -0.169 SA
HETATM   25  C   UNL     1      43.552 -20.222   2.122  1.00  0.00     0.090 C 
ENDBRANCH  23  24
ENDBRANCH  20  23
ENDBRANCH   1  17
TORSDOF 5
ENDMDL
MODEL 3
REMARK VINA RESULT:      -7.4      2.190      3.122
REMARK  5 active torsions:
REMARK  status: ('A' for Active; 'I' for Inactive)
REMARK    1  A    between atoms: S_2  and  C_3 
REMARK    2  A    between atoms: C_3  and  C_4 
REMARK    3  A    between atoms: C_7  and  C_8 
REMARK       I    between atoms: C_8  and  N_9 
REMARK    4  A    between atoms: N_9  and  C_10 
REMARK    5  A    between atoms: C_12  and  C_13 
ROOT
HETATM    1  C   UNL     1      40.610 -15.180   1.085  1.00  0.00     0.256 C 
HETATM    2  N   UNL     1      41.917 -15.113   1.539  1.00  0.00    -0.323 N 
HETATM    3  O   UNL     1      39.740 -15.936   1.503  1.00  0.00    -0.267 OA
HETATM    4  H   UNL     1      42.523 -14.418   1.129  1.00  0.00     0.169 HD
ENDROOT
BRANCH   2   5
HETATM    5  C   UNL     1      42.543 -15.976   2.466  1.00  0.00     0.035 A 
HETATM    6  C   UNL     1      42.668 -15.697   3.831  1.00  0.00     0.042 A 
HETATM    7  C   UNL     1      43.239 -16.627   4.717  1.00  0.00    -0.021 A 
HETATM    8  C   UNL     1      43.715 -17.839   4.203  1.00  0.00     0.012 A 
HETATM    9  C   UNL     1      43.610 -18.122   2.841  1.00  0.00     0.003 A 
HETATM   10  C   UNL     1      43.018 -17.198   1.980  1.00  0.00     0.029 A 
BRANCH   7  11
HETATM   11  C   UNL     1      43.292 -16.334   6.143  1.00  0.00     0.010 A 
HETATM   12  C   UNL     1      43.047 -15.129   6.848  1.00  0.00     0.152 A 
HETATM   13  N   UNL     1      43.182 -15.263   8.170  1.00  0.00    -0.187 NA
HETATM   14  N   UNL     1      43.527 -16.549   8.320  1.00  0.00    -0.289 N 
HETATM   15  H   UNL     1      43.694 -16.895   9.259  1.00  0.00     0.188 HD
HETATM   16  C   UNL     1      43.605 -17.234   7.142  1.00  0.00     0.123 A 
ENDBRANCH   7  11
ENDBRANCH   2   5
BRANCH   1  17
HETATM   17  C   UNL     1      40.257 -14.267  -0.048  1.00  0.00     0.032 A 
HETATM   18  C   UNL     1      39.445 -14.647  -1.123  1.00  0.00     0.017 A 
HETATM   19  C   UNL     1      39.097 -13.712  -2.104  1.00  0.00     0.009 A 
HETATM   20  C   UNL     1      39.566 -12.392  -2.038  1.00  0.00    -0.049 A 
HETATM   21  C   UNL     1      40.417 -12.030  -0.987  1.00  0.00     0.009 A 
HETATM   22  C   UNL     1      40.758 -12.959  -0.002  1.00  0.00     0.017 A 
BRANCH  20  23
HETATM   23  C   UNL     1      39.146 -11.371  -3.065  1.00  0.00     0.112 C 
BRANCH  23  24
HETATM   24  S   UNL     1      38.391  -9.884  -2.331  1.00  0.00    -0.169 SA
HETATM   25  C   UNL     1      39.714  -8.686  -2.637  1.00  0.00     0.090 C 
ENDBRANCH  23  24
ENDBRANCH  20  23
ENDBRANCH   1  17
TORSDOF 5
ENDMDL
MODEL 4
REMARK VINA RESULT:      -7.2      5.048      7.588
REMARK  5 active torsions:
REMARK  status: ('A' for Active; 'I' for Inactive)
REMARK    1  A    between atoms: S_2  and  C_3 
REMARK    2  A    between atoms: C_3  and  C_4 
REMARK    3  A    between atoms: C_7  and  C_8 
REMARK       I    between atoms: C_8  and  N_9 
REMARK    4  A    between atoms: N_9  and  C_10 
REMARK    5  A    between atoms: C_12  and  C_13 
ROOT
HETATM    1  C   UNL     1      43.659 -12.348   4.773  1.00  0.00     0.256 C 
HETATM    2  N   UNL     1      42.950 -13.518   4.986  1.00  0.00    -0.323 N 
HETATM    3  O   UNL     1      44.001 -11.902   3.683  1.00  0.00    -0.267 OA
HETATM    4  H   UNL     1      42.703 -13.753   5.936  1.00  0.00     0.169 HD
ENDROOT
BRANCH   2   5
HETATM    5  C   UNL     1      42.597 -14.490   4.022  1.00  0.00     0.035 A 
HETATM    6  C   UNL     1      43.114 -15.789   3.997  1.00  0.00     0.042 A 
HETATM    7  C   UNL     1      42.672 -16.733   3.054  1.00  0.00    -0.021 A 
HETATM    8  C   UNL     1      41.715 -16.341   2.109  1.00  0.00     0.012 A 
HETATM    9  C   UNL     1      41.204 -15.043   2.114  1.00  0.00     0.003 A 
HETATM   10  C   UNL     1      41.636 -14.126   3.072  1.00  0.00     0.029 A 
BRANCH   7  11
HETATM   11  C   UNL     1      43.180 -18.097   3.099  1.00  0.00     0.010 A 
HETATM   12  C   UNL     1      43.068 -19.155   2.162  1.00  0.00     0.152 A 
HETATM   13  N   UNL     1      43.689 -20.270   2.559  1.00  0.00    -0.187 NA
HETATM   14  N   UNL     1      44.191 -19.937   3.757  1.00  0.00    -0.289 N 
HETATM   15  H   UNL     1      44.713 -20.640   4.270  1.00  0.00     0.188 HD
HETATM   16  C   UNL     1      43.917 -18.652   4.125  1.00  0.00     0.123 A 
ENDBRANCH   7  11
ENDBRANCH   2   5
BRANCH   1  17
HETATM   17  C   UNL     1      44.073 -11.595   5.998  1.00  0.00     0.032 A 
HETATM   18  C   UNL     1      45.363 -11.644   6.538  1.00  0.00     0.017 A 
HETATM   19  C   UNL     1      45.694 -10.849   7.642  1.00  0.00     0.009 A 
HETATM   20  C   UNL     1      44.740 -10.008   8.233  1.00  0.00    -0.049 A 
HETATM   21  C   UNL     1      43.438  -9.998   7.719  1.00  0.00     0.009 A 
HETATM   22  C   UNL     1      43.108 -10.784   6.613  1.00  0.00     0.017 A 
BRANCH  20  23
HETATM   23  C   UNL     1      45.111  -9.111   9.387  1.00  0.00     0.112 C 
BRANCH  23  24
HETATM   24  S   UNL     1      43.792  -8.966  10.636  1.00  0.00    -0.169 SA
HETATM   25  C   UNL     1      43.825 -10.647  11.311  1.00  0.00     0.090 C 
ENDBRANCH  23  24
ENDBRANCH  20  23
ENDBRANCH   1  17
TORSDOF 5
ENDMDL
MODEL 5
REMARK VINA RESULT:      -7.1      3.910      9.300
REMARK  5 active torsions:
REMARK  status: ('A' for Active; 'I' for Inactive)
REMARK    1  A    between atoms: S_2  and  C_3 
REMARK    2  A    between atoms: C_3  and  C_4 
REMARK    3  A    between atoms: C_7  and  C_8 
REMARK       I    between atoms: C_8  and  N_9 
REMARK    4  A    between atoms: N_9  and  C_10 
REMARK    5  A    between atoms: C_12  and  C_13 
ROOT
HETATM    1  C   UNL     1      40.456 -14.619   1.368  1.00  0.00     0.256 C 
HETATM    2  N   UNL     1      40.750 -14.603   0.015  1.00  0.00    -0.323 N 
HETATM    3  O   UNL     1      39.589 -13.954   1.925  1.00  0.00    -0.267 OA
HETATM    4  H   UNL     1      41.468 -15.228  -0.318  1.00  0.00     0.169 HD
ENDROOT
BRANCH   2   5
HETATM    5  C   UNL     1      40.214 -13.737  -0.964  1.00  0.00     0.035 A 
HETATM    6  C   UNL     1      40.723 -12.465  -1.245  1.00  0.00     0.042 A 
HETATM    7  C   UNL     1      40.190 -11.676  -2.279  1.00  0.00    -0.021 A 
HETATM    8  C   UNL     1      39.109 -12.176  -3.015  1.00  0.00     0.012 A 
HETATM    9  C   UNL     1      38.582 -13.437  -2.734  1.00  0.00     0.003 A 
HETATM   10  C   UNL     1      39.139 -14.216  -1.720  1.00  0.00     0.029 A 
BRANCH   7  11
HETATM   11  C   UNL     1      40.789 -10.385  -2.590  1.00  0.00     0.010 A 
HETATM   12  C   UNL     1      40.771  -9.623  -3.785  1.00  0.00     0.152 A 
HETATM   13  N   UNL     1      41.431  -8.467  -3.675  1.00  0.00    -0.187 NA
HETATM   14  N   UNL     1      41.887  -8.486  -2.414  1.00  0.00    -0.289 N 
HETATM   15  H   UNL     1      42.436  -7.698  -2.091  1.00  0.00     0.188 HD
HETATM   16  C   UNL     1      41.530  -9.608  -1.723  1.00  0.00     0.123 A 
ENDBRANCH   7  11
ENDBRANCH   2   5
BRANCH   1  17
HETATM   17  C   UNL     1      41.312 -15.504   2.220  1.00  0.00     0.032 A 
HETATM   18  C   UNL     1      42.498 -16.098   1.772  1.00  0.00     0.017 A 
HETATM   19  C   UNL     1      43.284 -16.849   2.653  1.00  0.00     0.009 A 
HETATM   20  C   UNL     1      42.891 -17.034   3.986  1.00  0.00    -0.049 A 
HETATM   21  C   UNL     1      41.680 -16.479   4.417  1.00  0.00     0.009 A 
HETATM   22  C   UNL     1      40.899 -15.721   3.542  1.00  0.00     0.017 A 
BRANCH  20  23
HETATM   23  C   UNL     1      43.765 -17.798   4.949  1.00  0.00     0.112 C 
BRANCH  23  24
HETATM   24  S   UNL     1      44.398 -19.361   4.259  1.00  0.00    -0.169 SA
HETATM   25  C   UNL     1      43.891 -20.501   5.571  1.00  0.00     0.090 C 
ENDBRANCH  23  24
ENDBRANCH  20  23
ENDBRANCH   1  17
TORSDOF 5
ENDMDL
MODEL 6
REMARK VINA RESULT:      -6.8      9.279     12.175
REMARK  5 active torsions:
REMARK  status: ('A' for Active; 'I' for Inactive)
REMARK    1  A    between atoms: S_2  and  C_3 
REMARK    2  A    between atoms: C_3  and  C_4 
REMARK    3  A    between atoms: C_7  and  C_8 
REMARK       I    between atoms: C_8  and  N_9 
REMARK    4  A    between atoms: N_9  and  C_10 
REMARK    5  A    between atoms: C_12  and  C_13 
ROOT
HETATM    1  C   UNL     1      43.209  -9.009  10.091  1.00  0.00     0.256 C 
HETATM    2  N   UNL     1      43.548 -10.301   9.726  1.00  0.00    -0.323 N 
HETATM    3  O   UNL     1      43.365  -8.003   9.408  1.00  0.00    -0.267 OA
HETATM    4  H   UNL     1      43.333 -11.045  10.372  1.00  0.00     0.169 HD
ENDROOT
BRANCH   2   5
HETATM    5  C   UNL     1      44.252 -10.703   8.568  1.00  0.00     0.035 A 
HETATM    6  C   UNL     1      43.647 -11.279   7.446  1.00  0.00     0.042 A 
HETATM    7  C   UNL     1      44.391 -11.595   6.296  1.00  0.00    -0.021 A 
HETATM    8  C   UNL     1      45.770 -11.348   6.300  1.00  0.00     0.012 A 
HETATM    9  C   UNL     1      46.387 -10.787   7.418  1.00  0.00     0.003 A 
HETATM   10  C   UNL     1      45.629 -10.458   8.542  1.00  0.00     0.029 A 
BRANCH   7  11
HETATM   11  C   UNL     1      43.719 -12.130   5.120  1.00  0.00     0.010 A 
HETATM   12  C   UNL     1      42.856 -13.245   4.978  1.00  0.00     0.152 A 
HETATM   13  N   UNL     1      42.421 -13.410   3.725  1.00  0.00    -0.187 NA
HETATM   14  N   UNL     1      43.012 -12.410   3.055  1.00  0.00    -0.289 N 
HETATM   15  H   UNL     1      42.835 -12.329   2.060  1.00  0.00     0.188 HD
HETATM   16  C   UNL     1      43.796 -11.616   3.841  1.00  0.00     0.123 A 
ENDBRANCH   7  11
ENDBRANCH   2   5
BRANCH   1  17
HETATM   17  C   UNL     1      42.639  -8.839  11.465  1.00  0.00     0.032 A 
HETATM   18  C   UNL     1      41.491  -9.502  11.914  1.00  0.00     0.017 A 
HETATM   19  C   UNL     1      41.066  -9.350  13.239  1.00  0.00     0.009 A 
HETATM   20  C   UNL     1      41.767  -8.524  14.129  1.00  0.00    -0.049 A 
HETATM   21  C   UNL     1      42.887  -7.825  13.661  1.00  0.00     0.009 A 
HETATM   22  C   UNL     1      43.318  -7.982  12.343  1.00  0.00     0.017 A 
BRANCH  20  23
HETATM   23  C   UNL     1      41.341  -8.404  15.570  1.00  0.00     0.112 C 
BRANCH  23  24
HETATM   24  S   UNL     1      41.646  -6.751  16.273  1.00  0.00    -0.169 SA
HETATM   25  C   UNL     1      40.268  -6.657  17.444  1.00  0.00     0.090 C 
ENDBRANCH  23  24
ENDBRANCH  20  23
ENDBRANCH   1  17
TORSDOF 5
ENDMDL
MODEL 7
REMARK VINA RESULT:      -6.8      3.953      9.325
REMARK  5 active torsions:
REMARK  status: ('A' for Active; 'I' for Inactive)
REMARK    1  A    between atoms: S_2  and  C_3 
REMARK    2  A    between atoms: C_3  and  C_4 
REMARK    3  A    between atoms: C_7  and  C_8 
REMARK       I    between atoms: C_8  and  N_9 
REMARK    4  A    between atoms: N_9  and  C_10 
REMARK    5  A    between atoms: C_12  and  C_13 
ROOT
HETATM    1  C   UNL     1      40.633 -15.406   1.170  1.00  0.00     0.256 C 
HETATM    2  N   UNL     1      40.922 -14.260   0.450  1.00  0.00    -0.323 N 
HETATM    3  O   UNL     1      39.611 -16.077   1.077  1.00  0.00    -0.267 OA
HETATM    4  H   UNL     1      41.818 -13.821   0.600  1.00  0.00     0.169 HD
ENDROOT
BRANCH   2   5
HETATM    5  C   UNL     1      40.060 -13.564  -0.428  1.00  0.00     0.035 A 
HETATM    6  C   UNL     1      39.061 -12.680  -0.004  1.00  0.00     0.042 A 
HETATM    7  C   UNL     1      38.280 -11.964  -0.927  1.00  0.00    -0.021 A 
HETATM    8  C   UNL     1      38.498 -12.171  -2.295  1.00  0.00     0.012 A 
HETATM    9  C   UNL     1      39.481 -13.061  -2.729  1.00  0.00     0.003 A 
HETATM   10  C   UNL     1      40.263 -13.746  -1.800  1.00  0.00     0.029 A 
BRANCH   7  11
HETATM   11  C   UNL     1      37.295 -11.001  -0.453  1.00  0.00     0.010 A 
HETATM   12  C   UNL     1      36.568 -10.005  -1.150  1.00  0.00     0.152 A 
HETATM   13  N   UNL     1      35.735  -9.320  -0.361  1.00  0.00    -0.187 NA
HETATM   14  N   UNL     1      35.934  -9.863   0.848  1.00  0.00    -0.289 N 
HETATM   15  H   UNL     1      35.405  -9.495   1.632  1.00  0.00     0.188 HD
HETATM   16  C   UNL     1      36.854 -10.871   0.849  1.00  0.00     0.123 A 
ENDBRANCH   7  11
ENDBRANCH   2   5
BRANCH   1  17
HETATM   17  C   UNL     1      41.655 -15.826   2.180  1.00  0.00     0.032 A 
HETATM   18  C   UNL     1      42.171 -14.971   3.161  1.00  0.00     0.017 A 
HETATM   19  C   UNL     1      43.066 -15.460   4.119  1.00  0.00     0.009 A 
HETATM   20  C   UNL     1      43.474 -16.802   4.102  1.00  0.00    -0.049 A 
HETATM   21  C   UNL     1      42.993 -17.641   3.090  1.00  0.00     0.009 A 
HETATM   22  C   UNL     1      42.093 -17.158   2.139  1.00  0.00     0.017 A 
BRANCH  20  23
HETATM   23  C   UNL     1      44.396 -17.342   5.167  1.00  0.00     0.112 C 
BRANCH  23  24
HETATM   24  S   UNL     1      43.508 -18.056   6.589  1.00  0.00    -0.169 SA
HETATM   25  C   UNL     1      43.549 -19.807   6.126  1.00  0.00     0.090 C 
ENDBRANCH  23  24
ENDBRANCH  20  23
ENDBRANCH   1  17
TORSDOF 5
ENDMDL
MODEL 8
REMARK VINA RESULT:      -6.7     14.754     16.375
REMARK  5 active torsions:
REMARK  status: ('A' for Active; 'I' for Inactive)
REMARK    1  A    between atoms: S_2  and  C_3 
REMARK    2  A    between atoms: C_3  and  C_4 
REMARK    3  A    between atoms: C_7  and  C_8 
REMARK       I    between atoms: C_8  and  N_9 
REMARK    4  A    between atoms: N_9  and  C_10 
REMARK    5  A    between atoms: C_12  and  C_13 
ROOT
HETATM    1  C   UNL     1      42.284 -29.716   1.418  1.00  0.00     0.256 C 
HETATM    2  N   UNL     1      43.362 -30.349   0.824  1.00  0.00    -0.323 N 
HETATM    3  O   UNL     1      41.993 -28.530   1.306  1.00  0.00    -0.267 OA
HETATM    4  H   UNL     1      43.467 -31.341   0.973  1.00  0.00     0.169 HD
ENDROOT
BRANCH   2   5
HETATM    5  C   UNL     1      44.408 -29.744   0.089  1.00  0.00     0.035 A 
HETATM    6  C   UNL     1      45.764 -29.884   0.401  1.00  0.00     0.042 A 
HETATM    7  C   UNL     1      46.762 -29.315  -0.408  1.00  0.00    -0.021 A 
HETATM    8  C   UNL     1      46.374 -28.571  -1.530  1.00  0.00     0.012 A 
HETATM    9  C   UNL     1      45.024 -28.412  -1.842  1.00  0.00     0.003 A 
HETATM   10  C   UNL     1      44.047 -29.003  -1.041  1.00  0.00     0.029 A 
BRANCH   7  11
HETATM   11  C   UNL     1      48.167 -29.538  -0.094  1.00  0.00     0.010 A 
HETATM   12  C   UNL     1      49.289 -29.696  -0.945  1.00  0.00     0.152 A 
HETATM   13  N   UNL     1      50.431 -29.869  -0.274  1.00  0.00    -0.187 NA
HETATM   14  N   UNL     1      50.047 -29.836   1.010  1.00  0.00    -0.289 N 
HETATM   15  H   UNL     1      50.755 -29.954   1.726  1.00  0.00     0.188 HD
HETATM   16  C   UNL     1      48.705 -29.639   1.173  1.00  0.00     0.123 A 
ENDBRANCH   7  11
ENDBRANCH   2   5
BRANCH   1  17
HETATM   17  C   UNL     1      41.429 -30.564   2.308  1.00  0.00     0.032 A 
HETATM   18  C   UNL     1      40.656 -31.636   1.846  1.00  0.00     0.017 A 
HETATM   19  C   UNL     1      39.944 -32.430   2.753  1.00  0.00     0.009 A 
HETATM   20  C   UNL     1      39.977 -32.156   4.128  1.00  0.00    -0.049 A 
HETATM   21  C   UNL     1      40.712 -31.054   4.580  1.00  0.00     0.009 A 
HETATM   22  C   UNL     1      41.431 -30.266   3.678  1.00  0.00     0.017 A 
BRANCH  20  23
HETATM   23  C   UNL     1      39.254 -33.044   5.109  1.00  0.00     0.112 C 
BRANCH  23  24
HETATM   24  S   UNL     1      38.057 -34.165   4.315  1.00  0.00    -0.169 SA
HETATM   25  C   UNL     1      36.511 -33.372   4.826  1.00  0.00     0.090 C 
ENDBRANCH  23  24
ENDBRANCH  20  23
ENDBRANCH   1  17
TORSDOF 5
ENDMDL
MODEL 9
REMARK VINA RESULT:      -6.7     14.226     15.894
REMARK  5 active torsions:
REMARK  status: ('A' for Active; 'I' for Inactive)
REMARK    1  A    between atoms: S_2  and  C_3 
REMARK    2  A    between atoms: C_3  and  C_4 
REMARK    3  A    between atoms: C_7  and  C_8 
REMARK       I    between atoms: C_8  and  N_9 
REMARK    4  A    between atoms: N_9  and  C_10 
REMARK    5  A    between atoms: C_12  and  C_13 
ROOT
HETATM    1  C   UNL     1      47.708 -28.585   1.422  1.00  0.00     0.256 C 
HETATM    2  N   UNL     1      48.524 -29.696   1.549  1.00  0.00    -0.323 N 
HETATM    3  O   UNL     1      47.443 -27.779   2.308  1.00  0.00    -0.267 OA
HETATM    4  H   UNL     1      48.685 -30.259   0.728  1.00  0.00     0.169 HD
ENDROOT
BRANCH   2   5
HETATM    5  C   UNL     1      49.104 -30.197   2.737  1.00  0.00     0.035 A 
HETATM    6  C   UNL     1      48.385 -30.863   3.736  1.00  0.00     0.042 A 
HETATM    7  C   UNL     1      49.029 -31.400   4.864  1.00  0.00    -0.021 A 
HETATM    8  C   UNL     1      50.413 -31.232   4.991  1.00  0.00     0.012 A 
HETATM    9  C   UNL     1      51.138 -30.556   4.009  1.00  0.00     0.003 A 
HETATM   10  C   UNL     1      50.487 -30.050   2.884  1.00  0.00     0.029 A 
BRANCH   7  11
HETATM   11  C   UNL     1      48.262 -32.148   5.851  1.00  0.00     0.010 A 
HETATM   12  C   UNL     1      48.635 -33.235   6.679  1.00  0.00     0.152 A 
HETATM   13  N   UNL     1      47.644 -33.647   7.476  1.00  0.00    -0.187 NA
HETATM   14  N   UNL     1      46.627 -32.835   7.153  1.00  0.00    -0.289 N 
HETATM   15  H   UNL     1      45.742 -32.961   7.633  1.00  0.00     0.188 HD
HETATM   16  C   UNL     1      46.943 -31.921   6.190  1.00  0.00     0.123 A 
ENDBRANCH   7  11
ENDBRANCH   2   5
BRANCH   1  17
HETATM   17  C   UNL     1      47.064 -28.388   0.084  1.00  0.00     0.032 A 
HETATM   18  C   UNL     1      47.784 -28.235  -1.106  1.00  0.00     0.017 A 
HETATM   19  C   UNL     1      47.109 -28.134  -2.328  1.00  0.00     0.009 A 
HETATM   20  C   UNL     1      45.707 -28.166  -2.379  1.00  0.00    -0.049 A 
HETATM   21  C   UNL     1      44.991 -28.271  -1.181  1.00  0.00     0.009 A 
HETATM   22  C   UNL     1      45.663 -28.381   0.038  1.00  0.00     0.017 A 
BRANCH  20  23
HETATM   23  C   UNL     1      44.982 -28.112  -3.699  1.00  0.00     0.112 C 
BRANCH  23  24
HETATM   24  S   UNL     1      44.090 -29.652  -4.090  1.00  0.00    -0.169 SA
HETATM   25  C   UNL     1      45.493 -30.724  -4.494  1.00  0.00     0.090 C 
ENDBRANCH  23  24
ENDBRANCH  20  23
ENDBRANCH   1  17
TORSDOF 5
ENDMDL
MODEL 10
REMARK VINA RESULT:      -6.5     13.798     16.093
REMARK  5 active torsions:
REMARK  status: ('A' for Active; 'I' for Inactive)
REMARK    1  A    between atoms: S_2  and  C_3 
REMARK    2  A    between atoms: C_3  and  C_4 
REMARK    3  A    between atoms: C_7  and  C_8 
REMARK       I    between atoms: C_8  and  N_9 
REMARK    4  A    between atoms: N_9  and  C_10 
REMARK    5  A    between atoms: C_12  and  C_13 
ROOT
HETATM    1  C   UNL     1      42.663  -7.319  13.733  1.00  0.00     0.256 C 
HETATM    2  N   UNL     1      41.338  -7.372  14.131  1.00  0.00    -0.323 N 
HETATM    3  O   UNL     1      43.613  -6.986  14.433  1.00  0.00    -0.267 OA
HETATM    4  H   UNL     1      40.657  -7.698  13.461  1.00  0.00     0.169 HD
ENDROOT
BRANCH   2   5
HETATM    5  C   UNL     1      40.799  -6.934  15.362  1.00  0.00     0.035 A 
HETATM    6  C   UNL     1      40.736  -7.726  16.513  1.00  0.00     0.042 A 
HETATM    7  C   UNL     1      40.251  -7.212  17.728  1.00  0.00    -0.021 A 
HETATM    8  C   UNL     1      39.800  -5.887  17.764  1.00  0.00     0.012 A 
HETATM    9  C   UNL     1      39.844  -5.092  16.618  1.00  0.00     0.003 A 
HETATM   10  C   UNL     1      40.350  -5.611  15.427  1.00  0.00     0.029 A 
BRANCH   7  11
HETATM   11  C   UNL     1      40.263  -8.043  18.925  1.00  0.00     0.010 A 
HETATM   12  C   UNL     1      39.205  -8.690  19.609  1.00  0.00     0.152 A 
HETATM   13  N   UNL     1      39.621  -9.383  20.674  1.00  0.00    -0.187 NA
HETATM   14  N   UNL     1      40.945  -9.173  20.685  1.00  0.00    -0.289 N 
HETATM   15  H   UNL     1      41.492  -9.603  21.423  1.00  0.00     0.188 HD
HETATM   16  C   UNL     1      41.380  -8.381  19.662  1.00  0.00     0.123 A 
ENDBRANCH   7  11
ENDBRANCH   2   5
BRANCH   1  17
HETATM   17  C   UNL     1      42.937  -7.664  12.302  1.00  0.00     0.032 A 
HETATM   18  C   UNL     1      42.518  -6.877  11.223  1.00  0.00     0.017 A 
HETATM   19  C   UNL     1      42.881  -7.225   9.917  1.00  0.00     0.009 A 
HETATM   20  C   UNL     1      43.650  -8.372   9.666  1.00  0.00    -0.049 A 
HETATM   21  C   UNL     1      44.025  -9.182  10.745  1.00  0.00     0.009 A 
HETATM   22  C   UNL     1      43.672  -8.830  12.049  1.00  0.00     0.017 A 
BRANCH  20  23
HETATM   23  C   UNL     1      44.087  -8.717   8.265  1.00  0.00     0.112 C 
BRANCH  23  24
HETATM   24  S   UNL     1      44.223 -10.511   7.978  1.00  0.00    -0.169 SA
HETATM   25  C   UNL     1      46.011 -10.643   7.716  1.00  0.00     0.090 C 
ENDBRANCH  23  24
ENDBRANCH  20  23
ENDBRANCH   1  17
TORSDOF 5
ENDMDL
