MODEL 1
REMARK VINA RESULT:      -8.8      0.000      0.000
REMARK  6 active torsions:
REMARK  status: ('A' for Active; 'I' for Inactive)
REMARK    1  A    between atoms: CG_8  and  CB_9 
REMARK    2  A    between atoms: CB_9  and  CA_10 
REMARK    3  A    between atoms: CA_10  and  N_11 
REMARK    4  A    between atoms: CA_10  and  C_12 
REMARK       I    between atoms: N_11  and  C_18 
REMARK    5  A    between atoms: C_12  and  O_13 
REMARK       I    between atoms: C_18  and  N_19 
REMARK    6  A    between atoms: N_19  and  C_20 
ROOT
ATOM      1  CA  TRP A   1      41.653 -15.102   1.882  1.00  0.00     0.114 C 
ENDROOT
BRANCH   1   2
ATOM      2  CB  TRP A   1      42.800 -16.094   1.595  1.00  0.00     0.068 C 
BRANCH   2   3
ATOM      3  CG  TRP A   1      43.258 -16.814   2.832  1.00  0.00    -0.028 A 
ATOM      4  CD2 TRP A   1      43.460 -18.222   2.998  1.00  0.00    -0.002 A 
ATOM      5  CE3 TRP A   1      43.339 -19.341   2.150  1.00  0.00     0.014 A 
ATOM      6  CE2 TRP A   1      43.851 -18.435   4.321  1.00  0.00     0.042 A 
ATOM      7  CZ3 TRP A   1      43.585 -20.623   2.654  1.00  0.00     0.001 A 
ATOM      8  CH2 TRP A   1      43.962 -20.802   3.983  1.00  0.00     0.002 A 
ATOM      9  CZ2 TRP A   1      44.109 -19.709   4.842  1.00  0.00     0.030 A 
ATOM     10  NE1 TRP A   1      43.921 -17.203   4.926  1.00  0.00    -0.365 N 
ATOM     11  HE1 TRP A   1      44.197 -17.051   5.886  1.00  0.00     0.165 HD
ATOM     12  CD1 TRP A   1      43.565 -16.221   4.043  1.00  0.00     0.096 A 
ENDBRANCH   2   3
ENDBRANCH   1   2
BRANCH   1  13
ATOM     13  N   TRP A   1      42.126 -13.831   2.451  1.00  0.00    -0.336 N 
HETATM   14  C   UNK A   0      41.823 -12.612   1.939  1.00  0.00     0.321 C 
HETATM   15  N   UNK A   0      42.313 -11.517   2.580  1.00  0.00    -0.309 N 
HETATM   16  O   UNK A   0      41.190 -12.462   0.896  1.00  0.00    -0.247 OA
HETATM   17  H   UNK A   0      42.227 -10.689   2.003  1.00  0.00     0.170 HD
ATOM     18  H   TRP A   1      42.974 -13.874   3.000  1.00  0.00     0.164 HD
BRANCH  15  19
HETATM   19  C   UNK A   0      42.737 -11.303   3.906  1.00  0.00     0.036 A 
HETATM   20  C   UNK A   0      44.047 -11.493   4.352  1.00  0.00     0.039 A 
HETATM   21  C   UNK A   0      44.324 -11.329   5.702  1.00  0.00    -0.024 A 
HETATM   22  C   UNK A   0      43.335 -10.986   6.608  1.00  0.00    -0.026 A 
HETATM   23  C   UNK A   0      45.604 -11.534   6.425  1.00  0.00     0.207 C 
HETATM   24  C   UNK A   0      43.916 -10.935   7.972  1.00  0.00     0.207 C 
HETATM   25  C   UNK A   0      42.030 -10.798   6.197  1.00  0.00     0.012 A 
HETATM   26  O   UNK A   0      45.344 -11.043   7.763  1.00  0.00    -0.382 OA
HETATM   27  C   UNK A   0      41.735 -10.963   4.840  1.00  0.00     0.030 A 
ENDBRANCH  15  19
ENDBRANCH   1  13
BRANCH   1  28
ATOM     28  C   TRP A   1      40.555 -15.764   2.738  1.00  0.00     0.189 C 
BRANCH  28  29
ATOM     29  O   TRP A   1      39.281 -15.196   2.437  1.00  0.00    -0.399 OA
ATOM     30  H   TRP A   1      39.225 -14.384   2.974  1.00  0.00     0.209 HD
ENDBRANCH  28  29
ENDBRANCH   1  28
TORSDOF 6
ENDMDL
MODEL 2
REMARK VINA RESULT:      -8.8      3.058      5.506
REMARK  6 active torsions:
REMARK  status: ('A' for Active; 'I' for Inactive)
REMARK    1  A    between atoms: CG_8  and  CB_9 
REMARK    2  A    between atoms: CB_9  and  CA_10 
REMARK    3  A    between atoms: CA_10  and  N_11 
REMARK    4  A    between atoms: CA_10  and  C_12 
REMARK       I    between atoms: N_11  and  C_18 
REMARK    5  A    between atoms: C_12  and  O_13 
REMARK       I    between atoms: C_18  and  N_19 
REMARK    6  A    between atoms: N_19  and  C_20 
ROOT
ATOM      1  CA  TRP A   1      41.801 -15.218   3.163  1.00  0.00     0.114 C 
ENDROOT
BRANCH   1   2
ATOM      2  CB  TRP A   1      43.307 -15.554   3.132  1.00  0.00     0.068 C 
BRANCH   2   3
ATOM      3  CG  TRP A   1      43.645 -16.752   3.975  1.00  0.00    -0.028 A 
ATOM      4  CD2 TRP A   1      43.671 -18.125   3.568  1.00  0.00    -0.002 A 
ATOM      5  CE3 TRP A   1      43.437 -18.797   2.352  1.00  0.00     0.014 A 
ATOM      6  CE2 TRP A   1      44.000 -18.887   4.690  1.00  0.00     0.042 A 
ATOM      7  CZ3 TRP A   1      43.514 -20.193   2.305  1.00  0.00     0.001 A 
ATOM      8  CH2 TRP A   1      43.834 -20.924   3.446  1.00  0.00     0.002 A 
ATOM      9  CZ2 TRP A   1      44.090 -20.284   4.662  1.00  0.00     0.030 A 
ATOM     10  NE1 TRP A   1      44.204 -18.010   5.730  1.00  0.00    -0.365 N 
ATOM     11  HE1 TRP A   1      44.472 -18.283   6.665  1.00  0.00     0.165 HD
ATOM     12  CD1 TRP A   1      43.991 -16.725   5.313  1.00  0.00     0.096 A 
ENDBRANCH   2   3
ENDBRANCH   1   2
BRANCH   1  13
ATOM     13  N   TRP A   1      41.258 -14.912   1.831  1.00  0.00    -0.336 N 
HETATM   14  C   UNK A   0      40.029 -15.301   1.406  1.00  0.00     0.321 C 
HETATM   15  N   UNK A   0      39.646 -14.930   0.155  1.00  0.00    -0.309 N 
HETATM   16  O   UNK A   0      39.288 -16.021   2.071  1.00  0.00    -0.247 OA
HETATM   17  H   UNK A   0      38.832 -15.452  -0.145  1.00  0.00     0.170 HD
ATOM     18  H   TRP A   1      41.934 -14.732   1.101  1.00  0.00     0.164 HD
BRANCH  15  19
HETATM   19  C   UNK A   0      40.050 -13.877  -0.689  1.00  0.00     0.036 A 
HETATM   20  C   UNK A   0      40.370 -12.592  -0.245  1.00  0.00     0.039 A 
HETATM   21  C   UNK A   0      40.674 -11.616  -1.183  1.00  0.00    -0.024 A 
HETATM   22  C   UNK A   0      40.666 -11.890  -2.541  1.00  0.00    -0.026 A 
HETATM   23  C   UNK A   0      40.979 -10.179  -0.973  1.00  0.00     0.207 C 
HETATM   24  C   UNK A   0      40.978 -10.649  -3.292  1.00  0.00     0.207 C 
HETATM   25  C   UNK A   0      40.349 -13.150  -3.010  1.00  0.00     0.012 A 
HETATM   26  O   UNK A   0      41.391  -9.704  -2.277  1.00  0.00    -0.382 OA
HETATM   27  C   UNK A   0      40.036 -14.142  -2.075  1.00  0.00     0.030 A 
ENDBRANCH  15  19
ENDBRANCH   1  13
BRANCH   1  28
ATOM     28  C   TRP A   1      41.507 -14.111   4.193  1.00  0.00     0.189 C 
BRANCH  28  29
ATOM     29  O   TRP A   1      40.162 -14.213   4.662  1.00  0.00    -0.399 OA
ATOM     30  H   TRP A   1      40.230 -14.304   5.630  1.00  0.00     0.209 HD
ENDBRANCH  28  29
ENDBRANCH   1  28
TORSDOF 6
ENDMDL
MODEL 3
REMARK VINA RESULT:      -8.7      2.385      3.390
REMARK  6 active torsions:
REMARK  status: ('A' for Active; 'I' for Inactive)
REMARK    1  A    between atoms: CG_8  and  CB_9 
REMARK    2  A    between atoms: CB_9  and  CA_10 
REMARK    3  A    between atoms: CA_10  and  N_11 
REMARK    4  A    between atoms: CA_10  and  C_12 
REMARK       I    between atoms: N_11  and  C_18 
REMARK    5  A    between atoms: C_12  and  O_13 
REMARK       I    between atoms: C_18  and  N_19 
REMARK    6  A    between atoms: N_19  and  C_20 
ROOT
ATOM      1  CA  TRP A   1      42.674 -15.054   5.626  1.00  0.00     0.114 C 
ENDROOT
BRANCH   1   2
ATOM      2  CB  TRP A   1      43.720 -16.185   5.526  1.00  0.00     0.068 C 
BRANCH   2   3
ATOM      3  CG  TRP A   1      43.564 -17.001   4.274  1.00  0.00    -0.028 A 
ATOM      4  CD2 TRP A   1      43.715 -18.419   4.132  1.00  0.00    -0.002 A 
ATOM      5  CE3 TRP A   1      44.012 -19.471   5.021  1.00  0.00     0.014 A 
ATOM      6  CE2 TRP A   1      43.514 -18.727   2.786  1.00  0.00     0.042 A 
ATOM      7  CZ3 TRP A   1      44.124 -20.778   4.534  1.00  0.00     0.001 A 
ATOM      8  CH2 TRP A   1      43.928 -21.051   3.182  1.00  0.00     0.002 A 
ATOM      9  CZ2 TRP A   1      43.613 -20.030   2.281  1.00  0.00     0.030 A 
ATOM     10  NE1 TRP A   1      43.215 -17.551   2.140  1.00  0.00    -0.365 N 
ATOM     11  HE1 TRP A   1      43.005 -17.476   1.155  1.00  0.00     0.165 HD
ATOM     12  CD1 TRP A   1      43.245 -16.506   3.023  1.00  0.00     0.096 A 
ENDBRANCH   2   3
ENDBRANCH   1   2
BRANCH   1  13
ATOM     13  N   TRP A   1      43.278 -13.738   5.882  1.00  0.00    -0.336 N 
HETATM   14  C   UNK A   0      43.134 -12.666   5.062  1.00  0.00     0.321 C 
HETATM   15  N   UNK A   0      43.732 -11.502   5.433  1.00  0.00    -0.309 N 
HETATM   16  O   UNK A   0      42.552 -12.723   3.982  1.00  0.00    -0.247 OA
HETATM   17  H   UNK A   0      43.761 -10.847   4.662  1.00  0.00     0.170 HD
ATOM     18  H   TRP A   1      44.100 -13.729   6.471  1.00  0.00     0.164 HD
BRANCH  15  19
HETATM   19  C   UNK A   0      44.143 -11.002   6.684  1.00  0.00     0.036 A 
HETATM   20  C   UNK A   0      43.282 -10.422   7.619  1.00  0.00     0.039 A 
HETATM   21  C   UNK A   0      43.819  -9.889   8.782  1.00  0.00    -0.024 A 
HETATM   22  C   UNK A   0      45.180  -9.920   9.032  1.00  0.00    -0.026 A 
HETATM   23  C   UNK A   0      43.133  -9.171   9.885  1.00  0.00     0.207 C 
HETATM   24  C   UNK A   0      45.458  -9.235  10.318  1.00  0.00     0.207 C 
HETATM   25  C   UNK A   0      46.056 -10.482   8.123  1.00  0.00     0.012 A 
HETATM   26  O   UNK A   0      44.153  -9.014  10.901  1.00  0.00    -0.382 OA
HETATM   27  C   UNK A   0      45.529 -11.019   6.944  1.00  0.00     0.030 A 
ENDBRANCH  15  19
ENDBRANCH   1  13
BRANCH   1  28
ATOM     28  C   TRP A   1      41.576 -15.412   6.646  1.00  0.00     0.189 C 
BRANCH  28  29
ATOM     29  O   TRP A   1      42.077 -16.338   7.610  1.00  0.00    -0.399 OA
ATOM     30  H   TRP A   1      43.047 -16.285   7.542  1.00  0.00     0.209 HD
ENDBRANCH  28  29
ENDBRANCH   1  28
TORSDOF 6
ENDMDL
MODEL 4
REMARK VINA RESULT:      -8.7      2.531      5.336
REMARK  6 active torsions:
REMARK  status: ('A' for Active; 'I' for Inactive)
REMARK    1  A    between atoms: CG_8  and  CB_9 
REMARK    2  A    between atoms: CB_9  and  CA_10 
REMARK    3  A    between atoms: CA_10  and  N_11 
REMARK    4  A    between atoms: CA_10  and  C_12 
REMARK       I    between atoms: N_11  and  C_18 
REMARK    5  A    between atoms: C_12  and  O_13 
REMARK       I    between atoms: C_18  and  N_19 
REMARK    6  A    between atoms: N_19  and  C_20 
ROOT
ATOM      1  CA  TRP A   1      43.085 -15.247   6.074  1.00  0.00     0.114 C 
ENDROOT
BRANCH   1   2
ATOM      2  CB  TRP A   1      44.211 -16.173   5.564  1.00  0.00     0.068 C 
BRANCH   2   3
ATOM      3  CG  TRP A   1      43.829 -16.903   4.308  1.00  0.00    -0.028 A 
ATOM      4  CD2 TRP A   1      43.825 -18.318   4.087  1.00  0.00    -0.002 A 
ATOM      5  CE3 TRP A   1      44.124 -19.440   4.886  1.00  0.00     0.014 A 
ATOM      6  CE2 TRP A   1      43.435 -18.533   2.765  1.00  0.00     0.042 A 
ATOM      7  CZ3 TRP A   1      44.050 -20.723   4.333  1.00  0.00     0.001 A 
ATOM      8  CH2 TRP A   1      43.669 -20.903   3.005  1.00  0.00     0.002 A 
ATOM      9  CZ2 TRP A   1      43.348 -19.810   2.196  1.00  0.00     0.030 A 
ATOM     10  NE1 TRP A   1      43.176 -17.302   2.212  1.00  0.00    -0.365 N 
ATOM     11  HE1 TRP A   1      42.857 -17.154   1.265  1.00  0.00     0.165 HD
ATOM     12  CD1 TRP A   1      43.411 -16.313   3.129  1.00  0.00     0.096 A 
ENDBRANCH   2   3
ENDBRANCH   1   2
BRANCH   1  13
ATOM     13  N   TRP A   1      42.012 -15.057   5.086  1.00  0.00    -0.336 N 
HETATM   14  C   UNK A   0      40.802 -14.516   5.377  1.00  0.00     0.321 C 
HETATM   15  N   UNK A   0      39.910 -14.380   4.360  1.00  0.00    -0.309 N 
HETATM   16  O   UNK A   0      40.461 -14.213   6.518  1.00  0.00    -0.247 OA
HETATM   17  H   UNK A   0      38.981 -14.189   4.715  1.00  0.00     0.170 HD
ATOM     18  H   TRP A   1      42.036 -15.661   4.276  1.00  0.00     0.164 HD
BRANCH  15  19
HETATM   19  C   UNK A   0      40.068 -14.287   2.964  1.00  0.00     0.036 A 
HETATM   20  C   UNK A   0      40.242 -13.086   2.270  1.00  0.00     0.039 A 
HETATM   21  C   UNK A   0      40.303 -13.117   0.885  1.00  0.00    -0.024 A 
HETATM   22  C   UNK A   0      40.195 -14.304   0.181  1.00  0.00    -0.026 A 
HETATM   23  C   UNK A   0      40.417 -11.987  -0.072  1.00  0.00     0.207 C 
HETATM   24  C   UNK A   0      40.245 -14.018  -1.274  1.00  0.00     0.207 C 
HETATM   25  C   UNK A   0      40.018 -15.506   0.838  1.00  0.00     0.012 A 
HETATM   26  O   UNK A   0      40.619 -12.623  -1.357  1.00  0.00    -0.382 OA
HETATM   27  C   UNK A   0      39.949 -15.490   2.235  1.00  0.00     0.030 A 
ENDBRANCH  15  19
ENDBRANCH   1  13
BRANCH   1  28
ATOM     28  C   TRP A   1      43.662 -13.914   6.589  1.00  0.00     0.189 C 
BRANCH  28  29
ATOM     29  O   TRP A   1      43.263 -13.690   7.941  1.00  0.00    -0.399 OA
ATOM     30  H   TRP A   1      42.579 -14.359   8.124  1.00  0.00     0.209 HD
ENDBRANCH  28  29
ENDBRANCH   1  28
TORSDOF 6
ENDMDL
MODEL 5
REMARK VINA RESULT:      -8.6      2.942      4.372
REMARK  6 active torsions:
REMARK  status: ('A' for Active; 'I' for Inactive)
REMARK    1  A    between atoms: CG_8  and  CB_9 
REMARK    2  A    between atoms: CB_9  and  CA_10 
REMARK    3  A    between atoms: CA_10  and  N_11 
REMARK    4  A    between atoms: CA_10  and  C_12 
REMARK       I    between atoms: N_11  and  C_18 
REMARK    5  A    between atoms: C_12  and  O_13 
REMARK       I    between atoms: C_18  and  N_19 
REMARK    6  A    between atoms: N_19  and  C_20 
ROOT
ATOM      1  CA  TRP A   1      41.914 -13.458   6.054  1.00  0.00     0.114 C 
ENDROOT
BRANCH   1   2
ATOM      2  CB  TRP A   1      41.935 -14.865   6.689  1.00  0.00     0.068 C 
BRANCH   2   3
ATOM      3  CG  TRP A   1      42.849 -15.810   5.960  1.00  0.00    -0.028 A 
ATOM      4  CD2 TRP A   1      42.653 -16.386   4.663  1.00  0.00    -0.002 A 
ATOM      5  CE3 TRP A   1      41.650 -16.280   3.680  1.00  0.00     0.014 A 
ATOM      6  CE2 TRP A   1      43.738 -17.227   4.412  1.00  0.00     0.042 A 
ATOM      7  CZ3 TRP A   1      41.751 -17.029   2.502  1.00  0.00     0.001 A 
ATOM      8  CH2 TRP A   1      42.842 -17.868   2.288  1.00  0.00     0.002 A 
ATOM      9  CZ2 TRP A   1      43.861 -17.979   3.237  1.00  0.00     0.030 A 
ATOM     10  NE1 TRP A   1      44.580 -17.137   5.495  1.00  0.00    -0.365 N 
ATOM     11  HE1 TRP A   1      45.458 -17.629   5.580  1.00  0.00     0.165 HD
ATOM     12  CD1 TRP A   1      44.055 -16.291   6.433  1.00  0.00     0.096 A 
ENDBRANCH   2   3
ENDBRANCH   1   2
BRANCH   1  13
ATOM     13  N   TRP A   1      42.769 -12.497   6.768  1.00  0.00    -0.336 N 
HETATM   14  C   UNK A   0      43.633 -11.651   6.154  1.00  0.00     0.321 C 
HETATM   15  N   UNK A   0      44.348 -10.799   6.937  1.00  0.00    -0.309 N 
HETATM   16  O   UNK A   0      43.843 -11.670   4.944  1.00  0.00    -0.247 OA
HETATM   17  H   UNK A   0      45.113 -10.384   6.419  1.00  0.00     0.170 HD
ATOM     18  H   TRP A   1      42.985 -12.718   7.730  1.00  0.00     0.164 HD
BRANCH  15  19
HETATM   19  C   UNK A   0      44.123 -10.281   8.227  1.00  0.00     0.036 A 
HETATM   20  C   UNK A   0      42.939  -9.657   8.629  1.00  0.00     0.039 A 
HETATM   21  C   UNK A   0      42.869  -9.112   9.903  1.00  0.00    -0.024 A 
HETATM   22  C   UNK A   0      43.941  -9.172  10.777  1.00  0.00    -0.026 A 
HETATM   23  C   UNK A   0      41.762  -8.352  10.535  1.00  0.00     0.207 C 
HETATM   24  C   UNK A   0      43.590  -8.465  12.033  1.00  0.00     0.207 C 
HETATM   25  C   UNK A   0      45.126  -9.778  10.406  1.00  0.00     0.012 A 
HETATM   26  O   UNK A   0      42.173  -8.198  11.915  1.00  0.00    -0.382 OA
HETATM   27  C   UNK A   0      45.213 -10.328   9.123  1.00  0.00     0.030 A 
ENDBRANCH  15  19
ENDBRANCH   1  13
BRANCH   1  28
ATOM     28  C   TRP A   1      40.467 -12.955   5.885  1.00  0.00     0.189 C 
BRANCH  28  29
ATOM     29  O   TRP A   1      39.540 -13.992   6.205  1.00  0.00    -0.399 OA
ATOM     30  H   TRP A   1      38.850 -13.566   6.745  1.00  0.00     0.209 HD
ENDBRANCH  28  29
ENDBRANCH   1  28
TORSDOF 6
ENDMDL
MODEL 6
REMARK VINA RESULT:      -8.5      2.498      5.790
REMARK  6 active torsions:
REMARK  status: ('A' for Active; 'I' for Inactive)
REMARK    1  A    between atoms: CG_8  and  CB_9 
REMARK    2  A    between atoms: CB_9  and  CA_10 
REMARK    3  A    between atoms: CA_10  and  N_11 
REMARK    4  A    between atoms: CA_10  and  C_12 
REMARK       I    between atoms: N_11  and  C_18 
REMARK    5  A    between atoms: C_12  and  O_13 
REMARK       I    between atoms: C_18  and  N_19 
REMARK    6  A    between atoms: N_19  and  C_20 
ROOT
ATOM      1  CA  TRP A   1      42.074 -12.856   6.023  1.00  0.00     0.114 C 
ENDROOT
BRANCH   1   2
ATOM      2  CB  TRP A   1      43.406 -13.633   5.955  1.00  0.00     0.068 C 
BRANCH   2   3
ATOM      3  CG  TRP A   1      43.221 -15.047   5.480  1.00  0.00    -0.028 A 
ATOM      4  CD2 TRP A   1      43.227 -15.521   4.129  1.00  0.00    -0.002 A 
ATOM      5  CE3 TRP A   1      43.412 -14.912   2.872  1.00  0.00     0.014 A 
ATOM      6  CE2 TRP A   1      42.981 -16.894   4.167  1.00  0.00     0.042 A 
ATOM      7  CZ3 TRP A   1      43.319 -15.682   1.707  1.00  0.00     0.001 A 
ATOM      8  CH2 TRP A   1      43.060 -17.048   1.780  1.00  0.00     0.002 A 
ATOM      9  CZ2 TRP A   1      42.891 -17.684   3.013  1.00  0.00     0.030 A 
ATOM     10  NE1 TRP A   1      42.866 -17.249   5.490  1.00  0.00    -0.365 N 
ATOM     11  HE1 TRP A   1      42.702 -18.190   5.819  1.00  0.00     0.165 HD
ATOM     12  CD1 TRP A   1      43.006 -16.147   6.289  1.00  0.00     0.096 A 
ENDBRANCH   2   3
ENDBRANCH   1   2
BRANCH   1  13
ATOM     13  N   TRP A   1      41.157 -13.197   4.925  1.00  0.00    -0.336 N 
HETATM   14  C   UNK A   0      39.815 -13.000   4.970  1.00  0.00     0.321 C 
HETATM   15  N   UNK A   0      39.089 -13.342   3.872  1.00  0.00    -0.309 N 
HETATM   16  O   UNK A   0      39.231 -12.595   5.972  1.00  0.00    -0.247 OA
HETATM   17  H   UNK A   0      38.099 -13.374   4.086  1.00  0.00     0.170 HD
ATOM     18  H   TRP A   1      41.471 -13.913   4.285  1.00  0.00     0.164 HD
BRANCH  15  19
HETATM   19  C   UNK A   0      39.431 -13.483   2.513  1.00  0.00     0.036 A 
HETATM   20  C   UNK A   0      39.410 -12.439   1.585  1.00  0.00     0.039 A 
HETATM   21  C   UNK A   0      39.687 -12.721   0.255  1.00  0.00    -0.024 A 
HETATM   22  C   UNK A   0      39.982 -14.006  -0.167  1.00  0.00    -0.026 A 
HETATM   23  C   UNK A   0      39.665 -11.811  -0.918  1.00  0.00     0.207 C 
HETATM   24  C   UNK A   0      40.181 -14.006  -1.637  1.00  0.00     0.207 C 
HETATM   25  C   UNK A   0      40.005 -15.059   0.727  1.00  0.00     0.012 A 
HETATM   26  O   UNK A   0      40.211 -12.605  -1.999  1.00  0.00    -0.382 OA
HETATM   27  C   UNK A   0      39.723 -14.791   2.070  1.00  0.00     0.030 A 
ENDBRANCH  15  19
ENDBRANCH   1  13
BRANCH   1  28
ATOM     28  C   TRP A   1      42.329 -11.340   6.136  1.00  0.00     0.189 C 
BRANCH  28  29
ATOM     29  O   TRP A   1      41.462 -10.762   7.112  1.00  0.00    -0.399 OA
ATOM     30  H   TRP A   1      40.694 -11.360   7.165  1.00  0.00     0.209 HD
ENDBRANCH  28  29
ENDBRANCH   1  28
TORSDOF 6
ENDMDL
MODEL 7
REMARK VINA RESULT:      -8.5      3.098      4.971
REMARK  6 active torsions:
REMARK  status: ('A' for Active; 'I' for Inactive)
REMARK    1  A    between atoms: CG_8  and  CB_9 
REMARK    2  A    between atoms: CB_9  and  CA_10 
REMARK    3  A    between atoms: CA_10  and  N_11 
REMARK    4  A    between atoms: CA_10  and  C_12 
REMARK       I    between atoms: N_11  and  C_18 
REMARK    5  A    between atoms: C_12  and  O_13 
REMARK       I    between atoms: C_18  and  N_19 
REMARK    6  A    between atoms: N_19  and  C_20 
ROOT
ATOM      1  CA  TRP A   1      43.744 -12.512   5.622  1.00  0.00     0.114 C 
ENDROOT
BRANCH   1   2
ATOM      2  CB  TRP A   1      42.711 -13.591   6.014  1.00  0.00     0.068 C 
BRANCH   2   3
ATOM      3  CG  TRP A   1      43.221 -14.985   5.779  1.00  0.00    -0.028 A 
ATOM      4  CD2 TRP A   1      43.201 -15.727   4.555  1.00  0.00    -0.002 A 
ATOM      5  CE3 TRP A   1      42.763 -15.452   3.244  1.00  0.00     0.014 A 
ATOM      6  CE2 TRP A   1      43.745 -16.985   4.819  1.00  0.00     0.042 A 
ATOM      7  CZ3 TRP A   1      42.859 -16.442   2.259  1.00  0.00     0.001 A 
ATOM      8  CH2 TRP A   1      43.396 -17.691   2.559  1.00  0.00     0.002 A 
ATOM      9  CZ2 TRP A   1      43.856 -17.985   3.846  1.00  0.00     0.030 A 
ATOM     10  NE1 TRP A   1      44.117 -16.996   6.143  1.00  0.00    -0.365 N 
ATOM     11  HE1 TRP A   1      44.557 -17.777   6.608  1.00  0.00     0.165 HD
ATOM     12  CD1 TRP A   1      43.805 -15.801   6.731  1.00  0.00     0.096 A 
ENDBRANCH   2   3
ENDBRANCH   1   2
BRANCH   1  13
ATOM     13  N   TRP A   1      44.227 -11.739   6.776  1.00  0.00    -0.336 N 
HETATM   14  C   UNK A   0      45.491 -11.256   6.889  1.00  0.00     0.321 C 
HETATM   15  N   UNK A   0      45.796 -10.539   8.003  1.00  0.00    -0.309 N 
HETATM   16  O   UNK A   0      46.374 -11.496   6.069  1.00  0.00    -0.247 OA
HETATM   17  H   UNK A   0      46.798 -10.426   8.099  1.00  0.00     0.170 HD
ATOM     18  H   TRP A   1      43.736 -11.880   7.647  1.00  0.00     0.164 HD
BRANCH  15  19
HETATM   19  C   UNK A   0      45.003  -9.810   8.910  1.00  0.00     0.036 A 
HETATM   20  C   UNK A   0      44.536 -10.313  10.127  1.00  0.00     0.039 A 
HETATM   21  C   UNK A   0      43.693  -9.526  10.897  1.00  0.00    -0.024 A 
HETATM   22  C   UNK A   0      43.307  -8.261  10.486  1.00  0.00    -0.026 A 
HETATM   23  C   UNK A   0      43.019  -9.853  12.178  1.00  0.00     0.207 C 
HETATM   24  C   UNK A   0      42.370  -7.687  11.483  1.00  0.00     0.207 C 
HETATM   25  C   UNK A   0      43.748  -7.739   9.286  1.00  0.00     0.012 A 
HETATM   26  O   UNK A   0      42.423  -8.603  12.601  1.00  0.00    -0.382 OA
HETATM   27  C   UNK A   0      44.596  -8.523   8.497  1.00  0.00     0.030 A 
ENDBRANCH  15  19
ENDBRANCH   1  13
BRANCH   1  28
ATOM     28  C   TRP A   1      43.199 -11.616   4.493  1.00  0.00     0.189 C 
BRANCH  28  29
ATOM     29  O   TRP A   1      44.245 -11.273   3.583  1.00  0.00    -0.399 OA
ATOM     30  H   TRP A   1      43.929 -11.554   2.705  1.00  0.00     0.209 HD
ENDBRANCH  28  29
ENDBRANCH   1  28
TORSDOF 6
ENDMDL
MODEL 8
REMARK VINA RESULT:      -8.4      2.678      5.439
REMARK  6 active torsions:
REMARK  status: ('A' for Active; 'I' for Inactive)
REMARK    1  A    between atoms: CG_8  and  CB_9 
REMARK    2  A    between atoms: CB_9  and  CA_10 
REMARK    3  A    between atoms: CA_10  and  N_11 
REMARK    4  A    between atoms: CA_10  and  C_12 
REMARK       I    between atoms: N_11  and  C_18 
REMARK    5  A    between atoms: C_12  and  O_13 
REMARK       I    between atoms: C_18  and  N_19 
REMARK    6  A    between atoms: N_19  and  C_20 
ROOT
ATOM      1  CA  TRP A   1      42.143 -14.680   4.294  1.00  0.00     0.114 C 
ENDROOT
BRANCH   1   2
ATOM      2  CB  TRP A   1      43.326 -15.509   3.749  1.00  0.00     0.068 C 
BRANCH   2   3
ATOM      3  CG  TRP A   1      43.521 -16.795   4.501  1.00  0.00    -0.028 A 
ATOM      4  CD2 TRP A   1      43.635 -18.115   3.958  1.00  0.00    -0.002 A 
ATOM      5  CE3 TRP A   1      43.631 -18.647   2.654  1.00  0.00     0.014 A 
ATOM      6  CE2 TRP A   1      43.768 -18.998   5.031  1.00  0.00     0.042 A 
ATOM      7  CZ3 TRP A   1      43.731 -20.031   2.469  1.00  0.00     0.001 A 
ATOM      8  CH2 TRP A   1      43.850 -20.885   3.562  1.00  0.00     0.002 A 
ATOM      9  CZ2 TRP A   1      43.877 -20.384   4.867  1.00  0.00     0.030 A 
ATOM     10  NE1 TRP A   1      43.772 -18.242   6.180  1.00  0.00    -0.365 N 
ATOM     11  HE1 TRP A   1      43.873 -18.618   7.112  1.00  0.00     0.165 HD
ATOM     12  CD1 TRP A   1      43.622 -16.917   5.875  1.00  0.00     0.096 A 
ENDBRANCH   2   3
ENDBRANCH   1   2
BRANCH   1  13
ATOM     13  N   TRP A   1      41.269 -14.164   3.230  1.00  0.00    -0.336 N 
HETATM   14  C   UNK A   0      40.131 -13.461   3.459  1.00  0.00     0.321 C 
HETATM   15  N   UNK A   0      39.430 -13.025   2.378  1.00  0.00    -0.309 N 
HETATM   16  O   UNK A   0      39.680 -13.265   4.585  1.00  0.00    -0.247 OA
HETATM   17  H   UNK A   0      38.501 -12.722   2.646  1.00  0.00     0.170 HD
ATOM     18  H   TRP A   1      41.314 -14.643   2.341  1.00  0.00     0.164 HD
BRANCH  15  19
HETATM   19  C   UNK A   0      39.802 -12.766   1.045  1.00  0.00     0.036 A 
HETATM   20  C   UNK A   0      39.635 -13.670  -0.007  1.00  0.00     0.039 A 
HETATM   21  C   UNK A   0      40.118 -13.332  -1.263  1.00  0.00    -0.024 A 
HETATM   22  C   UNK A   0      40.759 -12.126  -1.492  1.00  0.00    -0.026 A 
HETATM   23  C   UNK A   0      40.122 -14.135  -2.511  1.00  0.00     0.207 C 
HETATM   24  C   UNK A   0      41.206 -12.070  -2.905  1.00  0.00     0.207 C 
HETATM   25  C   UNK A   0      40.944 -11.215  -0.470  1.00  0.00     0.012 A 
HETATM   26  O   UNK A   0      40.580 -13.214  -3.530  1.00  0.00    -0.382 OA
HETATM   27  C   UNK A   0      40.465 -11.545   0.802  1.00  0.00     0.030 A 
ENDBRANCH  15  19
ENDBRANCH   1  13
BRANCH   1  28
ATOM     28  C   TRP A   1      42.640 -13.574   5.244  1.00  0.00     0.189 C 
BRANCH  28  29
ATOM     29  O   TRP A   1      41.986 -13.675   6.509  1.00  0.00    -0.399 OA
ATOM     30  H   TRP A   1      42.348 -12.948   7.048  1.00  0.00     0.209 HD
ENDBRANCH  28  29
ENDBRANCH   1  28
TORSDOF 6
ENDMDL
MODEL 9
REMARK VINA RESULT:      -8.1      1.019      2.121
REMARK  6 active torsions:
REMARK  status: ('A' for Active; 'I' for Inactive)
REMARK    1  A    between atoms: CG_8  and  CB_9 
REMARK    2  A    between atoms: CB_9  and  CA_10 
REMARK    3  A    between atoms: CA_10  and  N_11 
REMARK    4  A    between atoms: CA_10  and  C_12 
REMARK       I    between atoms: N_11  and  C_18 
REMARK    5  A    between atoms: C_12  and  O_13 
REMARK       I    between atoms: C_18  and  N_19 
REMARK    6  A    between atoms: N_19  and  C_20 
ROOT
ATOM      1  CA  TRP A   1      41.989 -15.168   1.482  1.00  0.00     0.114 C 
ENDROOT
BRANCH   1   2
ATOM      2  CB  TRP A   1      43.205 -16.118   1.420  1.00  0.00     0.068 C 
BRANCH   2   3
ATOM      3  CG  TRP A   1      43.337 -16.962   2.656  1.00  0.00    -0.028 A 
ATOM      4  CD2 TRP A   1      43.422 -16.513   4.014  1.00  0.00    -0.002 A 
ATOM      5  CE3 TRP A   1      43.393 -15.250   4.637  1.00  0.00     0.014 A 
ATOM      6  CE2 TRP A   1      43.572 -17.643   4.818  1.00  0.00     0.042 A 
ATOM      7  CZ3 TRP A   1      43.540 -15.159   6.026  1.00  0.00     0.001 A 
ATOM      8  CH2 TRP A   1      43.700 -16.306   6.799  1.00  0.00     0.002 A 
ATOM      9  CZ2 TRP A   1      43.713 -17.573   6.210  1.00  0.00     0.030 A 
ATOM     10  NE1 TRP A   1      43.542 -18.739   3.988  1.00  0.00    -0.365 N 
ATOM     11  HE1 TRP A   1      43.612 -19.697   4.301  1.00  0.00     0.165 HD
ATOM     12  CD1 TRP A   1      43.404 -18.342   2.686  1.00  0.00     0.096 A 
ENDBRANCH   2   3
ENDBRANCH   1   2
BRANCH   1  13
ATOM     13  N   TRP A   1      42.287 -13.904   2.173  1.00  0.00    -0.336 N 
HETATM   14  C   UNK A   0      41.734 -12.711   1.841  1.00  0.00     0.321 C 
HETATM   15  N   UNK A   0      42.084 -11.624   2.580  1.00  0.00    -0.309 N 
HETATM   16  O   UNK A   0      40.994 -12.562   0.871  1.00  0.00    -0.247 OA
HETATM   17  H   UNK A   0      41.806 -10.766   2.118  1.00  0.00     0.170 HD
ATOM     18  H   TRP A   1      43.175 -13.854   2.653  1.00  0.00     0.164 HD
BRANCH  15  19
HETATM   19  C   UNK A   0      42.583 -11.487   3.889  1.00  0.00     0.036 A 
HETATM   20  C   UNK A   0      43.941 -11.469   4.216  1.00  0.00     0.039 A 
HETATM   21  C   UNK A   0      44.307 -11.412   5.552  1.00  0.00    -0.024 A 
HETATM   22  C   UNK A   0      43.360 -11.374   6.562  1.00  0.00    -0.026 A 
HETATM   23  C   UNK A   0      45.664 -11.446   6.153  1.00  0.00     0.207 C 
HETATM   24  C   UNK A   0      44.046 -11.369   7.878  1.00  0.00     0.207 C 
HETATM   25  C   UNK A   0      42.010 -11.396   6.271  1.00  0.00     0.012 A 
HETATM   26  O   UNK A   0      45.444 -11.173   7.558  1.00  0.00    -0.382 OA
HETATM   27  C   UNK A   0      41.626 -11.458   4.927  1.00  0.00     0.030 A 
ENDBRANCH  15  19
ENDBRANCH   1  13
BRANCH   1  28
ATOM     28  C   TRP A   1      40.759 -15.889   2.066  1.00  0.00     0.189 C 
BRANCH  28  29
ATOM     29  O   TRP A   1      39.557 -15.270   1.609  1.00  0.00    -0.399 OA
ATOM     30  H   TRP A   1      39.412 -14.512   2.203  1.00  0.00     0.209 HD
ENDBRANCH  28  29
ENDBRANCH   1  28
TORSDOF 6
ENDMDL
MODEL 10
REMARK VINA RESULT:      -8.1      3.364      7.557
REMARK  6 active torsions:
REMARK  status: ('A' for Active; 'I' for Inactive)
REMARK    1  A    between atoms: CG_8  and  CB_9 
REMARK    2  A    between atoms: CB_9  and  CA_10 
REMARK    3  A    between atoms: CA_10  and  N_11 
REMARK    4  A    between atoms: CA_10  and  C_12 
REMARK       I    between atoms: N_11  and  C_18 
REMARK    5  A    between atoms: C_12  and  O_13 
REMARK       I    between atoms: C_18  and  N_19 
REMARK    6  A    between atoms: N_19  and  C_20 
ROOT
ATOM      1  CA  TRP A   1      40.923 -13.221   2.523  1.00  0.00     0.114 C 
ENDROOT
BRANCH   1   2
ATOM      2  CB  TRP A   1      41.247 -12.705   1.104  1.00  0.00     0.068 C 
BRANCH   2   3
ATOM      3  CG  TRP A   1      40.011 -12.359   0.323  1.00  0.00    -0.028 A 
ATOM      4  CD2 TRP A   1      39.410 -13.111  -0.738  1.00  0.00    -0.002 A 
ATOM      5  CE3 TRP A   1      39.706 -14.337  -1.366  1.00  0.00     0.014 A 
ATOM      6  CE2 TRP A   1      38.304 -12.388  -1.187  1.00  0.00     0.042 A 
ATOM      7  CZ3 TRP A   1      38.910 -14.781  -2.428  1.00  0.00     0.001 A 
ATOM      8  CH2 TRP A   1      37.821 -14.030  -2.860  1.00  0.00     0.002 A 
ATOM      9  CZ2 TRP A   1      37.492 -12.819  -2.243  1.00  0.00     0.030 A 
ATOM     10  NE1 TRP A   1      38.213 -11.259  -0.407  1.00  0.00    -0.365 N 
ATOM     11  HE1 TRP A   1      37.492 -10.557  -0.498  1.00  0.00     0.165 HD
ATOM     12  CD1 TRP A   1      39.234 -11.229   0.502  1.00  0.00     0.096 A 
ENDBRANCH   2   3
ENDBRANCH   1   2
BRANCH   1  13
ATOM     13  N   TRP A   1      41.829 -14.294   2.960  1.00  0.00    -0.336 N 
HETATM   14  C   UNK A   0      42.401 -14.347   4.189  1.00  0.00     0.321 C 
HETATM   15  N   UNK A   0      43.203 -15.410   4.468  1.00  0.00    -0.309 N 
HETATM   16  O   UNK A   0      42.280 -13.454   5.024  1.00  0.00    -0.247 OA
HETATM   17  H   UNK A   0      43.752 -15.242   5.302  1.00  0.00     0.170 HD
ATOM     18  H   TRP A   1      42.317 -14.794   2.230  1.00  0.00     0.164 HD
BRANCH  15  19
HETATM   19  C   UNK A   0      43.278 -16.710   3.931  1.00  0.00     0.036 A 
HETATM   20  C   UNK A   0      43.652 -17.841   4.661  1.00  0.00     0.039 A 
HETATM   21  C   UNK A   0      43.769 -19.055   3.999  1.00  0.00    -0.024 A 
HETATM   22  C   UNK A   0      43.525 -19.166   2.641  1.00  0.00    -0.026 A 
HETATM   23  C   UNK A   0      44.208 -20.370   4.529  1.00  0.00     0.207 C 
HETATM   24  C   UNK A   0      43.778 -20.563   2.210  1.00  0.00     0.207 C 
HETATM   25  C   UNK A   0      43.158 -18.065   1.893  1.00  0.00     0.012 A 
HETATM   26  O   UNK A   0      43.959 -21.297   3.444  1.00  0.00    -0.382 OA
HETATM   27  C   UNK A   0      43.040 -16.833   2.545  1.00  0.00     0.030 A 
ENDBRANCH  15  19
ENDBRANCH   1  13
BRANCH   1  28
ATOM     28  C   TRP A   1      39.437 -13.614   2.637  1.00  0.00     0.189 C 
BRANCH  28  29
ATOM     29  O   TRP A   1      39.290 -15.031   2.540  1.00  0.00    -0.399 OA
ATOM     30  H   TRP A   1      39.758 -15.394   3.314  1.00  0.00     0.209 HD
ENDBRANCH  28  29
ENDBRANCH   1  28
TORSDOF 6
ENDMDL
