MODEL 1
REMARK VINA RESULT:      -8.6      0.000      0.000
REMARK  2 active torsions:
REMARK  status: ('A' for Active; 'I' for Inactive)
REMARK    1  A    between atoms: C_5  and  C_6 
REMARK    2  A    between atoms: C_17  and  O_18 
ROOT
HETATM    1  C   UNL     1      40.919 -15.419   4.154  1.00  0.00     0.200 C 
HETATM    2  N   UNL     1      40.002 -14.626   4.923  1.00  0.00    -0.336 N 
HETATM    3  C   UNL     1      40.314 -13.392   5.429  1.00  0.00     0.255 C 
HETATM    4  O   UNL     1      39.647 -12.874   6.320  1.00  0.00    -0.268 OA
HETATM    5  C   UNL     1      41.487 -12.719   4.850  1.00  0.00     0.053 A 
HETATM    6  C   UNL     1      42.127 -13.342   3.777  1.00  0.00     0.026 A 
HETATM    7  N   UNL     1      41.635 -14.538   3.231  1.00  0.00    -0.267 NA
HETATM    8  C   UNL     1      41.932 -11.491   5.351  1.00  0.00     0.019 A 
HETATM    9  C   UNL     1      43.017 -10.856   4.751  1.00  0.00     0.001 A 
HETATM   10  C   UNL     1      43.637 -11.441   3.648  1.00  0.00     0.002 A 
HETATM   11  C   UNL     1      43.184 -12.669   3.154  1.00  0.00     0.024 A 
HETATM   12  H   UNL     1      39.340 -15.124   5.498  1.00  0.00     0.164 HD
HETATM   13  H   UNL     1      42.368 -15.018   2.724  1.00  0.00     0.130 HD
ENDROOT
BRANCH   1  14
HETATM   14  C   UNL     1      41.874 -16.358   4.903  1.00  0.00     0.023 A 
HETATM   15  C   UNL     1      42.617 -17.350   4.165  1.00  0.00    -0.014 A 
HETATM   16  C   UNL     1      43.612 -18.114   4.834  1.00  0.00    -0.025 A 
HETATM   17  C   UNL     1      42.428 -17.644   2.787  1.00  0.00     0.013 A 
HETATM   18  C   UNL     1      44.395 -19.047   4.134  1.00  0.00     0.012 A 
HETATM   19  C   UNL     1      43.817 -17.952   6.206  1.00  0.00     0.015 A 
HETATM   20  C   UNL     1      44.202 -19.273   2.775  1.00  0.00     0.001 A 
HETATM   21  C   UNL     1      43.210 -18.579   2.103  1.00  0.00     0.001 A 
HETATM   22  C   UNL     1      43.038 -17.066   6.939  1.00  0.00     0.038 A 
HETATM   23  C   UNL     1      42.077 -16.289   6.296  1.00  0.00     0.076 A 
BRANCH  23  24
HETATM   24  O   UNL     1      41.298 -15.483   7.074  1.00  0.00    -0.360 OA
HETATM   25  H   UNL     1      41.212 -14.602   6.673  1.00  0.00     0.217 HD
ENDBRANCH  23  24
ENDBRANCH   1  14
TORSDOF 2
ENDMDL
MODEL 2
REMARK VINA RESULT:      -8.5      2.257      3.398
REMARK  2 active torsions:
REMARK  status: ('A' for Active; 'I' for Inactive)
REMARK    1  A    between atoms: C_5  and  C_6 
REMARK    2  A    between atoms: C_17  and  O_18 
ROOT
HETATM    1  C   UNL     1      43.322 -16.322   6.128  1.00  0.00     0.200 C 
HETATM    2  N   UNL     1      44.174 -15.247   6.552  1.00  0.00    -0.336 N 
HETATM    3  C   UNL     1      43.826 -13.926   6.453  1.00  0.00     0.255 C 
HETATM    4  O   UNL     1      44.664 -13.032   6.531  1.00  0.00    -0.268 OA
HETATM    5  C   UNL     1      42.398 -13.633   6.253  1.00  0.00     0.053 A 
HETATM    6  C   UNL     1      41.508 -14.708   6.273  1.00  0.00     0.026 A 
HETATM    7  N   UNL     1      41.950 -16.014   6.534  1.00  0.00    -0.267 NA
HETATM    8  C   UNL     1      41.952 -12.321   6.064  1.00  0.00     0.019 A 
HETATM    9  C   UNL     1      40.589 -12.071   5.923  1.00  0.00     0.001 A 
HETATM   10  C   UNL     1      39.682 -13.128   5.989  1.00  0.00     0.002 A 
HETATM   11  C   UNL     1      40.139 -14.436   6.180  1.00  0.00     0.024 A 
HETATM   12  H   UNL     1      45.168 -15.393   6.466  1.00  0.00     0.164 HD
HETATM   13  H   UNL     1      41.280 -16.687   6.182  1.00  0.00     0.130 HD
ENDROOT
BRANCH   1  14
HETATM   14  C   UNL     1      43.396 -16.776   4.665  1.00  0.00     0.023 A 
HETATM   15  C   UNL     1      43.611 -18.170   4.365  1.00  0.00    -0.014 A 
HETATM   16  C   UNL     1      43.527 -18.612   3.017  1.00  0.00    -0.025 A 
HETATM   17  C   UNL     1      43.917 -19.169   5.330  1.00  0.00     0.013 A 
HETATM   18  C   UNL     1      43.673 -19.972   2.694  1.00  0.00     0.012 A 
HETATM   19  C   UNL     1      43.308 -17.692   1.988  1.00  0.00     0.015 A 
HETATM   20  C   UNL     1      43.931 -20.922   3.677  1.00  0.00     0.001 A 
HETATM   21  C   UNL     1      44.066 -20.518   4.996  1.00  0.00     0.001 A 
HETATM   22  C   UNL     1      43.195 -16.336   2.264  1.00  0.00     0.038 A 
HETATM   23  C   UNL     1      43.248 -15.887   3.581  1.00  0.00     0.076 A 
BRANCH  23  24
HETATM   24  O   UNL     1      43.196 -14.540   3.788  1.00  0.00    -0.360 OA
HETATM   25  H   UNL     1      42.349 -14.289   4.191  1.00  0.00     0.217 HD
ENDBRANCH  23  24
ENDBRANCH   1  14
TORSDOF 2
ENDMDL
MODEL 3
REMARK VINA RESULT:      -8.3      2.155      5.706
REMARK  2 active torsions:
REMARK  status: ('A' for Active; 'I' for Inactive)
REMARK    1  A    between atoms: C_5  and  C_6 
REMARK    2  A    between atoms: C_17  and  O_18 
ROOT
HETATM    1  C   UNL     1      40.688 -14.437   4.356  1.00  0.00     0.200 C 
HETATM    2  N   UNL     1      39.946 -15.006   3.267  1.00  0.00    -0.336 N 
HETATM    3  C   UNL     1      40.451 -15.967   2.433  1.00  0.00     0.255 C 
HETATM    4  O   UNL     1      39.933 -16.216   1.348  1.00  0.00    -0.268 OA
HETATM    5  C   UNL     1      41.644 -16.689   2.903  1.00  0.00     0.053 A 
HETATM    6  C   UNL     1      42.106 -16.405   4.189  1.00  0.00     0.026 A 
HETATM    7  N   UNL     1      41.425 -15.508   5.027  1.00  0.00    -0.267 NA
HETATM    8  C   UNL     1      42.279 -17.635   2.093  1.00  0.00     0.019 A 
HETATM    9  C   UNL     1      43.379 -18.335   2.585  1.00  0.00     0.001 A 
HETATM   10  C   UNL     1      43.824 -18.099   3.884  1.00  0.00     0.002 A 
HETATM   11  C   UNL     1      43.180 -17.151   4.687  1.00  0.00     0.024 A 
HETATM   12  H   UNL     1      39.280 -14.405   2.806  1.00  0.00     0.164 HD
HETATM   13  H   UNL     1      42.046 -15.162   5.748  1.00  0.00     0.130 HD
ENDROOT
BRANCH   1  14
HETATM   14  C   UNL     1      41.581 -13.222   4.073  1.00  0.00     0.023 A 
HETATM   15  C   UNL     1      42.597 -12.850   5.027  1.00  0.00    -0.014 A 
HETATM   16  C   UNL     1      43.520 -11.822   4.694  1.00  0.00    -0.025 A 
HETATM   17  C   UNL     1      42.752 -13.435   6.313  1.00  0.00     0.013 A 
HETATM   18  C   UNL     1      44.558 -11.474   5.575  1.00  0.00     0.012 A 
HETATM   19  C   UNL     1      43.399 -11.134   3.484  1.00  0.00     0.015 A 
HETATM   20  C   UNL     1      44.697 -12.102   6.809  1.00  0.00     0.001 A 
HETATM   21  C   UNL     1      43.785 -13.075   7.183  1.00  0.00     0.001 A 
HETATM   22  C   UNL     1      42.365 -11.425   2.605  1.00  0.00     0.038 A 
HETATM   23  C   UNL     1      41.466 -12.447   2.901  1.00  0.00     0.076 A 
BRANCH  23  24
HETATM   24  O   UNL     1      40.433 -12.645   2.032  1.00  0.00    -0.360 OA
HETATM   25  H   UNL     1      39.712 -13.130   2.466  1.00  0.00     0.217 HD
ENDBRANCH  23  24
ENDBRANCH   1  14
TORSDOF 2
ENDMDL
MODEL 4
REMARK VINA RESULT:      -8.3      2.196      3.130
REMARK  2 active torsions:
REMARK  status: ('A' for Active; 'I' for Inactive)
REMARK    1  A    between atoms: C_5  and  C_6 
REMARK    2  A    between atoms: C_17  and  O_18 
ROOT
HETATM    1  C   UNL     1      41.816 -12.188   4.454  1.00  0.00     0.200 C 
HETATM    2  N   UNL     1      41.087 -11.217   5.220  1.00  0.00    -0.336 N 
HETATM    3  C   UNL     1      41.535 -10.703   6.407  1.00  0.00     0.255 C 
HETATM    4  O   UNL     1      40.781 -10.122   7.184  1.00  0.00    -0.268 OA
HETATM    5  C   UNL     1      42.965 -10.879   6.705  1.00  0.00     0.053 A 
HETATM    6  C   UNL     1      43.763 -11.467   5.721  1.00  0.00     0.026 A 
HETATM    7  N   UNL     1      43.233 -11.823   4.472  1.00  0.00    -0.267 NA
HETATM    8  C   UNL     1      43.504 -10.457   7.925  1.00  0.00     0.019 A 
HETATM    9  C   UNL     1      44.871 -10.596   8.157  1.00  0.00     0.001 A 
HETATM   10  C   UNL     1      45.690 -11.137   7.167  1.00  0.00     0.002 A 
HETATM   11  C   UNL     1      45.141 -11.554   5.950  1.00  0.00     0.024 A 
HETATM   12  H   UNL     1      40.081 -11.263   5.174  1.00  0.00     0.164 HD
HETATM   13  H   UNL     1      43.820 -12.520   4.029  1.00  0.00     0.130 HD
ENDROOT
BRANCH   1  14
HETATM   14  C   UNL     1      41.605 -13.673   4.772  1.00  0.00     0.023 A 
HETATM   15  C   UNL     1      42.159 -14.673   3.891  1.00  0.00    -0.014 A 
HETATM   16  C   UNL     1      42.095 -16.042   4.266  1.00  0.00    -0.025 A 
HETATM   17  C   UNL     1      42.774 -14.397   2.639  1.00  0.00     0.013 A 
HETATM   18  C   UNL     1      42.676 -17.037   3.461  1.00  0.00     0.012 A 
HETATM   19  C   UNL     1      41.441 -16.419   5.441  1.00  0.00     0.015 A 
HETATM   20  C   UNL     1      43.304 -16.717   2.262  1.00  0.00     0.001 A 
HETATM   21  C   UNL     1      43.343 -15.397   1.844  1.00  0.00     0.001 A 
HETATM   22  C   UNL     1      40.823 -15.468   6.244  1.00  0.00     0.038 A 
HETATM   23  C   UNL     1      40.899 -14.119   5.907  1.00  0.00     0.076 A 
BRANCH  23  24
HETATM   24  O   UNL     1      40.220 -13.236   6.696  1.00  0.00    -0.360 OA
HETATM   25  H   UNL     1      40.824 -12.563   7.051  1.00  0.00     0.217 HD
ENDBRANCH  23  24
ENDBRANCH   1  14
TORSDOF 2
ENDMDL
MODEL 5
REMARK VINA RESULT:      -8.1      1.922      2.922
REMARK  2 active torsions:
REMARK  status: ('A' for Active; 'I' for Inactive)
REMARK    1  A    between atoms: C_5  and  C_6 
REMARK    2  A    between atoms: C_17  and  O_18 
ROOT
HETATM    1  C   UNL     1      41.458 -15.379   5.179  1.00  0.00     0.200 C 
HETATM    2  N   UNL     1      41.803 -15.529   6.565  1.00  0.00    -0.336 N 
HETATM    3  C   UNL     1      42.761 -14.775   7.189  1.00  0.00     0.255 C 
HETATM    4  O   UNL     1      43.249 -15.114   8.263  1.00  0.00    -0.268 OA
HETATM    5  C   UNL     1      43.175 -13.539   6.508  1.00  0.00     0.053 A 
HETATM    6  C   UNL     1      42.498 -13.186   5.339  1.00  0.00     0.026 A 
HETATM    7  N   UNL     1      41.422 -13.951   4.862  1.00  0.00    -0.267 NA
HETATM    8  C   UNL     1      44.200 -12.740   7.025  1.00  0.00     0.019 A 
HETATM    9  C   UNL     1      44.537 -11.551   6.382  1.00  0.00     0.001 A 
HETATM   10  C   UNL     1      43.838 -11.160   5.241  1.00  0.00     0.002 A 
HETATM   11  C   UNL     1      42.814 -11.965   4.733  1.00  0.00     0.024 A 
HETATM   12  H   UNL     1      41.724 -16.455   6.957  1.00  0.00     0.164 HD
HETATM   13  H   UNL     1      41.279 -13.775   3.875  1.00  0.00     0.130 HD
ENDROOT
BRANCH   1  14
HETATM   14  C   UNL     1      42.259 -16.174   4.140  1.00  0.00     0.023 A 
HETATM   15  C   UNL     1      42.907 -17.402   4.532  1.00  0.00    -0.014 A 
HETATM   16  C   UNL     1      43.518 -18.214   3.538  1.00  0.00    -0.025 A 
HETATM   17  C   UNL     1      42.999 -17.879   5.868  1.00  0.00     0.013 A 
HETATM   18  C   UNL     1      44.108 -19.444   3.875  1.00  0.00     0.012 A 
HETATM   19  C   UNL     1      43.548 -17.790   2.207  1.00  0.00     0.015 A 
HETATM   20  C   UNL     1      44.138 -19.891   5.192  1.00  0.00     0.001 A 
HETATM   21  C   UNL     1      43.594 -19.101   6.191  1.00  0.00     0.001 A 
HETATM   22  C   UNL     1      43.009 -16.564   1.841  1.00  0.00     0.038 A 
HETATM   23  C   UNL     1      42.382 -15.767   2.797  1.00  0.00     0.076 A 
BRANCH  23  24
HETATM   24  O   UNL     1      41.927 -14.545   2.394  1.00  0.00    -0.360 OA
HETATM   25  H   UNL     1      41.739 -14.549   1.441  1.00  0.00     0.217 HD
ENDBRANCH  23  24
ENDBRANCH   1  14
TORSDOF 2
ENDMDL
MODEL 6
REMARK VINA RESULT:      -7.9     14.748     16.361
REMARK  2 active torsions:
REMARK  status: ('A' for Active; 'I' for Inactive)
REMARK    1  A    between atoms: C_5  and  C_6 
REMARK    2  A    between atoms: C_17  and  O_18 
ROOT
HETATM    1  C   UNL     1      47.308 -28.156   0.659  1.00  0.00     0.200 C 
HETATM    2  N   UNL     1      47.739 -28.129   2.028  1.00  0.00    -0.336 N 
HETATM    3  C   UNL     1      48.592 -29.054   2.568  1.00  0.00     0.255 C 
HETATM    4  O   UNL     1      48.705 -29.194   3.783  1.00  0.00    -0.268 OA
HETATM    5  C   UNL     1      49.366 -29.870   1.620  1.00  0.00     0.053 A 
HETATM    6  C   UNL     1      49.242 -29.575   0.261  1.00  0.00     0.026 A 
HETATM    7  N   UNL     1      48.454 -28.502  -0.182  1.00  0.00    -0.267 NA
HETATM    8  C   UNL     1      50.207 -30.893   2.071  1.00  0.00     0.019 A 
HETATM    9  C   UNL     1      50.963 -31.617   1.151  1.00  0.00     0.001 A 
HETATM   10  C   UNL     1      50.888 -31.304  -0.205  1.00  0.00     0.002 A 
HETATM   11  C   UNL     1      50.045 -30.278  -0.645  1.00  0.00     0.024 A 
HETATM   12  H   UNL     1      47.086 -27.763   2.704  1.00  0.00     0.164 HD
HETATM   13  H   UNL     1      48.200 -28.633  -1.153  1.00  0.00     0.130 HD
ENDROOT
BRANCH   1  14
HETATM   14  C   UNL     1      46.068 -28.987   0.303  1.00  0.00     0.023 A 
HETATM   15  C   UNL     1      45.518 -28.905  -1.028  1.00  0.00    -0.014 A 
HETATM   16  C   UNL     1      44.467 -29.786  -1.401  1.00  0.00    -0.025 A 
HETATM   17  C   UNL     1      45.944 -27.986  -2.025  1.00  0.00     0.013 A 
HETATM   18  C   UNL     1      43.946 -29.774  -2.707  1.00  0.00     0.012 A 
HETATM   19  C   UNL     1      43.928 -30.673  -0.466  1.00  0.00     0.015 A 
HETATM   20  C   UNL     1      44.423 -28.884  -3.663  1.00  0.00     0.001 A 
HETATM   21  C   UNL     1      45.414 -27.980  -3.319  1.00  0.00     0.001 A 
HETATM   22  C   UNL     1      44.391 -30.688   0.844  1.00  0.00     0.038 A 
HETATM   23  C   UNL     1      45.438 -29.851   1.221  1.00  0.00     0.076 A 
BRANCH  23  24
HETATM   24  O   UNL     1      45.809 -29.862   2.534  1.00  0.00    -0.360 OA
HETATM   25  H   UNL     1      46.200 -30.720   2.770  1.00  0.00     0.217 HD
ENDBRANCH  23  24
ENDBRANCH   1  14
TORSDOF 2
ENDMDL
MODEL 7
REMARK VINA RESULT:      -7.7     14.388     16.027
REMARK  2 active torsions:
REMARK  status: ('A' for Active; 'I' for Inactive)
REMARK    1  A    between atoms: C_5  and  C_6 
REMARK    2  A    between atoms: C_17  and  O_18 
ROOT
HETATM    1  C   UNL     1      46.435 -27.913   0.523  1.00  0.00     0.200 C 
HETATM    2  N   UNL     1      45.498 -27.927  -0.564  1.00  0.00    -0.336 N 
HETATM    3  C   UNL     1      44.549 -28.901  -0.728  1.00  0.00     0.255 C 
HETATM    4  O   UNL     1      43.972 -29.066  -1.799  1.00  0.00    -0.268 OA
HETATM    5  C   UNL     1      44.254 -29.739   0.445  1.00  0.00     0.053 A 
HETATM    6  C   UNL     1      44.890 -29.418   1.646  1.00  0.00     0.026 A 
HETATM    7  N   UNL     1      45.733 -28.301   1.747  1.00  0.00    -0.267 NA
HETATM    8  C   UNL     1      43.357 -30.809   0.359  1.00  0.00     0.019 A 
HETATM    9  C   UNL     1      43.063 -31.554   1.499  1.00  0.00     0.001 A 
HETATM   10  C   UNL     1      43.652 -31.216   2.716  1.00  0.00     0.002 A 
HETATM   11  C   UNL     1      44.547 -30.144   2.792  1.00  0.00     0.024 A 
HETATM   12  H   UNL     1      45.811 -27.542  -1.441  1.00  0.00     0.164 HD
HETATM   13  H   UNL     1      46.357 -28.404   2.538  1.00  0.00     0.130 HD
ENDROOT
BRANCH   1  14
HETATM   14  C   UNL     1      47.755 -28.677   0.356  1.00  0.00     0.023 A 
HETATM   15  C   UNL     1      48.487 -29.093   1.528  1.00  0.00    -0.014 A 
HETATM   16  C   UNL     1      49.625 -29.929   1.376  1.00  0.00    -0.025 A 
HETATM   17  C   UNL     1      48.162 -28.718   2.861  1.00  0.00     0.013 A 
HETATM   18  C   UNL     1      50.328 -30.401   2.498  1.00  0.00     0.012 A 
HETATM   19  C   UNL     1      50.069 -30.286   0.100  1.00  0.00     0.015 A 
HETATM   20  C   UNL     1      49.949 -30.042   3.787  1.00  0.00     0.001 A 
HETATM   21  C   UNL     1      48.872 -29.190   3.969  1.00  0.00     0.001 A 
HETATM   22  C   UNL     1      49.424 -29.810  -1.033  1.00  0.00     0.038 A 
HETATM   23  C   UNL     1      48.290 -29.011  -0.904  1.00  0.00     0.076 A 
BRANCH  23  24
HETATM   24  O   UNL     1      47.735 -28.519  -2.049  1.00  0.00    -0.360 OA
HETATM   25  H   UNL     1      47.947 -27.577  -2.153  1.00  0.00     0.217 HD
ENDBRANCH  23  24
ENDBRANCH   1  14
TORSDOF 2
ENDMDL
MODEL 8
REMARK VINA RESULT:      -7.5      3.845      7.158
REMARK  2 active torsions:
REMARK  status: ('A' for Active; 'I' for Inactive)
REMARK    1  A    between atoms: C_5  and  C_6 
REMARK    2  A    between atoms: C_17  and  O_18 
ROOT
HETATM    1  C   UNL     1      42.440 -10.671   6.221  1.00  0.00     0.200 C 
HETATM    2  N   UNL     1      42.460 -10.466   4.800  1.00  0.00    -0.336 N 
HETATM    3  C   UNL     1      42.722 -11.463   3.898  1.00  0.00     0.255 C 
HETATM    4  O   UNL     1      43.031 -11.217   2.736  1.00  0.00    -0.268 OA
HETATM    5  C   UNL     1      42.610 -12.845   4.392  1.00  0.00     0.053 A 
HETATM    6  C   UNL     1      42.160 -13.030   5.700  1.00  0.00     0.026 A 
HETATM    7  N   UNL     1      41.771 -11.943   6.497  1.00  0.00    -0.267 NA
HETATM    8  C   UNL     1      42.931 -13.931   3.571  1.00  0.00     0.019 A 
HETATM    9  C   UNL     1      42.771 -15.228   4.052  1.00  0.00     0.001 A 
HETATM   10  C   UNL     1      42.276 -15.432   5.339  1.00  0.00     0.002 A 
HETATM   11  C   UNL     1      41.957 -14.339   6.152  1.00  0.00     0.024 A 
HETATM   12  H   UNL     1      42.763  -9.561   4.474  1.00  0.00     0.164 HD
HETATM   13  H   UNL     1      41.806 -12.197   7.477  1.00  0.00     0.130 HD
ENDROOT
BRANCH   1  14
HETATM   14  C   UNL     1      43.759 -10.541   6.993  1.00  0.00     0.023 A 
HETATM   15  C   UNL     1      43.742 -10.044   8.347  1.00  0.00    -0.014 A 
HETATM   16  C   UNL     1      44.940 -10.068   9.112  1.00  0.00    -0.025 A 
HETATM   17  C   UNL     1      42.598  -9.508   8.999  1.00  0.00     0.013 A 
HETATM   18  C   UNL     1      44.947  -9.646  10.452  1.00  0.00     0.012 A 
HETATM   19  C   UNL     1      46.134 -10.504   8.533  1.00  0.00     0.015 A 
HETATM   20  C   UNL     1      43.793  -9.166  11.062  1.00  0.00     0.001 A 
HETATM   21  C   UNL     1      42.619  -9.086  10.331  1.00  0.00     0.001 A 
HETATM   22  C   UNL     1      46.174 -10.894   7.200  1.00  0.00     0.038 A 
HETATM   23  C   UNL     1      45.005 -10.903   6.443  1.00  0.00     0.076 A 
BRANCH  23  24
HETATM   24  O   UNL     1      45.115 -11.233   5.124  1.00  0.00    -0.360 OA
HETATM   25  H   UNL     1      44.944 -10.458   4.563  1.00  0.00     0.217 HD
ENDBRANCH  23  24
ENDBRANCH   1  14
TORSDOF 2
ENDMDL
MODEL 9
REMARK VINA RESULT:      -7.3     21.557     23.279
REMARK  2 active torsions:
REMARK  status: ('A' for Active; 'I' for Inactive)
REMARK    1  A    between atoms: C_5  and  C_6 
REMARK    2  A    between atoms: C_17  and  O_18 
ROOT
HETATM    1  C   UNL     1      30.572 -30.056  16.376  1.00  0.00     0.200 C 
HETATM    2  N   UNL     1      30.805 -29.342  17.599  1.00  0.00    -0.336 N 
HETATM    3  C   UNL     1      31.874 -29.582  18.420  1.00  0.00     0.255 C 
HETATM    4  O   UNL     1      31.895 -29.191  19.583  1.00  0.00    -0.268 OA
HETATM    5  C   UNL     1      32.998 -30.332  17.836  1.00  0.00     0.053 A 
HETATM    6  C   UNL     1      32.927 -30.654  16.480  1.00  0.00     0.026 A 
HETATM    7  N   UNL     1      31.851 -30.227  15.686  1.00  0.00    -0.267 NA
HETATM    8  C   UNL     1      34.103 -30.694  18.614  1.00  0.00     0.019 A 
HETATM    9  C   UNL     1      35.172 -31.362  18.022  1.00  0.00     0.001 A 
HETATM   10  C   UNL     1      35.138 -31.648  16.658  1.00  0.00     0.002 A 
HETATM   11  C   UNL     1      34.029 -31.281  15.889  1.00  0.00     0.024 A 
HETATM   12  H   UNL     1      29.991 -29.028  18.105  1.00  0.00     0.164 HD
HETATM   13  H   UNL     1      31.774 -30.808  14.860  1.00  0.00     0.130 HD
ENDROOT
BRANCH   1  14
HETATM   14  C   UNL     1      29.779 -31.368  16.439  1.00  0.00     0.023 A 
HETATM   15  C   UNL     1      29.829 -32.282  15.323  1.00  0.00    -0.014 A 
HETATM   16  C   UNL     1      29.220 -33.560  15.444  1.00  0.00    -0.025 A 
HETATM   17  C   UNL     1      30.446 -32.001  14.074  1.00  0.00     0.013 A 
HETATM   18  C   UNL     1      29.300 -34.497  14.400  1.00  0.00     0.012 A 
HETATM   19  C   UNL     1      28.522 -33.898  16.605  1.00  0.00     0.015 A 
HETATM   20  C   UNL     1      29.951 -34.194  13.208  1.00  0.00     0.001 A 
HETATM   21  C   UNL     1      30.514 -32.939  13.040  1.00  0.00     0.001 A 
HETATM   22  C   UNL     1      28.390 -32.986  17.644  1.00  0.00     0.038 A 
HETATM   23  C   UNL     1      29.002 -31.738  17.555  1.00  0.00     0.076 A 
BRANCH  23  24
HETATM   24  O   UNL     1      28.786 -30.859  18.575  1.00  0.00    -0.360 OA
HETATM   25  H   UNL     1      29.068 -31.243  19.422  1.00  0.00     0.217 HD
ENDBRANCH  23  24
ENDBRANCH   1  14
TORSDOF 2
ENDMDL
MODEL 10
REMARK VINA RESULT:      -7.3      2.173      3.695
REMARK  2 active torsions:
REMARK  status: ('A' for Active; 'I' for Inactive)
REMARK    1  A    between atoms: C_5  and  C_6 
REMARK    2  A    between atoms: C_17  and  O_18 
ROOT
HETATM    1  C   UNL     1      41.047 -15.361   5.672  1.00  0.00     0.200 C 
HETATM    2  N   UNL     1      41.731 -15.678   6.893  1.00  0.00    -0.336 N 
HETATM    3  C   UNL     1      42.760 -14.927   7.397  1.00  0.00     0.255 C 
HETATM    4  O   UNL     1      43.519 -15.368   8.255  1.00  0.00    -0.268 OA
HETATM    5  C   UNL     1      42.906 -13.565   6.860  1.00  0.00     0.053 A 
HETATM    6  C   UNL     1      41.940 -13.118   5.958  1.00  0.00     0.026 A 
HETATM    7  N   UNL     1      40.835 -13.914   5.620  1.00  0.00    -0.267 NA
HETATM    8  C   UNL     1      43.970 -12.747   7.255  1.00  0.00     0.019 A 
HETATM    9  C   UNL     1      44.056 -11.446   6.764  1.00  0.00     0.001 A 
HETATM   10  C   UNL     1      43.072 -10.966   5.900  1.00  0.00     0.002 A 
HETATM   11  C   UNL     1      42.012 -11.793   5.513  1.00  0.00     0.024 A 
HETATM   12  H   UNL     1      41.814 -16.655   7.129  1.00  0.00     0.164 HD
HETATM   13  H   UNL     1      40.441 -13.609   4.738  1.00  0.00     0.130 HD
ENDROOT
BRANCH   1  14
HETATM   14  C   UNL     1      41.619 -15.901   4.355  1.00  0.00     0.023 A 
HETATM   15  C   UNL     1      41.172 -15.339   3.104  1.00  0.00    -0.014 A 
HETATM   16  C   UNL     1      41.812 -15.732   1.897  1.00  0.00    -0.025 A 
HETATM   17  C   UNL     1      40.109 -14.405   2.970  1.00  0.00     0.013 A 
HETATM   18  C   UNL     1      41.443 -15.162   0.667  1.00  0.00     0.012 A 
HETATM   19  C   UNL     1      42.815 -16.705   1.919  1.00  0.00     0.015 A 
HETATM   20  C   UNL     1      40.423 -14.219   0.588  1.00  0.00     0.001 A 
HETATM   21  C   UNL     1      39.747 -13.849   1.740  1.00  0.00     0.001 A 
HETATM   22  C   UNL     1      43.182 -17.318   3.110  1.00  0.00     0.038 A 
HETATM   23  C   UNL     1      42.585 -16.926   4.306  1.00  0.00     0.076 A 
BRANCH  23  24
HETATM   24  O   UNL     1      42.938 -17.606   5.435  1.00  0.00    -0.360 OA
HETATM   25  H   UNL     1      43.807 -18.026   5.323  1.00  0.00     0.217 HD
ENDBRANCH  23  24
ENDBRANCH   1  14
TORSDOF 2
ENDMDL
