MODEL 1
REMARK VINA RESULT:      -9.2      0.000      0.000
REMARK  4 active torsions:
REMARK  status: ('A' for Active; 'I' for Inactive)
REMARK    1  A    between atoms: O_2  and  C_3 
REMARK    2  A    between atoms: C_4  and  C_5 
REMARK    3  A    between atoms: C_9  and  C_10 
REMARK       I    between atoms: C_10  and  N_11 
REMARK    4  A    between atoms: N_11  and  N_12 
ROOT
HETATM    1  C   UNL     1      40.207 -12.638   6.106  1.00  0.00     0.289 C 
HETATM    2  N   UNL     1      41.257 -11.769   6.372  1.00  0.00    -0.241 N 
HETATM    3  O   UNL     1      39.018 -12.338   6.155  1.00  0.00    -0.264 OA
HETATM    4  H   UNL     1      42.176 -12.160   6.511  1.00  0.00     0.192 HD
ENDROOT
BRANCH   1   5
HETATM    5  C   UNL     1      40.630 -13.970   5.750  1.00  0.00     0.121 A 
HETATM    6  N   UNL     1      39.933 -15.078   6.144  1.00  0.00    -0.272 N 
HETATM    7  N   UNL     1      40.461 -16.237   5.722  1.00  0.00    -0.174 NA
HETATM    8  H   UNL     1      39.086 -15.096   6.707  1.00  0.00     0.189 HD
HETATM    9  C   UNL     1      41.531 -15.882   5.002  1.00  0.00     0.092 A 
HETATM   10  C   UNL     1      41.681 -14.467   5.003  1.00  0.00     0.071 A 
BRANCH   9  11
HETATM   11  C   UNL     1      42.408 -16.848   4.340  1.00  0.00     0.028 A 
HETATM   12  C   UNL     1      43.432 -17.550   4.998  1.00  0.00     0.080 A 
HETATM   13  C   UNL     1      44.253 -18.433   4.286  1.00  0.00     0.037 A 
HETATM   14  C   UNL     1      44.039 -18.664   2.927  1.00  0.00     0.003 A 
HETATM   15  C   UNL     1      43.014 -17.995   2.268  1.00  0.00     0.001 A 
HETATM   16  C   UNL     1      42.210 -17.091   2.965  1.00  0.00     0.017 A 
BRANCH  12  17
HETATM   17  O   UNL     1      43.748 -17.418   6.325  1.00  0.00    -0.355 OA
HETATM   18  C   UNL     1      44.726 -16.410   6.565  1.00  0.00     0.210 C 
ENDBRANCH  12  17
ENDBRANCH   9  11
ENDBRANCH   1   5
BRANCH   2  19
HETATM   19  N   UNL     1      41.023 -10.513   6.842  1.00  0.00    -0.165 NA
HETATM   20  C   UNL     1      42.012  -9.835   7.334  1.00  0.00     0.157 A 
HETATM   21  C   UNL     1      41.778  -8.496   8.066  1.00  0.00     0.277 A 
HETATM   22  C   UNL     1      43.463 -10.071   7.399  1.00  0.00     0.027 A 
HETATM   23  O   UNL     1      40.726  -7.912   8.192  1.00  0.00    -0.266 OA
HETATM   24  N   UNL     1      43.010  -8.131   8.559  1.00  0.00    -0.321 N 
HETATM   25  C   UNL     1      43.992  -9.033   8.170  1.00  0.00     0.048 A 
HETATM   26  H   UNL     1      43.153  -7.283   9.087  1.00  0.00     0.169 HD
HETATM   27  C   UNL     1      45.340  -8.941   8.450  1.00  0.00     0.030 A 
HETATM   28  C   UNL     1      46.178  -9.922   7.915  1.00  0.00     0.002 A 
HETATM   29  C   UNL     1      45.661 -10.947   7.105  1.00  0.00     0.001 A 
HETATM   30  C   UNL     1      44.290 -11.023   6.828  1.00  0.00     0.016 A 
ENDBRANCH   2  19
TORSDOF 4
ENDMDL
MODEL 2
REMARK VINA RESULT:      -9.1      2.229      2.619
REMARK  4 active torsions:
REMARK  status: ('A' for Active; 'I' for Inactive)
REMARK    1  A    between atoms: O_2  and  C_3 
REMARK    2  A    between atoms: C_4  and  C_5 
REMARK    3  A    between atoms: C_9  and  C_10 
REMARK       I    between atoms: C_10  and  N_11 
REMARK    4  A    between atoms: N_11  and  N_12 
ROOT
HETATM    1  C   UNL     1      42.150 -13.088   3.167  1.00  0.00     0.289 C 
HETATM    2  N   UNL     1      41.807 -12.897   4.499  1.00  0.00    -0.241 N 
HETATM    3  O   UNL     1      42.088 -12.226   2.296  1.00  0.00    -0.264 OA
HETATM    4  H   UNL     1      41.692 -13.712   5.083  1.00  0.00     0.192 HD
ENDROOT
BRANCH   1   5
HETATM    5  C   UNL     1      42.607 -14.423   2.869  1.00  0.00     0.121 A 
HETATM    6  N   UNL     1      43.224 -14.727   1.688  1.00  0.00    -0.272 N 
HETATM    7  N   UNL     1      43.590 -16.013   1.575  1.00  0.00    -0.174 NA
HETATM    8  H   UNL     1      43.418 -14.089   0.920  1.00  0.00     0.189 HD
HETATM    9  C   UNL     1      43.226 -16.574   2.734  1.00  0.00     0.092 A 
HETATM   10  C   UNL     1      42.594 -15.612   3.571  1.00  0.00     0.071 A 
BRANCH   9  11
HETATM   11  C   UNL     1      43.448 -17.986   3.046  1.00  0.00     0.028 A 
HETATM   12  C   UNL     1      43.966 -18.441   4.271  1.00  0.00     0.080 A 
HETATM   13  C   UNL     1      44.184 -19.808   4.481  1.00  0.00     0.037 A 
HETATM   14  C   UNL     1      43.848 -20.740   3.499  1.00  0.00     0.003 A 
HETATM   15  C   UNL     1      43.311 -20.307   2.292  1.00  0.00     0.001 A 
HETATM   16  C   UNL     1      43.119 -18.942   2.065  1.00  0.00     0.017 A 
BRANCH  12  17
HETATM   17  O   UNL     1      44.336 -17.635   5.316  1.00  0.00    -0.355 OA
HETATM   18  C   UNL     1      43.504 -17.796   6.462  1.00  0.00     0.210 C 
ENDBRANCH  12  17
ENDBRANCH   9  11
ENDBRANCH   1   5
BRANCH   2  19
HETATM   19  N   UNL     1      41.242 -11.731   4.915  1.00  0.00    -0.165 NA
HETATM   20  C   UNL     1      41.889 -10.987   5.755  1.00  0.00     0.157 A 
HETATM   21  C   UNL     1      41.221  -9.764   6.421  1.00  0.00     0.277 A 
HETATM   22  C   UNL     1      43.249 -11.046   6.315  1.00  0.00     0.027 A 
HETATM   23  O   UNL     1      40.116  -9.329   6.196  1.00  0.00    -0.266 OA
HETATM   24  N   UNL     1      42.142  -9.299   7.333  1.00  0.00    -0.321 N 
HETATM   25  C   UNL     1      43.321 -10.030   7.272  1.00  0.00     0.048 A 
HETATM   26  H   UNL     1      41.966  -8.494   7.917  1.00  0.00     0.169 HD
HETATM   27  C   UNL     1      44.462  -9.800   8.012  1.00  0.00     0.030 A 
HETATM   28  C   UNL     1      45.570 -10.613   7.761  1.00  0.00     0.002 A 
HETATM   29  C   UNL     1      45.520 -11.611   6.772  1.00  0.00     0.001 A 
HETATM   30  C   UNL     1      44.354 -11.828   6.028  1.00  0.00     0.016 A 
ENDBRANCH   2  19
TORSDOF 4
ENDMDL
MODEL 3
REMARK VINA RESULT:      -9.0      5.762      7.750
REMARK  4 active torsions:
REMARK  status: ('A' for Active; 'I' for Inactive)
REMARK    1  A    between atoms: O_2  and  C_3 
REMARK    2  A    between atoms: C_4  and  C_5 
REMARK    3  A    between atoms: C_9  and  C_10 
REMARK       I    between atoms: C_10  and  N_11 
REMARK    4  A    between atoms: N_11  and  N_12 
ROOT
HETATM    1  C   UNL     1      40.900 -14.119   1.627  1.00  0.00     0.289 C 
HETATM    2  N   UNL     1      41.309 -13.256   0.619  1.00  0.00    -0.241 N 
HETATM    3  O   UNL     1      39.855 -14.013   2.260  1.00  0.00    -0.264 OA
HETATM    4  H   UNL     1      42.268 -13.304   0.310  1.00  0.00     0.192 HD
ENDROOT
BRANCH   1   5
HETATM    5  C   UNL     1      41.827 -15.194   1.883  1.00  0.00     0.121 A 
HETATM    6  N   UNL     1      43.125 -15.144   1.458  1.00  0.00    -0.272 N 
HETATM    7  N   UNL     1      43.852 -16.223   1.785  1.00  0.00    -0.174 NA
HETATM    8  H   UNL     1      43.566 -14.390   0.937  1.00  0.00     0.189 HD
HETATM    9  C   UNL     1      43.011 -17.004   2.473  1.00  0.00     0.092 A 
HETATM   10  C   UNL     1      41.724 -16.401   2.548  1.00  0.00     0.071 A 
BRANCH   9  11
HETATM   11  C   UNL     1      43.398 -18.299   3.034  1.00  0.00     0.028 A 
HETATM   12  C   UNL     1      43.885 -18.467   4.342  1.00  0.00     0.080 A 
HETATM   13  C   UNL     1      44.268 -19.735   4.795  1.00  0.00     0.037 A 
HETATM   14  C   UNL     1      44.129 -20.855   3.975  1.00  0.00     0.003 A 
HETATM   15  C   UNL     1      43.626 -20.708   2.687  1.00  0.00     0.001 A 
HETATM   16  C   UNL     1      43.269 -19.441   2.218  1.00  0.00     0.017 A 
BRANCH  12  17
HETATM   17  O   UNL     1      44.069 -17.455   5.248  1.00  0.00    -0.355 OA
HETATM   18  C   UNL     1      43.271 -17.607   6.419  1.00  0.00     0.210 C 
ENDBRANCH  12  17
ENDBRANCH   9  11
ENDBRANCH   1   5
BRANCH   2  19
HETATM   19  N   UNL     1      40.608 -12.123   0.341  1.00  0.00    -0.165 NA
HETATM   20  C   UNL     1      39.758 -12.137  -0.637  1.00  0.00     0.157 A 
HETATM   21  C   UNL     1      39.087 -10.838  -1.132  1.00  0.00     0.277 A 
HETATM   22  C   UNL     1      39.241 -13.205  -1.509  1.00  0.00     0.027 A 
HETATM   23  O   UNL     1      39.198  -9.734  -0.651  1.00  0.00    -0.266 OA
HETATM   24  N   UNL     1      38.361 -11.204  -2.243  1.00  0.00    -0.321 N 
HETATM   25  C   UNL     1      38.439 -12.573  -2.463  1.00  0.00     0.048 A 
HETATM   26  H   UNL     1      37.814 -10.543  -2.775  1.00  0.00     0.169 HD
HETATM   27  C   UNL     1      37.794 -13.277  -3.459  1.00  0.00     0.030 A 
HETATM   28  C   UNL     1      37.953 -14.665  -3.476  1.00  0.00     0.002 A 
HETATM   29  C   UNL     1      38.725 -15.313  -2.496  1.00  0.00     0.001 A 
HETATM   30  C   UNL     1      39.370 -14.582  -1.490  1.00  0.00     0.016 A 
ENDBRANCH   2  19
TORSDOF 4
ENDMDL
MODEL 4
REMARK VINA RESULT:      -8.9      4.509      7.637
REMARK  4 active torsions:
REMARK  status: ('A' for Active; 'I' for Inactive)
REMARK    1  A    between atoms: O_2  and  C_3 
REMARK    2  A    between atoms: C_4  and  C_5 
REMARK    3  A    between atoms: C_9  and  C_10 
REMARK       I    between atoms: C_10  and  N_11 
REMARK    4  A    between atoms: N_11  and  N_12 
ROOT
HETATM    1  C   UNL     1      40.978 -13.790   4.041  1.00  0.00     0.289 C 
HETATM    2  N   UNL     1      42.249 -14.250   4.360  1.00  0.00    -0.241 N 
HETATM    3  O   UNL     1      40.093 -13.552   4.857  1.00  0.00    -0.264 OA
HETATM    4  H   UNL     1      42.826 -14.612   3.615  1.00  0.00     0.192 HD
ENDROOT
BRANCH   1   5
HETATM    5  C   UNL     1      40.766 -13.598   2.628  1.00  0.00     0.121 A 
HETATM    6  N   UNL     1      41.670 -12.932   1.847  1.00  0.00    -0.272 N 
HETATM    7  N   UNL     1      41.321 -12.848   0.554  1.00  0.00    -0.174 NA
HETATM    8  H   UNL     1      42.544 -12.511   2.152  1.00  0.00     0.189 HD
HETATM    9  C   UNL     1      40.158 -13.504   0.472  1.00  0.00     0.092 A 
HETATM   10  C   UNL     1      39.767 -13.982   1.754  1.00  0.00     0.071 A 
BRANCH   9  11
HETATM   11  C   UNL     1      39.417 -13.667  -0.779  1.00  0.00     0.028 A 
HETATM   12  C   UNL     1      38.687 -12.635  -1.392  1.00  0.00     0.080 A 
HETATM   13  C   UNL     1      37.972 -12.879  -2.572  1.00  0.00     0.037 A 
HETATM   14  C   UNL     1      38.012 -14.133  -3.180  1.00  0.00     0.003 A 
HETATM   15  C   UNL     1      38.750 -15.158  -2.598  1.00  0.00     0.001 A 
HETATM   16  C   UNL     1      39.441 -14.930  -1.406  1.00  0.00     0.017 A 
BRANCH  12  17
HETATM   17  O   UNL     1      38.565 -11.360  -0.903  1.00  0.00    -0.355 OA
HETATM   18  C   UNL     1      37.446 -11.204  -0.034  1.00  0.00     0.210 C 
ENDBRANCH  12  17
ENDBRANCH   9  11
ENDBRANCH   1   5
BRANCH   2  19
HETATM   19  N   UNL     1      42.567 -14.598   5.637  1.00  0.00    -0.165 NA
HETATM   20  C   UNL     1      42.971 -15.807   5.873  1.00  0.00     0.157 A 
HETATM   21  C   UNL     1      43.149 -16.322   7.317  1.00  0.00     0.277 A 
HETATM   22  C   UNL     1      43.313 -16.944   5.004  1.00  0.00     0.027 A 
HETATM   23  O   UNL     1      43.022 -15.684   8.337  1.00  0.00    -0.266 OA
HETATM   24  N   UNL     1      43.457 -17.658   7.192  1.00  0.00    -0.321 N 
HETATM   25  C   UNL     1      43.561 -18.023   5.856  1.00  0.00     0.048 A 
HETATM   26  H   UNL     1      43.629 -18.252   7.989  1.00  0.00     0.169 HD
HETATM   27  C   UNL     1      43.903 -19.272   5.377  1.00  0.00     0.030 A 
HETATM   28  C   UNL     1      44.014 -19.424   3.992  1.00  0.00     0.002 A 
HETATM   29  C   UNL     1      43.805 -18.334   3.130  1.00  0.00     0.001 A 
HETATM   30  C   UNL     1      43.462 -17.073   3.634  1.00  0.00     0.016 A 
ENDBRANCH   2  19
TORSDOF 4
ENDMDL
MODEL 5
REMARK VINA RESULT:      -8.5      2.942      8.480
REMARK  4 active torsions:
REMARK  status: ('A' for Active; 'I' for Inactive)
REMARK    1  A    between atoms: O_2  and  C_3 
REMARK    2  A    between atoms: C_4  and  C_5 
REMARK    3  A    between atoms: C_9  and  C_10 
REMARK       I    between atoms: C_10  and  N_11 
REMARK    4  A    between atoms: N_11  and  N_12 
ROOT
HETATM    1  C   UNL     1      43.893 -11.800   5.035  1.00  0.00     0.289 C 
HETATM    2  N   UNL     1      42.876 -12.740   4.929  1.00  0.00    -0.241 N 
HETATM    3  O   UNL     1      44.542 -11.359   4.092  1.00  0.00    -0.264 OA
HETATM    4  H   UNL     1      42.552 -13.189   5.772  1.00  0.00     0.192 HD
ENDROOT
BRANCH   1   5
HETATM    5  C   UNL     1      44.137 -11.357   6.386  1.00  0.00     0.121 A 
HETATM    6  N   UNL     1      45.349 -11.534   6.994  1.00  0.00    -0.272 N 
HETATM    7  N   UNL     1      45.407 -11.060   8.248  1.00  0.00    -0.174 NA
HETATM    8  H   UNL     1      46.172 -11.977   6.594  1.00  0.00     0.189 HD
HETATM    9  C   UNL     1      44.200 -10.528   8.468  1.00  0.00     0.092 A 
HETATM   10  C   UNL     1      43.367 -10.704   7.327  1.00  0.00     0.071 A 
BRANCH   9  11
HETATM   11  C   UNL     1      43.825  -9.883   9.727  1.00  0.00     0.028 A 
HETATM   12  C   UNL     1      43.675  -8.494   9.876  1.00  0.00     0.080 A 
HETATM   13  C   UNL     1      43.349  -7.948  11.123  1.00  0.00     0.037 A 
HETATM   14  C   UNL     1      43.123  -8.776  12.223  1.00  0.00     0.003 A 
HETATM   15  C   UNL     1      43.243 -10.154  12.085  1.00  0.00     0.001 A 
HETATM   16  C   UNL     1      43.597 -10.703  10.850  1.00  0.00     0.017 A 
BRANCH  12  17
HETATM   17  O   UNL     1      43.867  -7.571   8.880  1.00  0.00    -0.355 OA
HETATM   18  C   UNL     1      42.645  -7.116   8.303  1.00  0.00     0.210 C 
ENDBRANCH  12  17
ENDBRANCH   9  11
ENDBRANCH   1   5
BRANCH   2  19
HETATM   19  N   UNL     1      42.607 -13.347   3.741  1.00  0.00    -0.165 NA
HETATM   20  C   UNL     1      42.810 -14.622   3.631  1.00  0.00     0.157 A 
HETATM   21  C   UNL     1      42.721 -15.331   2.262  1.00  0.00     0.277 A 
HETATM   22  C   UNL     1      43.174 -15.673   4.595  1.00  0.00     0.027 A 
HETATM   23  O   UNL     1      42.394 -14.836   1.208  1.00  0.00    -0.266 OA
HETATM   24  N   UNL     1      43.115 -16.628   2.497  1.00  0.00    -0.321 N 
HETATM   25  C   UNL     1      43.371 -16.836   3.847  1.00  0.00     0.048 A 
HETATM   26  H   UNL     1      43.152 -17.325   1.768  1.00  0.00     0.169 HD
HETATM   27  C   UNL     1      43.739 -18.031   4.432  1.00  0.00     0.030 A 
HETATM   28  C   UNL     1      43.892 -18.049   5.820  1.00  0.00     0.002 A 
HETATM   29  C   UNL     1      43.656 -16.894   6.586  1.00  0.00     0.001 A 
HETATM   30  C   UNL     1      43.280 -15.691   5.975  1.00  0.00     0.016 A 
ENDBRANCH   2  19
TORSDOF 4
ENDMDL
MODEL 6
REMARK VINA RESULT:      -8.5      4.434      7.355
REMARK  4 active torsions:
REMARK  status: ('A' for Active; 'I' for Inactive)
REMARK    1  A    between atoms: O_2  and  C_3 
REMARK    2  A    between atoms: C_4  and  C_5 
REMARK    3  A    between atoms: C_9  and  C_10 
REMARK       I    between atoms: C_10  and  N_11 
REMARK    4  A    between atoms: N_11  and  N_12 
ROOT
HETATM    1  C   UNL     1      40.684 -13.471   4.531  1.00  0.00     0.289 C 
HETATM    2  N   UNL     1      41.975 -13.960   4.682  1.00  0.00    -0.241 N 
HETATM    3  O   UNL     1      39.885 -13.306   5.447  1.00  0.00    -0.264 OA
HETATM    4  H   UNL     1      42.473 -14.256   3.855  1.00  0.00     0.192 HD
ENDROOT
BRANCH   1   5
HETATM    5  C   UNL     1      40.337 -13.156   3.167  1.00  0.00     0.121 A 
HETATM    6  N   UNL     1      39.085 -12.730   2.821  1.00  0.00    -0.272 N 
HETATM    7  N   UNL     1      38.934 -12.475   1.512  1.00  0.00    -0.174 NA
HETATM    8  H   UNL     1      38.293 -12.598   3.445  1.00  0.00     0.189 HD
HETATM    9  C   UNL     1      40.136 -12.717   0.977  1.00  0.00     0.092 A 
HETATM   10  C   UNL     1      41.044 -13.158   1.980  1.00  0.00     0.071 A 
BRANCH   9  11
HETATM   11  C   UNL     1      40.426 -12.555  -0.448  1.00  0.00     0.028 A 
HETATM   12  C   UNL     1      40.092 -13.509  -1.424  1.00  0.00     0.080 A 
HETATM   13  C   UNL     1      40.436 -13.297  -2.765  1.00  0.00     0.037 A 
HETATM   14  C   UNL     1      41.071 -12.120  -3.158  1.00  0.00     0.003 A 
HETATM   15  C   UNL     1      41.386 -11.156  -2.207  1.00  0.00     0.001 A 
HETATM   16  C   UNL     1      41.072 -11.373  -0.863  1.00  0.00     0.017 A 
BRANCH  12  17
HETATM   17  O   UNL     1      39.469 -14.704  -1.174  1.00  0.00    -0.355 OA
HETATM   18  C   UNL     1      38.788 -15.222  -2.314  1.00  0.00     0.210 C 
ENDBRANCH  12  17
ENDBRANCH   9  11
ENDBRANCH   1   5
BRANCH   2  19
HETATM   19  N   UNL     1      42.412 -14.420   5.886  1.00  0.00    -0.165 NA
HETATM   20  C   UNL     1      42.891 -15.622   5.960  1.00  0.00     0.157 A 
HETATM   21  C   UNL     1      43.210 -16.272   7.323  1.00  0.00     0.277 A 
HETATM   22  C   UNL     1      43.213 -16.643   4.951  1.00  0.00     0.027 A 
HETATM   23  O   UNL     1      43.137 -15.751   8.412  1.00  0.00    -0.266 OA
HETATM   24  N   UNL     1      43.569 -17.569   7.032  1.00  0.00    -0.321 N 
HETATM   25  C   UNL     1      43.580 -17.789   5.661  1.00  0.00     0.048 A 
HETATM   26  H   UNL     1      43.833 -18.232   7.746  1.00  0.00     0.169 HD
HETATM   27  C   UNL     1      43.940 -18.960   5.026  1.00  0.00     0.030 A 
HETATM   28  C   UNL     1      43.945 -18.963   3.629  1.00  0.00     0.002 A 
HETATM   29  C   UNL     1      43.615 -17.803   2.906  1.00  0.00     0.001 A 
HETATM   30  C   UNL     1      43.256 -16.622   3.567  1.00  0.00     0.016 A 
ENDBRANCH   2  19
TORSDOF 4
ENDMDL
MODEL 7
REMARK VINA RESULT:      -8.4      4.707      6.705
REMARK  4 active torsions:
REMARK  status: ('A' for Active; 'I' for Inactive)
REMARK    1  A    between atoms: O_2  and  C_3 
REMARK    2  A    between atoms: C_4  and  C_5 
REMARK    3  A    between atoms: C_9  and  C_10 
REMARK       I    between atoms: C_10  and  N_11 
REMARK    4  A    between atoms: N_11  and  N_12 
ROOT
HETATM    1  C   UNL     1      39.713 -12.654   3.210  1.00  0.00     0.289 C 
HETATM    2  N   UNL     1      38.662 -12.854   2.324  1.00  0.00    -0.241 N 
HETATM    3  O   UNL     1      40.069 -11.563   3.641  1.00  0.00    -0.264 OA
HETATM    4  H   UNL     1      38.585 -13.752   1.871  1.00  0.00     0.192 HD
ENDROOT
BRANCH   1   5
HETATM    5  C   UNL     1      40.379 -13.871   3.607  1.00  0.00     0.121 A 
HETATM    6  N   UNL     1      40.120 -14.476   4.805  1.00  0.00    -0.272 N 
HETATM    7  N   UNL     1      40.821 -15.601   5.014  1.00  0.00    -0.174 NA
HETATM    8  H   UNL     1      39.471 -14.158   5.520  1.00  0.00     0.189 HD
HETATM    9  C   UNL     1      41.550 -15.759   3.903  1.00  0.00     0.092 A 
HETATM   10  C   UNL     1      41.311 -14.688   2.998  1.00  0.00     0.071 A 
BRANCH   9  11
HETATM   11  C   UNL     1      42.467 -16.881   3.699  1.00  0.00     0.028 A 
HETATM   12  C   UNL     1      43.458 -17.256   4.622  1.00  0.00     0.080 A 
HETATM   13  C   UNL     1      44.321 -18.321   4.338  1.00  0.00     0.037 A 
HETATM   14  C   UNL     1      44.181 -19.054   3.160  1.00  0.00     0.003 A 
HETATM   15  C   UNL     1      43.190 -18.711   2.248  1.00  0.00     0.001 A 
HETATM   16  C   UNL     1      42.344 -17.631   2.511  1.00  0.00     0.017 A 
BRANCH  12  17
HETATM   17  O   UNL     1      43.701 -16.623   5.813  1.00  0.00    -0.355 OA
HETATM   18  C   UNL     1      43.386 -17.432   6.945  1.00  0.00     0.210 C 
ENDBRANCH  12  17
ENDBRANCH   9  11
ENDBRANCH   1   5
BRANCH   2  19
HETATM   19  N   UNL     1      38.014 -11.799   1.760  1.00  0.00    -0.165 NA
HETATM   20  C   UNL     1      38.201 -11.549   0.502  1.00  0.00     0.157 A 
HETATM   21  C   UNL     1      37.662 -10.256  -0.146  1.00  0.00     0.277 A 
HETATM   22  C   UNL     1      38.908 -12.264  -0.574  1.00  0.00     0.027 A 
HETATM   23  O   UNL     1      36.974  -9.413   0.381  1.00  0.00    -0.266 OA
HETATM   24  N   UNL     1      38.150 -10.263  -1.433  1.00  0.00    -0.321 N 
HETATM   25  C   UNL     1      38.866 -11.425  -1.690  1.00  0.00     0.048 A 
HETATM   26  H   UNL     1      37.950  -9.525  -2.092  1.00  0.00     0.169 HD
HETATM   27  C   UNL     1      39.448 -11.775  -2.892  1.00  0.00     0.030 A 
HETATM   28  C   UNL     1      40.075 -13.021  -2.967  1.00  0.00     0.002 A 
HETATM   29  C   UNL     1      40.088 -13.888  -1.860  1.00  0.00     0.001 A 
HETATM   30  C   UNL     1      39.489 -13.517  -0.650  1.00  0.00     0.016 A 
ENDBRANCH   2  19
TORSDOF 4
ENDMDL
MODEL 8
REMARK VINA RESULT:      -8.2      1.426      2.015
REMARK  4 active torsions:
REMARK  status: ('A' for Active; 'I' for Inactive)
REMARK    1  A    between atoms: O_2  and  C_3 
REMARK    2  A    between atoms: C_4  and  C_5 
REMARK    3  A    between atoms: C_9  and  C_10 
REMARK       I    between atoms: C_10  and  N_11 
REMARK    4  A    between atoms: N_11  and  N_12 
ROOT
HETATM    1  C   UNL     1      41.663 -12.034   5.448  1.00  0.00     0.289 C 
HETATM    2  N   UNL     1      41.466 -11.629   6.762  1.00  0.00    -0.241 N 
HETATM    3  O   UNL     1      41.677 -11.285   4.478  1.00  0.00    -0.264 OA
HETATM    4  H   UNL     1      41.263 -12.334   7.454  1.00  0.00     0.192 HD
ENDROOT
BRANCH   1   5
HETATM    5  C   UNL     1      41.863 -13.455   5.303  1.00  0.00     0.121 A 
HETATM    6  N   UNL     1      41.297 -14.355   6.162  1.00  0.00    -0.272 N 
HETATM    7  N   UNL     1      41.580 -15.636   5.881  1.00  0.00    -0.174 NA
HETATM    8  H   UNL     1      40.708 -14.143   6.963  1.00  0.00     0.189 HD
HETATM    9  C   UNL     1      42.339 -15.583   4.780  1.00  0.00     0.092 A 
HETATM   10  C   UNL     1      42.551 -14.231   4.390  1.00  0.00     0.071 A 
BRANCH   9  11
HETATM   11  C   UNL     1      42.871 -16.773   4.115  1.00  0.00     0.028 A 
HETATM   12  C   UNL     1      42.418 -17.236   2.868  1.00  0.00     0.080 A 
HETATM   13  C   UNL     1      42.952 -18.405   2.313  1.00  0.00     0.037 A 
HETATM   14  C   UNL     1      43.972 -19.100   2.964  1.00  0.00     0.003 A 
HETATM   15  C   UNL     1      44.447 -18.640   4.187  1.00  0.00     0.001 A 
HETATM   16  C   UNL     1      43.898 -17.491   4.761  1.00  0.00     0.017 A 
BRANCH  12  17
HETATM   17  O   UNL     1      41.427 -16.651   2.124  1.00  0.00    -0.355 OA
HETATM   18  C   UNL     1      41.916 -15.638   1.248  1.00  0.00     0.210 C 
ENDBRANCH  12  17
ENDBRANCH   9  11
ENDBRANCH   1   5
BRANCH   2  19
HETATM   19  N   UNL     1      41.141 -10.340   7.054  1.00  0.00    -0.165 NA
HETATM   20  C   UNL     1      42.062  -9.550   7.508  1.00  0.00     0.157 A 
HETATM   21  C   UNL     1      41.717  -8.146   8.050  1.00  0.00     0.277 A 
HETATM   22  C   UNL     1      43.517  -9.691   7.680  1.00  0.00     0.027 A 
HETATM   23  O   UNL     1      40.631  -7.612   8.043  1.00  0.00    -0.266 OA
HETATM   24  N   UNL     1      42.896  -7.651   8.558  1.00  0.00    -0.321 N 
HETATM   25  C   UNL     1      43.945  -8.536   8.341  1.00  0.00     0.048 A 
HETATM   26  H   UNL     1      42.964  -6.737   8.980  1.00  0.00     0.169 HD
HETATM   27  C   UNL     1      45.267  -8.332   8.679  1.00  0.00     0.030 A 
HETATM   28  C   UNL     1      46.185  -9.322   8.319  1.00  0.00     0.002 A 
HETATM   29  C   UNL     1      45.771 -10.468   7.619  1.00  0.00     0.001 A 
HETATM   30  C   UNL     1      44.425 -10.657   7.282  1.00  0.00     0.016 A 
ENDBRANCH   2  19
TORSDOF 4
ENDMDL
MODEL 9
REMARK VINA RESULT:      -8.1      2.191      2.792
REMARK  4 active torsions:
REMARK  status: ('A' for Active; 'I' for Inactive)
REMARK    1  A    between atoms: O_2  and  C_3 
REMARK    2  A    between atoms: C_4  and  C_5 
REMARK    3  A    between atoms: C_9  and  C_10 
REMARK       I    between atoms: C_10  and  N_11 
REMARK    4  A    between atoms: N_11  and  N_12 
ROOT
HETATM    1  C   UNL     1      39.945 -11.485   6.567  1.00  0.00     0.289 C 
HETATM    2  N   UNL     1      40.537 -10.490   7.333  1.00  0.00    -0.241 N 
HETATM    3  O   UNL     1      38.738 -11.612   6.392  1.00  0.00    -0.264 OA
HETATM    4  H   UNL     1      41.508 -10.595   7.585  1.00  0.00     0.192 HD
ENDROOT
BRANCH   1   5
HETATM    5  C   UNL     1      40.890 -12.393   5.963  1.00  0.00     0.121 A 
HETATM    6  N   UNL     1      42.178 -12.496   6.410  1.00  0.00    -0.272 N 
HETATM    7  N   UNL     1      42.921 -13.390   5.741  1.00  0.00    -0.174 NA
HETATM    8  H   UNL     1      42.601 -11.973   7.173  1.00  0.00     0.189 HD
HETATM    9  C   UNL     1      42.088 -13.915   4.835  1.00  0.00     0.092 A 
HETATM   10  C   UNL     1      40.805 -13.308   4.932  1.00  0.00     0.071 A 
BRANCH   9  11
HETATM   11  C   UNL     1      42.489 -14.953   3.884  1.00  0.00     0.028 A 
HETATM   12  C   UNL     1      42.403 -16.330   4.151  1.00  0.00     0.080 A 
HETATM   13  C   UNL     1      42.840 -17.263   3.203  1.00  0.00     0.037 A 
HETATM   14  C   UNL     1      43.324 -16.842   1.964  1.00  0.00     0.003 A 
HETATM   15  C   UNL     1      43.393 -15.484   1.676  1.00  0.00     0.001 A 
HETATM   16  C   UNL     1      42.985 -14.547   2.629  1.00  0.00     0.017 A 
BRANCH  12  17
HETATM   17  O   UNL     1      41.947 -16.876   5.324  1.00  0.00    -0.355 OA
HETATM   18  C   UNL     1      42.998 -17.383   6.144  1.00  0.00     0.210 C 
ENDBRANCH  12  17
ENDBRANCH   9  11
ENDBRANCH   1   5
BRANCH   2  19
HETATM   19  N   UNL     1      39.779  -9.631   8.068  1.00  0.00    -0.165 NA
HETATM   20  C   UNL     1      40.283  -9.119   9.147  1.00  0.00     0.157 A 
HETATM   21  C   UNL     1      39.412  -8.306  10.129  1.00  0.00     0.277 A 
HETATM   22  C   UNL     1      41.626  -9.152   9.748  1.00  0.00     0.027 A 
HETATM   23  O   UNL     1      38.252  -7.996   9.985  1.00  0.00    -0.266 OA
HETATM   24  N   UNL     1      40.229  -8.036  11.203  1.00  0.00    -0.321 N 
HETATM   25  C   UNL     1      41.515  -8.515  10.986  1.00  0.00     0.048 A 
HETATM   26  H   UNL     1      39.915  -7.509  12.004  1.00  0.00     0.169 HD
HETATM   27  C   UNL     1      42.592  -8.372  11.836  1.00  0.00     0.030 A 
HETATM   28  C   UNL     1      43.823  -8.875  11.408  1.00  0.00     0.002 A 
HETATM   29  C   UNL     1      43.954  -9.482  10.147  1.00  0.00     0.001 A 
HETATM   30  C   UNL     1      42.850  -9.615   9.296  1.00  0.00     0.016 A 
ENDBRANCH   2  19
TORSDOF 4
ENDMDL
MODEL 10
REMARK VINA RESULT:      -7.9      1.989      2.701
REMARK  4 active torsions:
REMARK  status: ('A' for Active; 'I' for Inactive)
REMARK    1  A    between atoms: O_2  and  C_3 
REMARK    2  A    between atoms: C_4  and  C_5 
REMARK    3  A    between atoms: C_9  and  C_10 
REMARK       I    between atoms: C_10  and  N_11 
REMARK    4  A    between atoms: N_11  and  N_12 
ROOT
HETATM    1  C   UNL     1      39.794 -11.513   6.500  1.00  0.00     0.289 C 
HETATM    2  N   UNL     1      40.831 -10.619   6.736  1.00  0.00    -0.241 N 
HETATM    3  O   UNL     1      38.707 -11.492   7.068  1.00  0.00    -0.264 OA
HETATM    4  H   UNL     1      41.747 -10.845   6.378  1.00  0.00     0.192 HD
ENDROOT
BRANCH   1   5
HETATM    5  C   UNL     1      40.097 -12.503   5.496  1.00  0.00     0.121 A 
HETATM    6  N   UNL     1      39.236 -12.775   4.470  1.00  0.00    -0.272 N 
HETATM    7  N   UNL     1      39.675 -13.719   3.622  1.00  0.00    -0.174 NA
HETATM    8  H   UNL     1      38.331 -12.344   4.304  1.00  0.00     0.189 HD
HETATM    9  C   UNL     1      40.880 -14.064   4.090  1.00  0.00     0.092 A 
HETATM   10  C   UNL     1      41.179 -13.332   5.273  1.00  0.00     0.071 A 
BRANCH   9  11
HETATM   11  C   UNL     1      41.729 -15.071   3.453  1.00  0.00     0.028 A 
HETATM   12  C   UNL     1      42.140 -15.008   2.110  1.00  0.00     0.080 A 
HETATM   13  C   UNL     1      42.923 -16.031   1.563  1.00  0.00     0.037 A 
HETATM   14  C   UNL     1      43.346 -17.101   2.351  1.00  0.00     0.003 A 
HETATM   15  C   UNL     1      42.967 -17.165   3.687  1.00  0.00     0.001 A 
HETATM   16  C   UNL     1      42.161 -16.163   4.232  1.00  0.00     0.017 A 
BRANCH  12  17
HETATM   17  O   UNL     1      41.798 -14.015   1.230  1.00  0.00    -0.355 OA
HETATM   18  C   UNL     1      40.794 -14.418   0.302  1.00  0.00     0.210 C 
ENDBRANCH  12  17
ENDBRANCH   9  11
ENDBRANCH   1   5
BRANCH   2  19
HETATM   19  N   UNL     1      40.749  -9.703   7.740  1.00  0.00    -0.165 NA
HETATM   20  C   UNL     1      41.808  -9.449   8.442  1.00  0.00     0.157 A 
HETATM   21  C   UNL     1      41.733  -8.580   9.716  1.00  0.00     0.277 A 
HETATM   22  C   UNL     1      43.218  -9.855   8.325  1.00  0.00     0.027 A 
HETATM   23  O   UNL     1      40.761  -8.001  10.144  1.00  0.00    -0.266 OA
HETATM   24  N   UNL     1      42.995  -8.629  10.265  1.00  0.00    -0.321 N 
HETATM   25  C   UNL     1      43.862  -9.359   9.461  1.00  0.00     0.048 A 
HETATM   26  H   UNL     1      43.235  -8.143  11.116  1.00  0.00     0.169 HD
HETATM   27  C   UNL     1      45.207  -9.564   9.690  1.00  0.00     0.030 A 
HETATM   28  C   UNL     1      45.924 -10.278   8.727  1.00  0.00     0.002 A 
HETATM   29  C   UNL     1      45.293 -10.747   7.561  1.00  0.00     0.001 A 
HETATM   30  C   UNL     1      43.928 -10.526   7.344  1.00  0.00     0.016 A 
ENDBRANCH   2  19
TORSDOF 4
ENDMDL
