MODEL 1
REMARK VINA RESULT:      -8.5      0.000      0.000
REMARK  5 active torsions:
REMARK  status: ('A' for Active; 'I' for Inactive)
REMARK    1  A    between atoms: C_7  and  C_8 
REMARK    2  A    between atoms: N_9  and  N_10 
REMARK       I    between atoms: N_10  and  C_11 
REMARK    3  A    between atoms: C_11  and  C_12 
REMARK    4  A    between atoms: C_12  and  N_13 
REMARK    5  A    between atoms: N_13  and  C_14 
ROOT
HETATM    1  N   UNL     1      41.531 -14.175   2.439  1.00  0.00    -0.246 N 
HETATM    2  C   UNL     1      40.436 -13.345   2.661  1.00  0.00     0.250 C 
HETATM    3  O   UNL     1      39.716 -13.352   3.658  1.00  0.00    -0.270 OA
HETATM    4  H   UNL     1      41.976 -14.156   1.525  1.00  0.00     0.192 HD
ENDROOT
BRANCH   1   5
HETATM    5  N   UNL     1      41.858 -15.287   3.179  1.00  0.00    -0.184 NA
HETATM    6  C   UNL     1      43.096 -15.664   3.233  1.00  0.00     0.153 C 
BRANCH   6   7
HETATM    7  C   UNL     1      43.482 -16.789   4.073  1.00  0.00     0.018 A 
HETATM    8  C   UNL     1      43.864 -16.758   5.409  1.00  0.00     0.018 A 
HETATM    9  C   UNL     1      43.993 -15.629   6.368  1.00  0.00     0.069 C 
HETATM   10  N   UNL     1      44.150 -18.046   5.791  1.00  0.00    -0.358 N 
HETATM   11  H   UNL     1      44.457 -18.323   6.713  1.00  0.00     0.166 HD
HETATM   12  C   UNL     1      43.969 -18.917   4.745  1.00  0.00     0.043 A 
HETATM   13  C   UNL     1      43.549 -18.161   3.652  1.00  0.00     0.004 A 
HETATM   14  C   UNL     1      44.150 -20.304   4.687  1.00  0.00     0.030 A 
HETATM   15  C   UNL     1      43.298 -18.831   2.434  1.00  0.00     0.014 A 
HETATM   16  C   UNL     1      43.474 -20.217   2.357  1.00  0.00     0.001 A 
HETATM   17  C   UNL     1      43.893 -20.942   3.470  1.00  0.00     0.002 A 
ENDBRANCH   6   7
ENDBRANCH   1   5
BRANCH   2  18
HETATM   18  C   UNL     1      40.191 -12.353   1.517  1.00  0.00     0.197 C 
BRANCH  18  19
HETATM   19  N   UNL     1      40.890 -12.762   0.295  1.00  0.00    -0.282 NA
HETATM   20  H   UNL     1      41.568 -13.504   0.496  1.00  0.00     0.128 HD
BRANCH  19  21
HETATM   21  C   UNL     1      40.125 -13.101  -0.833  1.00  0.00     0.047 A 
HETATM   22  C   UNL     1      39.646 -14.414  -0.984  1.00  0.00     0.137 A 
HETATM   23  F   UNL     1      39.866 -15.309  -0.007  1.00  0.00    -0.204 F 
HETATM   24  C   UNL     1      38.934 -14.816  -2.112  1.00  0.00     0.044 A 
HETATM   25  C   UNL     1      38.703 -13.904  -3.137  1.00  0.00     0.003 A 
HETATM   26  C   UNL     1      39.193 -12.603  -3.027  1.00  0.00     0.002 A 
HETATM   27  C   UNL     1      39.905 -12.208  -1.888  1.00  0.00     0.026 A 
ENDBRANCH  19  21
ENDBRANCH  18  19
ENDBRANCH   2  18
TORSDOF 5
ENDMDL
MODEL 2
REMARK VINA RESULT:      -8.4      1.474      1.691
REMARK  5 active torsions:
REMARK  status: ('A' for Active; 'I' for Inactive)
REMARK    1  A    between atoms: C_7  and  C_8 
REMARK    2  A    between atoms: N_9  and  N_10 
REMARK       I    between atoms: N_10  and  C_11 
REMARK    3  A    between atoms: C_11  and  C_12 
REMARK    4  A    between atoms: C_12  and  N_13 
REMARK    5  A    between atoms: N_13  and  C_14 
ROOT
HETATM    1  N   UNL     1      42.172 -14.183   1.172  1.00  0.00    -0.246 N 
HETATM    2  C   UNL     1      41.746 -12.904   1.521  1.00  0.00     0.250 C 
HETATM    3  O   UNL     1      42.101 -12.272   2.514  1.00  0.00    -0.270 OA
HETATM    4  H   UNL     1      41.717 -14.648   0.391  1.00  0.00     0.192 HD
ENDROOT
BRANCH   1   5
HETATM    5  N   UNL     1      42.876 -15.042   1.980  1.00  0.00    -0.184 NA
HETATM    6  C   UNL     1      42.240 -15.718   2.884  1.00  0.00     0.153 C 
BRANCH   6   7
HETATM    7  C   UNL     1      42.947 -16.695   3.700  1.00  0.00     0.018 A 
HETATM    8  C   UNL     1      43.513 -16.502   4.955  1.00  0.00     0.018 A 
HETATM    9  C   UNL     1      43.576 -15.301   5.829  1.00  0.00     0.069 C 
HETATM   10  N   UNL     1      44.083 -17.690   5.343  1.00  0.00    -0.358 N 
HETATM   11  H   UNL     1      44.570 -17.842   6.214  1.00  0.00     0.166 HD
HETATM   12  C   UNL     1      43.910 -18.653   4.379  1.00  0.00     0.043 A 
HETATM   13  C   UNL     1      43.199 -18.062   3.335  1.00  0.00     0.004 A 
HETATM   14  C   UNL     1      44.330 -19.988   4.354  1.00  0.00     0.030 A 
HETATM   15  C   UNL     1      42.895 -18.851   2.204  1.00  0.00     0.014 A 
HETATM   16  C   UNL     1      43.307 -20.188   2.162  1.00  0.00     0.001 A 
HETATM   17  C   UNL     1      44.014 -20.747   3.223  1.00  0.00     0.002 A 
ENDBRANCH   6   7
ENDBRANCH   1   5
BRANCH   2  18
HETATM   18  C   UNL     1      40.760 -12.300   0.512  1.00  0.00     0.197 C 
BRANCH  18  19
HETATM   19  N   UNL     1      39.520 -13.080   0.445  1.00  0.00    -0.282 NA
HETATM   20  H   UNL     1      38.774 -12.622   0.979  1.00  0.00     0.128 HD
BRANCH  19  21
HETATM   21  C   UNL     1      39.040 -13.468  -0.817  1.00  0.00     0.047 A 
HETATM   22  C   UNL     1      38.054 -12.698  -1.458  1.00  0.00     0.137 A 
HETATM   23  F   UNL     1      37.638 -11.557  -0.883  1.00  0.00    -0.204 F 
HETATM   24  C   UNL     1      37.503 -13.071  -2.681  1.00  0.00     0.044 A 
HETATM   25  C   UNL     1      37.919 -14.253  -3.287  1.00  0.00     0.003 A 
HETATM   26  C   UNL     1      38.873 -15.052  -2.660  1.00  0.00     0.002 A 
HETATM   27  C   UNL     1      39.423 -14.666  -1.431  1.00  0.00     0.026 A 
ENDBRANCH  19  21
ENDBRANCH  18  19
ENDBRANCH   2  18
TORSDOF 5
ENDMDL
MODEL 3
REMARK VINA RESULT:      -8.0      1.546      7.773
REMARK  5 active torsions:
REMARK  status: ('A' for Active; 'I' for Inactive)
REMARK    1  A    between atoms: C_7  and  C_8 
REMARK    2  A    between atoms: N_9  and  N_10 
REMARK       I    between atoms: N_10  and  C_11 
REMARK    3  A    between atoms: C_11  and  C_12 
REMARK    4  A    between atoms: C_12  and  N_13 
REMARK    5  A    between atoms: N_13  and  C_14 
ROOT
HETATM    1  N   UNL     1      40.746 -15.509   3.257  1.00  0.00    -0.246 N 
HETATM    2  C   UNL     1      41.597 -15.222   4.320  1.00  0.00     0.250 C 
HETATM    3  O   UNL     1      41.914 -14.098   4.706  1.00  0.00    -0.270 OA
HETATM    4  H   UNL     1      40.654 -16.477   2.958  1.00  0.00     0.192 HD
ENDROOT
BRANCH   1   5
HETATM    5  N   UNL     1      40.297 -14.608   2.321  1.00  0.00    -0.184 NA
HETATM    6  C   UNL     1      41.068 -14.298   1.327  1.00  0.00     0.153 C 
BRANCH   6   7
HETATM    7  C   UNL     1      40.588 -13.409   0.279  1.00  0.00     0.018 A 
HETATM    8  C   UNL     1      40.723 -12.027   0.211  1.00  0.00     0.018 A 
HETATM    9  C   UNL     1      41.370 -11.058   1.134  1.00  0.00     0.069 C 
HETATM   10  N   UNL     1      40.113 -11.604  -0.944  1.00  0.00    -0.358 N 
HETATM   11  H   UNL     1      40.054 -10.644  -1.251  1.00  0.00     0.166 HD
HETATM   12  C   UNL     1      39.581 -12.667  -1.632  1.00  0.00     0.043 A 
HETATM   13  C   UNL     1      39.862 -13.815  -0.893  1.00  0.00     0.004 A 
HETATM   14  C   UNL     1      38.874 -12.694  -2.840  1.00  0.00     0.030 A 
HETATM   15  C   UNL     1      39.409 -15.057  -1.389  1.00  0.00     0.014 A 
HETATM   16  C   UNL     1      38.700 -15.103  -2.596  1.00  0.00     0.001 A 
HETATM   17  C   UNL     1      38.438 -13.936  -3.310  1.00  0.00     0.002 A 
ENDBRANCH   6   7
ENDBRANCH   1   5
BRANCH   2  18
HETATM   18  C   UNL     1      42.127 -16.476   5.025  1.00  0.00     0.197 C 
BRANCH  18  19
HETATM   19  N   UNL     1      43.445 -16.863   4.511  1.00  0.00    -0.282 NA
HETATM   20  H   UNL     1      44.182 -16.614   5.179  1.00  0.00     0.128 HD
BRANCH  19  21
HETATM   21  C   UNL     1      43.628 -18.180   4.060  1.00  0.00     0.047 A 
HETATM   22  C   UNL     1      43.320 -18.512   2.729  1.00  0.00     0.137 A 
HETATM   23  F   UNL     1      42.922 -17.544   1.887  1.00  0.00    -0.204 F 
HETATM   24  C   UNL     1      43.427 -19.815   2.248  1.00  0.00     0.044 A 
HETATM   25  C   UNL     1      43.830 -20.831   3.109  1.00  0.00     0.003 A 
HETATM   26  C   UNL     1      44.114 -20.536   4.442  1.00  0.00     0.002 A 
HETATM   27  C   UNL     1      44.006 -19.222   4.915  1.00  0.00     0.026 A 
ENDBRANCH  19  21
ENDBRANCH  18  19
ENDBRANCH   2  18
TORSDOF 5
ENDMDL
MODEL 4
REMARK VINA RESULT:      -7.8      5.456      8.471
REMARK  5 active torsions:
REMARK  status: ('A' for Active; 'I' for Inactive)
REMARK    1  A    between atoms: C_7  and  C_8 
REMARK    2  A    between atoms: N_9  and  N_10 
REMARK       I    between atoms: N_10  and  C_11 
REMARK    3  A    between atoms: C_11  and  C_12 
REMARK    4  A    between atoms: C_12  and  N_13 
REMARK    5  A    between atoms: N_13  and  C_14 
ROOT
HETATM    1  N   UNL     1      43.993 -12.872   6.895  1.00  0.00    -0.246 N 
HETATM    2  C   UNL     1      43.778 -11.502   7.020  1.00  0.00     0.250 C 
HETATM    3  O   UNL     1      43.125 -10.801   6.249  1.00  0.00    -0.270 OA
HETATM    4  H   UNL     1      44.649 -13.319   7.530  1.00  0.00     0.192 HD
ENDROOT
BRANCH   1   5
HETATM    5  N   UNL     1      43.710 -13.630   5.784  1.00  0.00    -0.184 NA
HETATM    6  C   UNL     1      42.797 -14.546   5.864  1.00  0.00     0.153 C 
BRANCH   6   7
HETATM    7  C   UNL     1      42.420 -15.309   4.683  1.00  0.00     0.018 A 
HETATM    8  C   UNL     1      41.425 -15.008   3.761  1.00  0.00     0.018 A 
HETATM    9  C   UNL     1      40.474 -13.868   3.680  1.00  0.00     0.069 C 
HETATM   10  N   UNL     1      41.413 -16.006   2.818  1.00  0.00    -0.358 N 
HETATM   11  H   UNL     1      40.787 -16.050   2.027  1.00  0.00     0.166 HD
HETATM   12  C   UNL     1      42.368 -16.953   3.098  1.00  0.00     0.043 A 
HETATM   13  C   UNL     1      43.019 -16.545   4.261  1.00  0.00     0.004 A 
HETATM   14  C   UNL     1      42.696 -18.130   2.415  1.00  0.00     0.030 A 
HETATM   15  C   UNL     1      44.053 -17.362   4.769  1.00  0.00     0.014 A 
HETATM   16  C   UNL     1      44.395 -18.543   4.100  1.00  0.00     0.001 A 
HETATM   17  C   UNL     1      43.724 -18.919   2.939  1.00  0.00     0.002 A 
ENDBRANCH   6   7
ENDBRANCH   1   5
BRANCH   2  18
HETATM   18  C   UNL     1      44.437 -10.899   8.267  1.00  0.00     0.197 C 
BRANCH  18  19
HETATM   19  N   UNL     1      43.628 -11.139   9.468  1.00  0.00    -0.282 NA
HETATM   20  H   UNL     1      44.063 -11.853  10.062  1.00  0.00     0.128 HD
BRANCH  19  21
HETATM   21  C   UNL     1      43.240 -10.035  10.245  1.00  0.00     0.047 A 
HETATM   22  C   UNL     1      42.179  -9.219   9.819  1.00  0.00     0.137 A 
HETATM   23  F   UNL     1      41.501  -9.551   8.707  1.00  0.00    -0.204 F 
HETATM   24  C   UNL     1      41.793  -8.080  10.522  1.00  0.00     0.044 A 
HETATM   25  C   UNL     1      42.489  -7.717  11.671  1.00  0.00     0.003 A 
HETATM   26  C   UNL     1      43.565  -8.492  12.101  1.00  0.00     0.002 A 
HETATM   27  C   UNL     1      43.943  -9.637  11.389  1.00  0.00     0.026 A 
ENDBRANCH  19  21
ENDBRANCH  18  19
ENDBRANCH   2  18
TORSDOF 5
ENDMDL
MODEL 5
REMARK VINA RESULT:      -7.7      4.086      6.941
REMARK  5 active torsions:
REMARK  status: ('A' for Active; 'I' for Inactive)
REMARK    1  A    between atoms: C_7  and  C_8 
REMARK    2  A    between atoms: N_9  and  N_10 
REMARK       I    between atoms: N_10  and  C_11 
REMARK    3  A    between atoms: C_11  and  C_12 
REMARK    4  A    between atoms: C_12  and  N_13 
REMARK    5  A    between atoms: N_13  and  C_14 
ROOT
HETATM    1  N   UNL     1      41.876 -13.990   5.834  1.00  0.00    -0.246 N 
HETATM    2  C   UNL     1      41.622 -12.744   5.266  1.00  0.00     0.250 C 
HETATM    3  O   UNL     1      41.281 -12.538   4.102  1.00  0.00    -0.270 OA
HETATM    4  H   UNL     1      42.266 -14.024   6.772  1.00  0.00     0.192 HD
ENDROOT
BRANCH   1   5
HETATM    5  N   UNL     1      42.011 -15.172   5.146  1.00  0.00    -0.184 NA
HETATM    6  C   UNL     1      43.146 -15.446   4.584  1.00  0.00     0.153 C 
BRANCH   6   7
HETATM    7  C   UNL     1      43.344 -16.726   3.919  1.00  0.00     0.018 A 
HETATM    8  C   UNL     1      43.379 -16.974   2.552  1.00  0.00     0.018 A 
HETATM    9  C   UNL     1      43.238 -16.064   1.384  1.00  0.00     0.069 C 
HETATM   10  N   UNL     1      43.578 -18.322   2.377  1.00  0.00    -0.358 N 
HETATM   11  H   UNL     1      43.643 -18.788   1.484  1.00  0.00     0.166 HD
HETATM   12  C   UNL     1      43.671 -18.962   3.589  1.00  0.00     0.043 A 
HETATM   13  C   UNL     1      43.530 -17.989   4.577  1.00  0.00     0.004 A 
HETATM   14  C   UNL     1      43.864 -20.318   3.878  1.00  0.00     0.030 A 
HETATM   15  C   UNL     1      43.582 -18.397   5.928  1.00  0.00     0.014 A 
HETATM   16  C   UNL     1      43.774 -19.749   6.236  1.00  0.00     0.001 A 
HETATM   17  C   UNL     1      43.913 -20.695   5.223  1.00  0.00     0.002 A 
ENDBRANCH   6   7
ENDBRANCH   1   5
BRANCH   2  18
HETATM   18  C   UNL     1      41.790 -11.585   6.256  1.00  0.00     0.197 C 
BRANCH  18  19
HETATM   19  N   UNL     1      43.042 -10.857   6.020  1.00  0.00    -0.282 NA
HETATM   20  H   UNL     1      42.888 -10.069   5.383  1.00  0.00     0.128 HD
BRANCH  19  21
HETATM   21  C   UNL     1      43.794 -10.440   7.131  1.00  0.00     0.047 A 
HETATM   22  C   UNL     1      45.079 -10.968   7.342  1.00  0.00     0.137 A 
HETATM   23  F   UNL     1      45.600 -11.810   6.435  1.00  0.00    -0.204 F 
HETATM   24  C   UNL     1      45.841 -10.632   8.459  1.00  0.00     0.044 A 
HETATM   25  C   UNL     1      45.315  -9.766   9.412  1.00  0.00     0.003 A 
HETATM   26  C   UNL     1      44.030  -9.251   9.243  1.00  0.00     0.002 A 
HETATM   27  C   UNL     1      43.273  -9.592   8.115  1.00  0.00     0.026 A 
ENDBRANCH  19  21
ENDBRANCH  18  19
ENDBRANCH   2  18
TORSDOF 5
ENDMDL
MODEL 6
REMARK VINA RESULT:      -7.5      4.939      7.782
REMARK  5 active torsions:
REMARK  status: ('A' for Active; 'I' for Inactive)
REMARK    1  A    between atoms: C_7  and  C_8 
REMARK    2  A    between atoms: N_9  and  N_10 
REMARK       I    between atoms: N_10  and  C_11 
REMARK    3  A    between atoms: C_11  and  C_12 
REMARK    4  A    between atoms: C_12  and  N_13 
REMARK    5  A    between atoms: N_13  and  C_14 
ROOT
HETATM    1  N   UNL     1      41.781 -12.171   6.496  1.00  0.00    -0.246 N 
HETATM    2  C   UNL     1      41.818 -10.987   5.764  1.00  0.00     0.250 C 
HETATM    3  O   UNL     1      41.786 -10.896   4.537  1.00  0.00    -0.270 OA
HETATM    4  H   UNL     1      41.934 -12.125   7.499  1.00  0.00     0.192 HD
ENDROOT
BRANCH   1   5
HETATM    5  N   UNL     1      41.930 -13.437   5.982  1.00  0.00    -0.184 NA
HETATM    6  C   UNL     1      43.106 -13.981   5.983  1.00  0.00     0.153 C 
BRANCH   6   7
HETATM    7  C   UNL     1      43.279 -15.350   5.520  1.00  0.00     0.018 A 
HETATM    8  C   UNL     1      43.546 -16.478   6.287  1.00  0.00     0.018 A 
HETATM    9  C   UNL     1      43.728 -16.648   7.753  1.00  0.00     0.069 C 
HETATM   10  N   UNL     1      43.639 -17.551   5.435  1.00  0.00    -0.358 N 
HETATM   11  H   UNL     1      43.830 -18.502   5.717  1.00  0.00     0.166 HD
HETATM   12  C   UNL     1      43.445 -17.158   4.133  1.00  0.00     0.043 A 
HETATM   13  C   UNL     1      43.215 -15.783   4.151  1.00  0.00     0.004 A 
HETATM   14  C   UNL     1      43.461 -17.912   2.953  1.00  0.00     0.030 A 
HETATM   15  C   UNL     1      42.991 -15.128   2.921  1.00  0.00     0.014 A 
HETATM   16  C   UNL     1      43.003 -15.865   1.731  1.00  0.00     0.001 A 
HETATM   17  C   UNL     1      43.234 -17.238   1.750  1.00  0.00     0.002 A 
ENDBRANCH   6   7
ENDBRANCH   1   5
BRANCH   2  18
HETATM   18  C   UNL     1      41.889  -9.735   6.646  1.00  0.00     0.197 C 
BRANCH  18  19
HETATM   19  N   UNL     1      41.953 -10.086   8.069  1.00  0.00    -0.282 NA
HETATM   20  H   UNL     1      41.569 -11.024   8.229  1.00  0.00     0.128 HD
BRANCH  19  21
HETATM   21  C   UNL     1      43.179  -9.946   8.739  1.00  0.00     0.047 A 
HETATM   22  C   UNL     1      43.206  -9.886  10.143  1.00  0.00     0.137 A 
HETATM   23  F   UNL     1      42.061 -10.039  10.827  1.00  0.00    -0.204 F 
HETATM   24  C   UNL     1      44.388  -9.689  10.852  1.00  0.00     0.044 A 
HETATM   25  C   UNL     1      45.583  -9.521  10.158  1.00  0.00     0.003 A 
HETATM   26  C   UNL     1      45.581  -9.546   8.764  1.00  0.00     0.002 A 
HETATM   27  C   UNL     1      44.388  -9.748   8.061  1.00  0.00     0.026 A 
ENDBRANCH  19  21
ENDBRANCH  18  19
ENDBRANCH   2  18
TORSDOF 5
ENDMDL
MODEL 7
REMARK VINA RESULT:      -7.4      1.771      8.444
REMARK  5 active torsions:
REMARK  status: ('A' for Active; 'I' for Inactive)
REMARK    1  A    between atoms: C_7  and  C_8 
REMARK    2  A    between atoms: N_9  and  N_10 
REMARK       I    between atoms: N_10  and  C_11 
REMARK    3  A    between atoms: C_11  and  C_12 
REMARK    4  A    between atoms: C_12  and  N_13 
REMARK    5  A    between atoms: N_13  and  C_14 
ROOT
HETATM    1  N   UNL     1      40.330 -14.803   2.030  1.00  0.00    -0.246 N 
HETATM    2  C   UNL     1      40.468 -14.404   3.357  1.00  0.00     0.250 C 
HETATM    3  O   UNL     1      40.124 -13.318   3.823  1.00  0.00    -0.270 OA
HETATM    4  H   UNL     1      40.760 -15.677   1.741  1.00  0.00     0.192 HD
ENDROOT
BRANCH   1   5
HETATM    5  N   UNL     1      40.002 -13.984   0.976  1.00  0.00    -0.184 NA
HETATM    6  C   UNL     1      40.381 -14.314  -0.218  1.00  0.00     0.153 C 
BRANCH   6   7
HETATM    7  C   UNL     1      39.980 -13.509  -1.362  1.00  0.00     0.018 A 
HETATM    8  C   UNL     1      39.221 -13.909  -2.456  1.00  0.00     0.018 A 
HETATM    9  C   UNL     1      38.602 -15.217  -2.796  1.00  0.00     0.069 C 
HETATM   10  N   UNL     1      39.097 -12.829  -3.295  1.00  0.00    -0.358 N 
HETATM   11  H   UNL     1      38.597 -12.830  -4.173  1.00  0.00     0.166 HD
HETATM   12  C   UNL     1      39.753 -11.736  -2.784  1.00  0.00     0.043 A 
HETATM   13  C   UNL     1      40.317 -12.128  -1.571  1.00  0.00     0.004 A 
HETATM   14  C   UNL     1      39.891 -10.444  -3.305  1.00  0.00     0.030 A 
HETATM   15  C   UNL     1      41.062 -11.175  -0.841  1.00  0.00     0.014 A 
HETATM   16  C   UNL     1      41.210  -9.878  -1.347  1.00  0.00     0.001 A 
HETATM   17  C   UNL     1      40.631  -9.520  -2.562  1.00  0.00     0.002 A 
ENDBRANCH   6   7
ENDBRANCH   1   5
BRANCH   2  18
HETATM   18  C   UNL     1      41.097 -15.481   4.249  1.00  0.00     0.197 C 
BRANCH  18  19
HETATM   19  N   UNL     1      42.538 -15.603   4.005  1.00  0.00    -0.282 NA
HETATM   20  H   UNL     1      43.067 -15.011   4.655  1.00  0.00     0.128 HD
BRANCH  19  21
HETATM   21  C   UNL     1      43.103 -16.888   3.954  1.00  0.00     0.047 A 
HETATM   22  C   UNL     1      43.175 -17.571   2.729  1.00  0.00     0.137 A 
HETATM   23  F   UNL     1      42.769 -16.953   1.608  1.00  0.00    -0.204 F 
HETATM   24  C   UNL     1      43.671 -18.870   2.634  1.00  0.00     0.044 A 
HETATM   25  C   UNL     1      44.090 -19.528   3.786  1.00  0.00     0.003 A 
HETATM   26  C   UNL     1      44.001 -18.885   5.020  1.00  0.00     0.002 A 
HETATM   27  C   UNL     1      43.504 -17.578   5.104  1.00  0.00     0.026 A 
ENDBRANCH  19  21
ENDBRANCH  18  19
ENDBRANCH   2  18
TORSDOF 5
ENDMDL
MODEL 8
REMARK VINA RESULT:      -7.4      4.676      7.657
REMARK  5 active torsions:
REMARK  status: ('A' for Active; 'I' for Inactive)
REMARK    1  A    between atoms: C_7  and  C_8 
REMARK    2  A    between atoms: N_9  and  N_10 
REMARK       I    between atoms: N_10  and  C_11 
REMARK    3  A    between atoms: C_11  and  C_12 
REMARK    4  A    between atoms: C_12  and  N_13 
REMARK    5  A    between atoms: N_13  and  C_14 
ROOT
HETATM    1  N   UNL     1      41.410 -11.566   6.257  1.00  0.00    -0.246 N 
HETATM    2  C   UNL     1      41.017 -10.233   6.335  1.00  0.00     0.250 C 
HETATM    3  O   UNL     1      40.418  -9.605   5.462  1.00  0.00    -0.270 OA
HETATM    4  H   UNL     1      42.003 -11.939   6.993  1.00  0.00     0.192 HD
ENDROOT
BRANCH   1   5
HETATM    5  N   UNL     1      41.403 -12.340   5.121  1.00  0.00    -0.184 NA
HETATM    6  C   UNL     1      42.528 -12.772   4.648  1.00  0.00     0.153 C 
BRANCH   6   7
HETATM    7  C   UNL     1      42.545 -13.659   3.494  1.00  0.00     0.018 A 
HETATM    8  C   UNL     1      42.207 -13.351   2.181  1.00  0.00     0.018 A 
HETATM    9  C   UNL     1      41.747 -12.082   1.558  1.00  0.00     0.069 C 
HETATM   10  N   UNL     1      42.359 -14.491   1.432  1.00  0.00    -0.358 N 
HETATM   11  H   UNL     1      42.181 -14.562   0.440  1.00  0.00     0.166 HD
HETATM   12  C   UNL     1      42.783 -15.537   2.215  1.00  0.00     0.043 A 
HETATM   13  C   UNL     1      42.911 -15.048   3.514  1.00  0.00     0.004 A 
HETATM   14  C   UNL     1      43.055 -16.866   1.871  1.00  0.00     0.030 A 
HETATM   15  C   UNL     1      43.332 -15.941   4.525  1.00  0.00     0.014 A 
HETATM   16  C   UNL     1      43.609 -17.274   4.199  1.00  0.00     0.001 A 
HETATM   17  C   UNL     1      43.472 -17.728   2.890  1.00  0.00     0.002 A 
ENDBRANCH   6   7
ENDBRANCH   1   5
BRANCH   2  18
HETATM   18  C   UNL     1      41.389  -9.570   7.667  1.00  0.00     0.197 C 
BRANCH  18  19
HETATM   19  N   UNL     1      42.404 -10.349   8.386  1.00  0.00    -0.282 NA
HETATM   20  H   UNL     1      42.275 -11.353   8.220  1.00  0.00     0.128 HD
BRANCH  19  21
HETATM   21  C   UNL     1      43.755 -10.002   8.222  1.00  0.00     0.047 A 
HETATM   22  C   UNL     1      44.679 -10.972   7.797  1.00  0.00     0.137 A 
HETATM   23  F   UNL     1      44.240 -12.202   7.483  1.00  0.00    -0.204 F 
HETATM   24  C   UNL     1      46.039 -10.696   7.676  1.00  0.00     0.044 A 
HETATM   25  C   UNL     1      46.511  -9.429   8.004  1.00  0.00     0.003 A 
HETATM   26  C   UNL     1      45.621  -8.456   8.457  1.00  0.00     0.002 A 
HETATM   27  C   UNL     1      44.255  -8.743   8.573  1.00  0.00     0.026 A 
ENDBRANCH  19  21
ENDBRANCH  18  19
ENDBRANCH   2  18
TORSDOF 5
ENDMDL
MODEL 9
REMARK VINA RESULT:      -7.1     14.273     16.286
REMARK  5 active torsions:
REMARK  status: ('A' for Active; 'I' for Inactive)
REMARK    1  A    between atoms: C_7  and  C_8 
REMARK    2  A    between atoms: N_9  and  N_10 
REMARK       I    between atoms: N_10  and  C_11 
REMARK    3  A    between atoms: C_11  and  C_12 
REMARK    4  A    between atoms: C_12  and  N_13 
REMARK    5  A    between atoms: N_13  and  C_14 
ROOT
HETATM    1  N   UNL     1      43.551 -30.595   3.502  1.00  0.00    -0.246 N 
HETATM    2  C   UNL     1      42.169 -30.574   3.336  1.00  0.00     0.250 C 
HETATM    3  O   UNL     1      41.572 -30.470   2.265  1.00  0.00    -0.270 OA
HETATM    4  H   UNL     1      43.925 -30.565   4.446  1.00  0.00     0.192 HD
ENDROOT
BRANCH   1   5
HETATM    5  N   UNL     1      44.479 -30.278   2.539  1.00  0.00    -0.184 NA
HETATM    6  C   UNL     1      45.093 -29.140   2.609  1.00  0.00     0.153 C 
BRANCH   6   7
HETATM    7  C   UNL     1      46.139 -28.812   1.650  1.00  0.00     0.018 A 
HETATM    8  C   UNL     1      47.493 -28.627   1.902  1.00  0.00     0.018 A 
HETATM    9  C   UNL     1      48.276 -28.702   3.163  1.00  0.00     0.069 C 
HETATM   10  N   UNL     1      48.102 -28.324   0.709  1.00  0.00    -0.358 N 
HETATM   11  H   UNL     1      49.087 -28.135   0.592  1.00  0.00     0.166 HD
HETATM   12  C   UNL     1      47.186 -28.302  -0.315  1.00  0.00     0.043 A 
HETATM   13  C   UNL     1      45.945 -28.606   0.241  1.00  0.00     0.004 A 
HETATM   14  C   UNL     1      47.365 -28.034  -1.677  1.00  0.00     0.030 A 
HETATM   15  C   UNL     1      44.821 -28.641  -0.613  1.00  0.00     0.014 A 
HETATM   16  C   UNL     1      44.981 -28.375  -1.978  1.00  0.00     0.001 A 
HETATM   17  C   UNL     1      46.237 -28.076  -2.501  1.00  0.00     0.002 A 
ENDBRANCH   6   7
ENDBRANCH   1   5
BRANCH   2  18
HETATM   18  C   UNL     1      41.401 -30.716   4.656  1.00  0.00     0.197 C 
BRANCH  18  19
HETATM   19  N   UNL     1      40.046 -31.234   4.434  1.00  0.00    -0.282 NA
HETATM   20  H   UNL     1      39.958 -31.624   3.489  1.00  0.00     0.128 HD
BRANCH  19  21
HETATM   21  C   UNL     1      39.506 -32.124   5.376  1.00  0.00     0.047 A 
HETATM   22  C   UNL     1      38.484 -33.010   4.996  1.00  0.00     0.137 A 
HETATM   23  F   UNL     1      38.089 -33.042   3.713  1.00  0.00    -0.204 F 
HETATM   24  C   UNL     1      37.874 -33.870   5.906  1.00  0.00     0.044 A 
HETATM   25  C   UNL     1      38.267 -33.845   7.241  1.00  0.00     0.003 A 
HETATM   26  C   UNL     1      39.258 -32.954   7.652  1.00  0.00     0.002 A 
HETATM   27  C   UNL     1      39.867 -32.095   6.729  1.00  0.00     0.026 A 
ENDBRANCH  19  21
ENDBRANCH  18  19
ENDBRANCH   2  18
TORSDOF 5
ENDMDL
MODEL 10
REMARK VINA RESULT:      -7.1      5.974      8.229
REMARK  5 active torsions:
REMARK  status: ('A' for Active; 'I' for Inactive)
REMARK    1  A    between atoms: C_7  and  C_8 
REMARK    2  A    between atoms: N_9  and  N_10 
REMARK       I    between atoms: N_10  and  C_11 
REMARK    3  A    between atoms: C_11  and  C_12 
REMARK    4  A    between atoms: C_12  and  N_13 
REMARK    5  A    between atoms: N_13  and  C_14 
ROOT
HETATM    1  N   UNL     1      42.922 -12.526   6.758  1.00  0.00    -0.246 N 
HETATM    2  C   UNL     1      43.794 -11.587   7.302  1.00  0.00     0.250 C 
HETATM    3  O   UNL     1      44.961 -11.794   7.634  1.00  0.00    -0.270 OA
HETATM    4  H   UNL     1      41.947 -12.267   6.635  1.00  0.00     0.192 HD
ENDROOT
BRANCH   1   5
HETATM    5  N   UNL     1      43.133 -13.884   6.709  1.00  0.00    -0.184 NA
HETATM    6  C   UNL     1      43.050 -14.491   5.568  1.00  0.00     0.153 C 
BRANCH   6   7
HETATM    7  C   UNL     1      43.349 -15.913   5.472  1.00  0.00     0.018 A 
HETATM    8  C   UNL     1      43.714 -16.774   6.500  1.00  0.00     0.018 A 
HETATM    9  C   UNL     1      43.904 -16.540   7.956  1.00  0.00     0.069 C 
HETATM   10  N   UNL     1      43.906 -18.019   5.953  1.00  0.00    -0.358 N 
HETATM   11  H   UNL     1      44.182 -18.843   6.469  1.00  0.00     0.166 HD
HETATM   12  C   UNL     1      43.682 -17.997   4.599  1.00  0.00     0.043 A 
HETATM   13  C   UNL     1      43.329 -16.691   4.264  1.00  0.00     0.004 A 
HETATM   14  C   UNL     1      43.770 -19.027   3.655  1.00  0.00     0.030 A 
HETATM   15  C   UNL     1      43.051 -16.400   2.911  1.00  0.00     0.014 A 
HETATM   16  C   UNL     1      43.134 -17.418   1.953  1.00  0.00     0.001 A 
HETATM   17  C   UNL     1      43.488 -18.713   2.323  1.00  0.00     0.002 A 
ENDBRANCH   6   7
ENDBRANCH   1   5
BRANCH   2  18
HETATM   18  C   UNL     1      43.167 -10.196   7.450  1.00  0.00     0.197 C 
BRANCH  18  19
HETATM   19  N   UNL     1      42.456 -10.063   8.727  1.00  0.00    -0.282 NA
HETATM   20  H   UNL     1      42.676 -10.848   9.348  1.00  0.00     0.128 HD
BRANCH  19  21
HETATM   21  C   UNL     1      42.559  -8.850   9.427  1.00  0.00     0.047 A 
HETATM   22  C   UNL     1      41.978  -8.727  10.701  1.00  0.00     0.137 A 
HETATM   23  F   UNL     1      41.395  -9.799  11.262  1.00  0.00    -0.204 F 
HETATM   24  C   UNL     1      42.000  -7.529  11.411  1.00  0.00     0.044 A 
HETATM   25  C   UNL     1      42.593  -6.406  10.842  1.00  0.00     0.003 A 
HETATM   26  C   UNL     1      43.151  -6.492   9.567  1.00  0.00     0.002 A 
HETATM   27  C   UNL     1      43.126  -7.701   8.862  1.00  0.00     0.026 A 
ENDBRANCH  19  21
ENDBRANCH  18  19
ENDBRANCH   2  18
TORSDOF 5
ENDMDL
