MODEL 1
REMARK VINA RESULT:      -7.9      0.000      0.000
REMARK  6 active torsions:
REMARK  status: ('A' for Active; 'I' for Inactive)
REMARK    1  A    between atoms: C_2  and  N_3 
REMARK    2  A    between atoms: N_3  and  C_5 
REMARK    3  A    between atoms: C_5  and  C_6 
REMARK    4  A    between atoms: C_6  and  N_7 
REMARK       I    between atoms: N_7  and  C_8 
REMARK    5  A    between atoms: C_8  and  C_9 
REMARK    6  A    between atoms: C_10  and  C_11 
ROOT
HETATM    1  N   UNL     1      41.780 -14.592   5.052  1.00  0.00    -0.354 N 
HETATM    2  C   UNL     1      41.507 -15.775   5.716  1.00  0.00     0.255 C 
HETATM    3  O   UNL     1      40.518 -16.438   5.422  1.00  0.00    -0.268 OA
HETATM    4  H   UNL     1      42.601 -14.064   5.318  1.00  0.00     0.162 HD
ENDROOT
BRANCH   2   5
HETATM    5  C   UNL     1      42.478 -16.164   6.730  1.00  0.00     0.080 A 
HETATM    6  C   UNL     1      43.350 -17.306   6.760  1.00  0.00     0.104 A 
HETATM    7  N   UNL     1      44.069 -17.328   7.895  1.00  0.00    -0.174 NA
HETATM    8  N   UNL     1      43.689 -16.245   8.571  1.00  0.00    -0.288 N 
HETATM    9  H   UNL     1      44.114 -16.074   9.477  1.00  0.00     0.188 HD
HETATM   10  C   UNL     1      42.745 -15.508   7.923  1.00  0.00     0.128 A 
BRANCH   6  11
HETATM   11  C   UNL     1      43.546 -18.376   5.777  1.00  0.00    -0.002 A 
HETATM   12  C   UNL     1      43.776 -18.097   4.427  1.00  0.00     0.056 A 
HETATM   13  C   UNL     1      43.982 -19.141   3.530  1.00  0.00     0.117 A 
HETATM   14  F   UNL     1      44.191 -18.858   2.236  1.00  0.00    -0.206 F 
HETATM   15  C   UNL     1      43.983 -20.467   3.948  1.00  0.00     0.042 A 
HETATM   16  C   UNL     1      43.775 -20.757   5.293  1.00  0.00     0.004 A 
HETATM   17  C   UNL     1      43.560 -19.717   6.202  1.00  0.00     0.014 A 
ENDBRANCH   6  11
ENDBRANCH   2   5
BRANCH   1  18
HETATM   18  C   UNL     1      40.878 -14.057   4.054  1.00  0.00     0.162 C 
BRANCH  18  19
HETATM   19  C   UNL     1      41.339 -14.148   2.562  1.00  0.00     0.143 C 
HETATM   20  C   UNL     1      40.237 -14.513   1.542  1.00  0.00     0.041 C 
HETATM   21  C   UNL     1      40.147 -16.034   1.507  1.00  0.00     0.003 C 
HETATM   22  C   UNL     1      41.472 -16.546   2.053  1.00  0.00     0.003 C 
HETATM   23  C   UNL     1      42.327 -15.310   2.325  1.00  0.00     0.041 C 
BRANCH  19  24
HETATM   24  N   UNL     1      42.000 -12.792   2.121  1.00  0.00    -0.065 N 
HETATM   25  H   UNL     1      42.898 -13.040   1.683  1.00  0.00     0.280 HD
HETATM   26  C   UNL     1      41.216 -12.083   1.016  1.00  0.00     0.270 C 
BRANCH  24  27
HETATM   27  C   UNL     1      42.321 -11.764   3.200  1.00  0.00     0.231 C 
HETATM   28  C   UNL     1      43.785 -11.729   3.581  1.00  0.00     0.034 C 
ENDBRANCH  24  27
ENDBRANCH  19  24
ENDBRANCH  18  19
ENDBRANCH   1  18
TORSDOF 6
ENDMDL
MODEL 2
REMARK VINA RESULT:      -7.9      1.152      2.180
REMARK  6 active torsions:
REMARK  status: ('A' for Active; 'I' for Inactive)
REMARK    1  A    between atoms: C_2  and  N_3 
REMARK    2  A    between atoms: N_3  and  C_5 
REMARK    3  A    between atoms: C_5  and  C_6 
REMARK    4  A    between atoms: C_6  and  N_7 
REMARK       I    between atoms: N_7  and  C_8 
REMARK    5  A    between atoms: C_8  and  C_9 
REMARK    6  A    between atoms: C_10  and  C_11 
ROOT
HETATM    1  N   UNL     1      41.403 -14.892   4.604  1.00  0.00    -0.354 N 
HETATM    2  C   UNL     1      41.201 -15.988   5.423  1.00  0.00     0.255 C 
HETATM    3  O   UNL     1      40.236 -16.725   5.248  1.00  0.00    -0.268 OA
HETATM    4  H   UNL     1      42.205 -14.300   4.775  1.00  0.00     0.162 HD
ENDROOT
BRANCH   2   5
HETATM    5  C   UNL     1      42.212 -16.200   6.450  1.00  0.00     0.080 A 
HETATM    6  C   UNL     1      43.180 -17.257   6.567  1.00  0.00     0.104 A 
HETATM    7  N   UNL     1      43.909 -17.115   7.686  1.00  0.00    -0.174 NA
HETATM    8  N   UNL     1      43.445 -16.011   8.268  1.00  0.00    -0.288 N 
HETATM    9  H   UNL     1      43.864 -15.723   9.148  1.00  0.00     0.188 HD
HETATM   10  C   UNL     1      42.435 -15.418   7.574  1.00  0.00     0.128 A 
BRANCH   6  11
HETATM   11  C   UNL     1      43.456 -18.391   5.681  1.00  0.00    -0.002 A 
HETATM   12  C   UNL     1      43.727 -18.210   4.321  1.00  0.00     0.056 A 
HETATM   13  C   UNL     1      44.009 -19.311   3.519  1.00  0.00     0.117 A 
HETATM   14  F   UNL     1      44.256 -19.122   2.215  1.00  0.00    -0.206 F 
HETATM   15  C   UNL     1      44.047 -20.599   4.041  1.00  0.00     0.042 A 
HETATM   16  C   UNL     1      43.798 -20.791   5.397  1.00  0.00     0.004 A 
HETATM   17  C   UNL     1      43.507 -19.693   6.212  1.00  0.00     0.014 A 
ENDBRANCH   6  11
ENDBRANCH   2   5
BRANCH   1  18
HETATM   18  C   UNL     1      40.454 -14.531   3.573  1.00  0.00     0.162 C 
BRANCH  18  19
HETATM   19  C   UNL     1      40.981 -14.517   2.100  1.00  0.00     0.143 C 
HETATM   20  C   UNL     1      41.711 -15.798   1.638  1.00  0.00     0.041 C 
HETATM   21  C   UNL     1      43.169 -15.657   2.059  1.00  0.00     0.003 C 
HETATM   22  C   UNL     1      43.405 -14.169   2.265  1.00  0.00     0.003 C 
HETATM   23  C   UNL     1      42.100 -13.473   1.889  1.00  0.00     0.041 C 
BRANCH  19  24
HETATM   24  N   UNL     1      39.795 -14.230   1.108  1.00  0.00    -0.065 N 
HETATM   25  H   UNL     1      38.951 -14.616   1.552  1.00  0.00     0.280 HD
HETATM   26  C   UNL     1      39.502 -12.738   0.953  1.00  0.00     0.270 C 
BRANCH  24  27
HETATM   27  C   UNL     1      39.862 -14.842  -0.287  1.00  0.00     0.231 C 
HETATM   28  C   UNL     1      39.201 -13.990  -1.348  1.00  0.00     0.034 C 
ENDBRANCH  24  27
ENDBRANCH  19  24
ENDBRANCH  18  19
ENDBRANCH   1  18
TORSDOF 6
ENDMDL
MODEL 3
REMARK VINA RESULT:      -7.6      1.772      2.775
REMARK  6 active torsions:
REMARK  status: ('A' for Active; 'I' for Inactive)
REMARK    1  A    between atoms: C_2  and  N_3 
REMARK    2  A    between atoms: N_3  and  C_5 
REMARK    3  A    between atoms: C_5  and  C_6 
REMARK    4  A    between atoms: C_6  and  N_7 
REMARK       I    between atoms: N_7  and  C_8 
REMARK    5  A    between atoms: C_8  and  C_9 
REMARK    6  A    between atoms: C_10  and  C_11 
ROOT
HETATM    1  N   UNL     1      42.177 -15.312   2.564  1.00  0.00    -0.354 N 
HETATM    2  C   UNL     1      41.804 -15.868   3.775  1.00  0.00     0.255 C 
HETATM    3  O   UNL     1      40.662 -16.283   3.942  1.00  0.00    -0.268 OA
HETATM    4  H   UNL     1      43.125 -14.975   2.456  1.00  0.00     0.162 HD
ENDROOT
BRANCH   2   5
HETATM    5  C   UNL     1      42.855 -15.943   4.781  1.00  0.00     0.080 A 
HETATM    6  C   UNL     1      43.679 -17.061   5.151  1.00  0.00     0.104 A 
HETATM    7  N   UNL     1      44.506 -16.732   6.158  1.00  0.00    -0.174 NA
HETATM    8  N   UNL     1      44.239 -15.456   6.427  1.00  0.00    -0.288 N 
HETATM    9  H   UNL     1      44.759 -15.006   7.175  1.00  0.00     0.188 HD
HETATM   10  C   UNL     1      43.266 -14.929   5.634  1.00  0.00     0.128 A 
BRANCH   6  11
HETATM   11  C   UNL     1      43.733 -18.420   4.606  1.00  0.00    -0.002 A 
HETATM   12  C   UNL     1      43.690 -18.660   3.229  1.00  0.00     0.056 A 
HETATM   13  C   UNL     1      43.768 -19.964   2.751  1.00  0.00     0.117 A 
HETATM   14  F   UNL     1      43.715 -20.179   1.428  1.00  0.00    -0.206 F 
HETATM   15  C   UNL     1      43.908 -21.046   3.613  1.00  0.00     0.042 A 
HETATM   16  C   UNL     1      43.971 -20.819   4.985  1.00  0.00     0.004 A 
HETATM   17  C   UNL     1      43.887 -19.514   5.478  1.00  0.00     0.014 A 
ENDBRANCH   6  11
ENDBRANCH   2   5
BRANCH   1  18
HETATM   18  C   UNL     1      41.225 -15.129   1.489  1.00  0.00     0.162 C 
BRANCH  18  19
HETATM   19  C   UNL     1      40.859 -13.655   1.111  1.00  0.00     0.143 C 
HETATM   20  C   UNL     1      41.708 -12.559   1.793  1.00  0.00     0.041 C 
HETATM   21  C   UNL     1      41.063 -12.271   3.145  1.00  0.00     0.003 C 
HETATM   22  C   UNL     1      39.627 -12.763   3.038  1.00  0.00     0.003 C 
HETATM   23  C   UNL     1      39.451 -13.257   1.604  1.00  0.00     0.041 C 
BRANCH  19  24
HETATM   24  N   UNL     1      40.949 -13.462  -0.446  1.00  0.00    -0.065 N 
HETATM   25  H   UNL     1      41.827 -13.913  -0.741  1.00  0.00     0.280 HD
HETATM   26  C   UNL     1      39.855 -14.218  -1.201  1.00  0.00     0.270 C 
BRANCH  24  27
HETATM   27  C   UNL     1      40.996 -12.039  -0.992  1.00  0.00     0.231 C 
HETATM   28  C   UNL     1      41.018 -11.976  -2.503  1.00  0.00     0.034 C 
ENDBRANCH  24  27
ENDBRANCH  19  24
ENDBRANCH  18  19
ENDBRANCH   1  18
TORSDOF 6
ENDMDL
MODEL 4
REMARK VINA RESULT:      -7.5      2.502      4.978
REMARK  6 active torsions:
REMARK  status: ('A' for Active; 'I' for Inactive)
REMARK    1  A    between atoms: C_2  and  N_3 
REMARK    2  A    between atoms: N_3  and  C_5 
REMARK    3  A    between atoms: C_5  and  C_6 
REMARK    4  A    between atoms: C_6  and  N_7 
REMARK       I    between atoms: N_7  and  C_8 
REMARK    5  A    between atoms: C_8  and  C_9 
REMARK    6  A    between atoms: C_10  and  C_11 
ROOT
HETATM    1  N   UNL     1      43.645 -15.054   6.043  1.00  0.00    -0.354 N 
HETATM    2  C   UNL     1      42.968 -16.260   6.086  1.00  0.00     0.255 C 
HETATM    3  O   UNL     1      42.057 -16.432   6.890  1.00  0.00    -0.268 OA
HETATM    4  H   UNL     1      44.394 -14.942   5.372  1.00  0.00     0.162 HD
ENDROOT
BRANCH   2   5
HETATM    5  C   UNL     1      43.393 -17.254   5.110  1.00  0.00     0.080 A 
HETATM    6  C   UNL     1      43.203 -17.265   3.685  1.00  0.00     0.104 A 
HETATM    7  N   UNL     1      43.711 -18.386   3.145  1.00  0.00    -0.174 NA
HETATM    8  N   UNL     1      44.217 -19.070   4.169  1.00  0.00    -0.288 N 
HETATM    9  H   UNL     1      44.651 -19.968   3.977  1.00  0.00     0.188 HD
HETATM   10  C   UNL     1      44.062 -18.442   5.367  1.00  0.00     0.128 A 
BRANCH   6  11
HETATM   11  C   UNL     1      42.573 -16.278   2.804  1.00  0.00    -0.002 A 
HETATM   12  C   UNL     1      41.301 -16.486   2.262  1.00  0.00     0.056 A 
HETATM   13  C   UNL     1      40.727 -15.514   1.449  1.00  0.00     0.117 A 
HETATM   14  F   UNL     1      39.511 -15.733   0.928  1.00  0.00    -0.206 F 
HETATM   15  C   UNL     1      41.383 -14.320   1.173  1.00  0.00     0.042 A 
HETATM   16  C   UNL     1      42.641 -14.092   1.723  1.00  0.00     0.004 A 
HETATM   17  C   UNL     1      43.231 -15.064   2.535  1.00  0.00     0.014 A 
ENDBRANCH   6  11
ENDBRANCH   2   5
BRANCH   1  18
HETATM   18  C   UNL     1      43.363 -13.992   6.985  1.00  0.00     0.162 C 
BRANCH  18  19
HETATM   19  C   UNL     1      42.889 -12.625   6.389  1.00  0.00     0.143 C 
HETATM   20  C   UNL     1      43.430 -12.285   4.982  1.00  0.00     0.041 C 
HETATM   21  C   UNL     1      44.788 -11.620   5.175  1.00  0.00     0.003 C 
HETATM   22  C   UNL     1      44.805 -11.106   6.606  1.00  0.00     0.003 C 
HETATM   23  C   UNL     1      43.429 -11.419   7.189  1.00  0.00     0.041 C 
BRANCH  19  24
HETATM   24  N   UNL     1      41.318 -12.572   6.348  1.00  0.00    -0.065 N 
HETATM   25  H   UNL     1      40.998 -12.826   7.293  1.00  0.00     0.280 HD
HETATM   26  C   UNL     1      40.780 -11.158   6.126  1.00  0.00     0.270 C 
BRANCH  24  27
HETATM   27  C   UNL     1      40.593 -13.506   5.385  1.00  0.00     0.231 C 
HETATM   28  C   UNL     1      39.846 -12.777   4.290  1.00  0.00     0.034 C 
ENDBRANCH  24  27
ENDBRANCH  19  24
ENDBRANCH  18  19
ENDBRANCH   1  18
TORSDOF 6
ENDMDL
MODEL 5
REMARK VINA RESULT:      -7.3      2.587      4.181
REMARK  6 active torsions:
REMARK  status: ('A' for Active; 'I' for Inactive)
REMARK    1  A    between atoms: C_2  and  N_3 
REMARK    2  A    between atoms: N_3  and  C_5 
REMARK    3  A    between atoms: C_5  and  C_6 
REMARK    4  A    between atoms: C_6  and  N_7 
REMARK       I    between atoms: N_7  and  C_8 
REMARK    5  A    between atoms: C_8  and  C_9 
REMARK    6  A    between atoms: C_10  and  C_11 
ROOT
HETATM    1  N   UNL     1      41.388 -16.497   2.293  1.00  0.00    -0.354 N 
HETATM    2  C   UNL     1      42.713 -16.816   2.057  1.00  0.00     0.255 C 
HETATM    3  O   UNL     1      43.382 -16.149   1.274  1.00  0.00    -0.268 OA
HETATM    4  H   UNL     1      40.859 -17.066   2.941  1.00  0.00     0.162 HD
ENDROOT
BRANCH   2   5
HETATM    5  C   UNL     1      43.231 -17.947   2.814  1.00  0.00     0.080 A 
HETATM    6  C   UNL     1      43.478 -18.057   4.226  1.00  0.00     0.104 A 
HETATM    7  N   UNL     1      44.000 -19.259   4.527  1.00  0.00    -0.174 NA
HETATM    8  N   UNL     1      44.081 -19.906   3.366  1.00  0.00    -0.288 N 
HETATM    9  H   UNL     1      44.462 -20.847   3.369  1.00  0.00     0.188 HD
HETATM   10  C   UNL     1      43.632 -19.175   2.308  1.00  0.00     0.128 A 
BRANCH   6  11
HETATM   11  C   UNL     1      43.247 -17.096   5.307  1.00  0.00    -0.002 A 
HETATM   12  C   UNL     1      41.967 -16.855   5.813  1.00  0.00     0.056 A 
HETATM   13  C   UNL     1      41.792 -15.951   6.856  1.00  0.00     0.117 A 
HETATM   14  F   UNL     1      40.557 -15.723   7.323  1.00  0.00    -0.206 F 
HETATM   15  C   UNL     1      42.872 -15.288   7.428  1.00  0.00     0.042 A 
HETATM   16  C   UNL     1      44.155 -15.533   6.947  1.00  0.00     0.004 A 
HETATM   17  C   UNL     1      44.341 -16.433   5.895  1.00  0.00     0.014 A 
ENDBRANCH   6  11
ENDBRANCH   2   5
BRANCH   1  18
HETATM   18  C   UNL     1      40.726 -15.427   1.576  1.00  0.00     0.162 C 
BRANCH  18  19
HETATM   19  C   UNL     1      40.779 -14.003   2.222  1.00  0.00     0.143 C 
HETATM   20  C   UNL     1      39.471 -13.184   2.145  1.00  0.00     0.041 C 
HETATM   21  C   UNL     1      39.471 -12.469   0.799  1.00  0.00     0.003 C 
HETATM   22  C   UNL     1      40.922 -12.428   0.345  1.00  0.00     0.003 C 
HETATM   23  C   UNL     1      41.740 -13.056   1.471  1.00  0.00     0.041 C 
BRANCH  19  24
HETATM   24  N   UNL     1      41.214 -14.113   3.729  1.00  0.00    -0.065 N 
HETATM   25  H   UNL     1      41.245 -15.118   3.946  1.00  0.00     0.280 HD
HETATM   26  C   UNL     1      42.642 -13.622   3.969  1.00  0.00     0.270 C 
BRANCH  24  27
HETATM   27  C   UNL     1      40.317 -13.475   4.783  1.00  0.00     0.231 C 
HETATM   28  C   UNL     1      41.046 -12.502   5.683  1.00  0.00     0.034 C 
ENDBRANCH  24  27
ENDBRANCH  19  24
ENDBRANCH  18  19
ENDBRANCH   1  18
TORSDOF 6
ENDMDL
MODEL 6
REMARK VINA RESULT:      -7.2      2.819      4.450
REMARK  6 active torsions:
REMARK  status: ('A' for Active; 'I' for Inactive)
REMARK    1  A    between atoms: C_2  and  N_3 
REMARK    2  A    between atoms: N_3  and  C_5 
REMARK    3  A    between atoms: C_5  and  C_6 
REMARK    4  A    between atoms: C_6  and  N_7 
REMARK       I    between atoms: N_7  and  C_8 
REMARK    5  A    between atoms: C_8  and  C_9 
REMARK    6  A    between atoms: C_10  and  C_11 
ROOT
HETATM    1  N   UNL     1      39.748 -14.426   0.869  1.00  0.00    -0.354 N 
HETATM    2  C   UNL     1      40.858 -14.159   1.650  1.00  0.00     0.255 C 
HETATM    3  O   UNL     1      41.946 -13.937   1.129  1.00  0.00    -0.268 OA
HETATM    4  H   UNL     1      38.865 -14.609   1.328  1.00  0.00     0.162 HD
ENDROOT
BRANCH   2   5
HETATM    5  C   UNL     1      40.623 -14.133   3.088  1.00  0.00     0.080 A 
HETATM    6  C   UNL     1      41.151 -14.996   4.109  1.00  0.00     0.104 A 
HETATM    7  N   UNL     1      40.657 -14.666   5.315  1.00  0.00    -0.174 NA
HETATM    8  N   UNL     1      39.850 -13.630   5.091  1.00  0.00    -0.288 N 
HETATM    9  H   UNL     1      39.362 -13.224   5.884  1.00  0.00     0.188 HD
HETATM   10  C   UNL     1      39.794 -13.263   3.781  1.00  0.00     0.128 A 
BRANCH   6  11
HETATM   11  C   UNL     1      42.097 -16.111   4.013  1.00  0.00    -0.002 A 
HETATM   12  C   UNL     1      42.083 -16.992   2.928  1.00  0.00     0.056 A 
HETATM   13  C   UNL     1      43.014 -18.024   2.862  1.00  0.00     0.117 A 
HETATM   14  F   UNL     1      42.981 -18.867   1.820  1.00  0.00    -0.206 F 
HETATM   15  C   UNL     1      43.979 -18.194   3.848  1.00  0.00     0.042 A 
HETATM   16  C   UNL     1      44.016 -17.312   4.924  1.00  0.00     0.004 A 
HETATM   17  C   UNL     1      43.082 -16.275   5.005  1.00  0.00     0.014 A 
ENDBRANCH   6  11
ENDBRANCH   2   5
BRANCH   1  18
HETATM   18  C   UNL     1      39.842 -14.531  -0.571  1.00  0.00     0.162 C 
BRANCH  18  19
HETATM   19  C   UNL     1      39.589 -13.225  -1.394  1.00  0.00     0.143 C 
HETATM   20  C   UNL     1      38.154 -12.658  -1.325  1.00  0.00     0.041 C 
HETATM   21  C   UNL     1      37.339 -13.375  -2.395  1.00  0.00     0.003 C 
HETATM   22  C   UNL     1      38.347 -13.928  -3.391  1.00  0.00     0.003 C 
HETATM   23  C   UNL     1      39.719 -13.457  -2.915  1.00  0.00     0.041 C 
BRANCH  19  24
HETATM   24  N   UNL     1      40.593 -12.102  -0.943  1.00  0.00    -0.065 N 
HETATM   25  H   UNL     1      41.297 -12.568  -0.353  1.00  0.00     0.280 HD
HETATM   26  C   UNL     1      41.392 -11.519  -2.109  1.00  0.00     0.270 C 
BRANCH  24  27
HETATM   27  C   UNL     1      40.049 -10.940  -0.121  1.00  0.00     0.231 C 
HETATM   28  C   UNL     1      40.234  -9.594  -0.788  1.00  0.00     0.034 C 
ENDBRANCH  24  27
ENDBRANCH  19  24
ENDBRANCH  18  19
ENDBRANCH   1  18
TORSDOF 6
ENDMDL
MODEL 7
REMARK VINA RESULT:      -7.2      2.995      7.112
REMARK  6 active torsions:
REMARK  status: ('A' for Active; 'I' for Inactive)
REMARK    1  A    between atoms: C_2  and  N_3 
REMARK    2  A    between atoms: N_3  and  C_5 
REMARK    3  A    between atoms: C_5  and  C_6 
REMARK    4  A    between atoms: C_6  and  N_7 
REMARK       I    between atoms: N_7  and  C_8 
REMARK    5  A    between atoms: C_8  and  C_9 
REMARK    6  A    between atoms: C_10  and  C_11 
ROOT
HETATM    1  N   UNL     1      40.250 -14.941   3.576  1.00  0.00    -0.354 N 
HETATM    2  C   UNL     1      39.833 -14.614   2.298  1.00  0.00     0.255 C 
HETATM    3  O   UNL     1      39.831 -15.460   1.410  1.00  0.00    -0.268 OA
HETATM    4  H   UNL     1      40.245 -14.222   4.288  1.00  0.00     0.162 HD
ENDROOT
BRANCH   2   5
HETATM    5  C   UNL     1      39.384 -13.240   2.117  1.00  0.00     0.080 A 
HETATM    6  C   UNL     1      39.403 -12.428   0.931  1.00  0.00     0.104 A 
HETATM    7  N   UNL     1      38.934 -11.195   1.189  1.00  0.00    -0.174 NA
HETATM    8  N   UNL     1      38.616 -11.205   2.482  1.00  0.00    -0.288 N 
HETATM    9  H   UNL     1      38.242 -10.353   2.889  1.00  0.00     0.188 HD
HETATM   10  C   UNL     1      38.857 -12.401   3.088  1.00  0.00     0.128 A 
BRANCH   6  11
HETATM   11  C   UNL     1      39.835 -12.750  -0.432  1.00  0.00    -0.002 A 
HETATM   12  C   UNL     1      39.225 -13.765  -1.173  1.00  0.00     0.056 A 
HETATM   13  C   UNL     1      39.648 -14.024  -2.473  1.00  0.00     0.117 A 
HETATM   14  F   UNL     1      39.060 -15.008  -3.168  1.00  0.00    -0.206 F 
HETATM   15  C   UNL     1      40.661 -13.279  -3.067  1.00  0.00     0.042 A 
HETATM   16  C   UNL     1      41.263 -12.252  -2.346  1.00  0.00     0.004 A 
HETATM   17  C   UNL     1      40.852 -11.988  -1.038  1.00  0.00     0.014 A 
ENDBRANCH   6  11
ENDBRANCH   2   5
BRANCH   1  18
HETATM   18  C   UNL     1      40.769 -16.255   3.891  1.00  0.00     0.162 C 
BRANCH  18  19
HETATM   19  C   UNL     1      42.321 -16.386   4.039  1.00  0.00     0.143 C 
HETATM   20  C   UNL     1      43.133 -15.106   3.739  1.00  0.00     0.041 C 
HETATM   21  C   UNL     1      43.376 -15.074   2.234  1.00  0.00     0.003 C 
HETATM   22  C   UNL     1      43.199 -16.505   1.750  1.00  0.00     0.003 C 
HETATM   23  C   UNL     1      42.929 -17.347   2.994  1.00  0.00     0.041 C 
BRANCH  19  24
HETATM   24  N   UNL     1      42.683 -16.881   5.487  1.00  0.00    -0.065 N 
HETATM   25  H   UNL     1      42.441 -17.881   5.517  1.00  0.00     0.280 HD
HETATM   26  C   UNL     1      44.185 -16.840   5.767  1.00  0.00     0.270 C 
BRANCH  24  27
HETATM   27  C   UNL     1      41.968 -16.232   6.667  1.00  0.00     0.231 C 
HETATM   28  C   UNL     1      42.913 -15.636   7.687  1.00  0.00     0.034 C 
ENDBRANCH  24  27
ENDBRANCH  19  24
ENDBRANCH  18  19
ENDBRANCH   1  18
TORSDOF 6
ENDMDL
MODEL 8
REMARK VINA RESULT:      -7.1      5.033      7.488
REMARK  6 active torsions:
REMARK  status: ('A' for Active; 'I' for Inactive)
REMARK    1  A    between atoms: C_2  and  N_3 
REMARK    2  A    between atoms: N_3  and  C_5 
REMARK    3  A    between atoms: C_5  and  C_6 
REMARK    4  A    between atoms: C_6  and  N_7 
REMARK       I    between atoms: N_7  and  C_8 
REMARK    5  A    between atoms: C_8  and  C_9 
REMARK    6  A    between atoms: C_10  and  C_11 
ROOT
HETATM    1  N   UNL     1      42.710 -13.014   6.614  1.00  0.00    -0.354 N 
HETATM    2  C   UNL     1      42.926 -11.650   6.703  1.00  0.00     0.255 C 
HETATM    3  O   UNL     1      41.986 -10.866   6.626  1.00  0.00    -0.268 OA
HETATM    4  H   UNL     1      43.505 -13.636   6.677  1.00  0.00     0.162 HD
ENDROOT
BRANCH   2   5
HETATM    5  C   UNL     1      44.309 -11.246   6.920  1.00  0.00     0.080 A 
HETATM    6  C   UNL     1      44.874 -10.494   8.007  1.00  0.00     0.104 A 
HETATM    7  N   UNL     1      46.189 -10.295   7.816  1.00  0.00    -0.174 NA
HETATM    8  N   UNL     1      46.471 -10.896   6.662  1.00  0.00    -0.288 N 
HETATM    9  H   UNL     1      47.427 -10.858   6.324  1.00  0.00     0.188 HD
HETATM   10  C   UNL     1      45.388 -11.487   6.083  1.00  0.00     0.128 A 
BRANCH   6  11
HETATM   11  C   UNL     1      44.245  -9.957   9.217  1.00  0.00    -0.002 A 
HETATM   12  C   UNL     1      44.023 -10.754  10.343  1.00  0.00     0.056 A 
HETATM   13  C   UNL     1      43.445 -10.199  11.481  1.00  0.00     0.117 A 
HETATM   14  F   UNL     1      43.228 -10.979  12.550  1.00  0.00    -0.206 F 
HETATM   15  C   UNL     1      43.095  -8.855  11.534  1.00  0.00     0.042 A 
HETATM   16  C   UNL     1      43.330  -8.046  10.426  1.00  0.00     0.004 A 
HETATM   17  C   UNL     1      43.903  -8.593   9.275  1.00  0.00     0.014 A 
ENDBRANCH   6  11
ENDBRANCH   2   5
BRANCH   1  18
HETATM   18  C   UNL     1      41.395 -13.557   6.350  1.00  0.00     0.162 C 
BRANCH  18  19
HETATM   19  C   UNL     1      41.282 -14.610   5.198  1.00  0.00     0.143 C 
HETATM   20  C   UNL     1      40.968 -16.056   5.641  1.00  0.00     0.041 C 
HETATM   21  C   UNL     1      42.299 -16.717   5.984  1.00  0.00     0.003 C 
HETATM   22  C   UNL     1      43.368 -15.902   5.272  1.00  0.00     0.003 C 
HETATM   23  C   UNL     1      42.628 -14.831   4.474  1.00  0.00     0.041 C 
BRANCH  19  24
HETATM   24  N   UNL     1      40.191 -14.156   4.161  1.00  0.00    -0.065 N 
HETATM   25  H   UNL     1      39.350 -14.712   4.368  1.00  0.00     0.280 HD
HETATM   26  C   UNL     1      39.752 -12.705   4.361  1.00  0.00     0.270 C 
BRANCH  24  27
HETATM   27  C   UNL     1      40.482 -14.357   2.678  1.00  0.00     0.231 C 
HETATM   28  C   UNL     1      39.846 -15.605   2.106  1.00  0.00     0.034 C 
ENDBRANCH  24  27
ENDBRANCH  19  24
ENDBRANCH  18  19
ENDBRANCH   1  18
TORSDOF 6
ENDMDL
MODEL 9
REMARK VINA RESULT:      -7.1      2.721      5.107
REMARK  6 active torsions:
REMARK  status: ('A' for Active; 'I' for Inactive)
REMARK    1  A    between atoms: C_2  and  N_3 
REMARK    2  A    between atoms: N_3  and  C_5 
REMARK    3  A    between atoms: C_5  and  C_6 
REMARK    4  A    between atoms: C_6  and  N_7 
REMARK       I    between atoms: N_7  and  C_8 
REMARK    5  A    between atoms: C_8  and  C_9 
REMARK    6  A    between atoms: C_10  and  C_11 
ROOT
HETATM    1  N   UNL     1      41.551 -12.436   3.811  1.00  0.00    -0.354 N 
HETATM    2  C   UNL     1      42.169 -13.244   2.873  1.00  0.00     0.255 C 
HETATM    3  O   UNL     1      43.379 -13.166   2.687  1.00  0.00    -0.268 OA
HETATM    4  H   UNL     1      40.551 -12.519   3.941  1.00  0.00     0.162 HD
ENDROOT
BRANCH   2   5
HETATM    5  C   UNL     1      41.295 -14.180   2.179  1.00  0.00     0.080 A 
HETATM    6  C   UNL     1      41.305 -15.618   2.202  1.00  0.00     0.104 A 
HETATM    7  N   UNL     1      40.357 -16.114   1.389  1.00  0.00    -0.174 NA
HETATM    8  N   UNL     1      39.751 -15.049   0.867  1.00  0.00    -0.288 N 
HETATM    9  H   UNL     1      38.994 -15.206   0.208  1.00  0.00     0.188 HD
HETATM   10  C   UNL     1      40.264 -13.867   1.305  1.00  0.00     0.128 A 
BRANCH   6  11
HETATM   11  C   UNL     1      42.155 -16.549   2.949  1.00  0.00    -0.002 A 
HETATM   12  C   UNL     1      42.887 -17.550   2.305  1.00  0.00     0.056 A 
HETATM   13  C   UNL     1      43.701 -18.399   3.047  1.00  0.00     0.117 A 
HETATM   14  F   UNL     1      44.389 -19.362   2.416  1.00  0.00    -0.206 F 
HETATM   15  C   UNL     1      43.823 -18.265   4.426  1.00  0.00     0.042 A 
HETATM   16  C   UNL     1      43.114 -17.259   5.077  1.00  0.00     0.004 A 
HETATM   17  C   UNL     1      42.287 -16.405   4.342  1.00  0.00     0.014 A 
ENDBRANCH   6  11
ENDBRANCH   2   5
BRANCH   1  18
HETATM   18  C   UNL     1      42.286 -11.425   4.542  1.00  0.00     0.162 C 
BRANCH  18  19
HETATM   19  C   UNL     1      42.374 -11.598   6.094  1.00  0.00     0.143 C 
HETATM   20  C   UNL     1      43.689 -11.116   6.747  1.00  0.00     0.041 C 
HETATM   21  C   UNL     1      44.681 -12.271   6.659  1.00  0.00     0.003 C 
HETATM   22  C   UNL     1      43.846 -13.528   6.464  1.00  0.00     0.003 C 
HETATM   23  C   UNL     1      42.386 -13.083   6.518  1.00  0.00     0.041 C 
BRANCH  19  24
HETATM   24  N   UNL     1      41.171 -10.859   6.787  1.00  0.00    -0.065 N 
HETATM   25  H   UNL     1      41.354 -10.901   7.799  1.00  0.00     0.280 HD
HETATM   26  C   UNL     1      41.130  -9.365   6.464  1.00  0.00     0.270 C 
BRANCH  24  27
HETATM   27  C   UNL     1      39.769 -11.422   6.582  1.00  0.00     0.231 C 
HETATM   28  C   UNL     1      38.840 -10.470   5.860  1.00  0.00     0.034 C 
ENDBRANCH  24  27
ENDBRANCH  19  24
ENDBRANCH  18  19
ENDBRANCH   1  18
TORSDOF 6
ENDMDL
MODEL 10
REMARK VINA RESULT:      -7.0     14.117     15.825
REMARK  6 active torsions:
REMARK  status: ('A' for Active; 'I' for Inactive)
REMARK    1  A    between atoms: C_2  and  N_3 
REMARK    2  A    between atoms: N_3  and  C_5 
REMARK    3  A    between atoms: C_5  and  C_6 
REMARK    4  A    between atoms: C_6  and  N_7 
REMARK       I    between atoms: N_7  and  C_8 
REMARK    5  A    between atoms: C_8  and  C_9 
REMARK    6  A    between atoms: C_10  and  C_11 
ROOT
HETATM    1  N   UNL     1      46.577 -30.473   1.703  1.00  0.00    -0.354 N 
HETATM    2  C   UNL     1      45.542 -31.107   1.039  1.00  0.00     0.255 C 
HETATM    3  O   UNL     1      45.727 -32.188   0.488  1.00  0.00    -0.268 OA
HETATM    4  H   UNL     1      46.396 -29.581   2.145  1.00  0.00     0.162 HD
ENDROOT
BRANCH   2   5
HETATM    5  C   UNL     1      44.258 -30.421   1.077  1.00  0.00     0.080 A 
HETATM    6  C   UNL     1      43.662 -29.554   0.097  1.00  0.00     0.104 A 
HETATM    7  N   UNL     1      42.479 -29.087   0.530  1.00  0.00    -0.174 NA
HETATM    8  N   UNL     1      42.306 -29.632   1.733  1.00  0.00    -0.288 N 
HETATM    9  H   UNL     1      41.461 -29.399   2.246  1.00  0.00     0.188 HD
HETATM   10  C   UNL     1      43.333 -30.442   2.111  1.00  0.00     0.128 A 
BRANCH   6  11
HETATM   11  C   UNL     1      44.145 -29.144  -1.224  1.00  0.00    -0.002 A 
HETATM   12  C   UNL     1      43.659 -29.730  -2.396  1.00  0.00     0.056 A 
HETATM   13  C   UNL     1      44.125 -29.296  -3.633  1.00  0.00     0.117 A 
HETATM   14  F   UNL     1      43.656 -29.875  -4.748  1.00  0.00    -0.206 F 
HETATM   15  C   UNL     1      45.058 -28.270  -3.737  1.00  0.00     0.042 A 
HETATM   16  C   UNL     1      45.535 -27.665  -2.578  1.00  0.00     0.004 A 
HETATM   17  C   UNL     1      45.080 -28.098  -1.330  1.00  0.00     0.014 A 
ENDBRANCH   6  11
ENDBRANCH   2   5
BRANCH   1  18
HETATM   18  C   UNL     1      47.920 -31.014   1.707  1.00  0.00     0.162 C 
BRANCH  18  19
HETATM   19  C   UNL     1      49.094 -29.992   1.856  1.00  0.00     0.143 C 
HETATM   20  C   UNL     1      50.298 -30.473   2.697  1.00  0.00     0.041 C 
HETATM   21  C   UNL     1      49.975 -30.169   4.155  1.00  0.00     0.003 C 
HETATM   22  C   UNL     1      48.903 -29.089   4.131  1.00  0.00     0.003 C 
HETATM   23  C   UNL     1      48.682 -28.740   2.662  1.00  0.00     0.041 C 
BRANCH  19  24
HETATM   24  N   UNL     1      49.615 -29.560   0.437  1.00  0.00    -0.065 N 
HETATM   25  H   UNL     1      50.305 -28.815   0.600  1.00  0.00     0.280 HD
HETATM   26  C   UNL     1      50.402 -30.667  -0.265  1.00  0.00     0.270 C 
BRANCH  24  27
HETATM   27  C   UNL     1      48.606 -28.999  -0.558  1.00  0.00     0.231 C 
HETATM   28  C   UNL     1      48.635 -29.696  -1.901  1.00  0.00     0.034 C 
ENDBRANCH  24  27
ENDBRANCH  19  24
ENDBRANCH  18  19
ENDBRANCH   1  18
TORSDOF 6
ENDMDL
