MODEL 1
REMARK VINA RESULT:      -9.0      0.000      0.000
REMARK  4 active torsions:
REMARK  status: ('A' for Active; 'I' for Inactive)
REMARK    1  A    between atoms: C_6  and  C_7 
REMARK    2  A    between atoms: C_7  and  C_8 
REMARK    3  A    between atoms: N_10  and  C_11 
REMARK    4  A    between atoms: C_19  and  C_20 
ROOT
HETATM    1  C   UNL     1      43.351 -14.265   5.579  1.00  0.00     0.149 C 
HETATM    2  N   UNL     1      43.506 -15.555   5.865  1.00  0.00    -0.150 NA
HETATM    3  N   UNL     1      43.262 -16.171   4.675  1.00  0.00    -0.218 N 
HETATM    4  C   UNL     1      42.800 -15.211   3.769  1.00  0.00     0.136 C 
HETATM    5  N   UNL     1      42.917 -14.013   4.314  1.00  0.00    -0.216 NA
ENDROOT
BRANCH   1   6
HETATM    6  C   UNL     1      43.558 -13.197   6.595  1.00  0.00     0.087 C 
BRANCH   6   7
HETATM    7  C   UNL     1      43.825 -11.796   5.995  1.00  0.00    -0.004 C 
HETATM    8  C   UNL     1      45.298 -11.352   6.050  1.00  0.00     0.032 C 
HETATM    9  C   UNL     1      45.780 -11.062   7.465  1.00  0.00     0.234 C 
HETATM   10  N   UNL     1      44.893 -10.007   8.082  1.00  0.00    -0.075 N 
HETATM   11  C   UNL     1      45.384  -9.605   9.450  1.00  0.00     0.269 C 
HETATM   12  H   UNL     1      44.972  -9.163   7.497  1.00  0.00     0.279 HD
HETATM   13  C   UNL     1      43.438 -10.399   8.108  1.00  0.00     0.234 C 
HETATM   14  C   UNL     1      42.964 -10.727   6.695  1.00  0.00     0.032 C 
ENDBRANCH   6   7
ENDBRANCH   1   6
BRANCH   3  15
HETATM   15  C   UNL     1      43.485 -17.572   4.556  1.00  0.00     0.062 A 
HETATM   16  C   UNL     1      43.573 -18.214   3.316  1.00  0.00     0.058 A 
HETATM   17  C   UNL     1      43.792 -19.596   3.254  1.00  0.00     0.074 A 
HETATM   18 CL   UNL     1      43.878 -20.352   1.710  1.00  0.00    -0.081 Cl
HETATM   19  C   UNL     1      43.938 -20.339   4.421  1.00  0.00     0.138 A 
HETATM   20  F   UNL     1      44.145 -21.660   4.374  1.00  0.00    -0.204 F 
HETATM   21  C   UNL     1      43.880 -19.711   5.660  1.00  0.00     0.046 A 
HETATM   22  C   UNL     1      43.662 -18.332   5.729  1.00  0.00     0.035 A 
ENDBRANCH   3  15
BRANCH   4  23
HETATM   23  C   UNL     1      42.144 -15.448   2.447  1.00  0.00     0.084 C 
HETATM   24  C   UNL     1      42.263 -14.234   1.514  1.00  0.00     0.244 C 
HETATM   25  N   UNL     1      41.111 -14.376   0.554  1.00  0.00    -0.074 N 
HETATM   26  H   UNL     1      40.646 -13.465   0.420  1.00  0.00     0.277 HD
HETATM   27  H   UNL     1      41.436 -14.664  -0.381  1.00  0.00     0.277 HD
HETATM   28  C   UNL     1      40.154 -15.384   1.112  1.00  0.00     0.233 C 
HETATM   29  C   UNL     1      40.628 -15.605   2.539  1.00  0.00     0.041 C 
ENDBRANCH   4  23
TORSDOF 4
ENDMDL
MODEL 2
REMARK VINA RESULT:      -8.4      2.425      6.380
REMARK  4 active torsions:
REMARK  status: ('A' for Active; 'I' for Inactive)
REMARK    1  A    between atoms: C_6  and  C_7 
REMARK    2  A    between atoms: C_7  and  C_8 
REMARK    3  A    between atoms: N_10  and  C_11 
REMARK    4  A    between atoms: C_19  and  C_20 
ROOT
HETATM    1  C   UNL     1      40.700 -14.694   1.886  1.00  0.00     0.149 C 
HETATM    2  N   UNL     1      41.326 -15.867   1.875  1.00  0.00    -0.150 NA
HETATM    3  N   UNL     1      42.067 -15.837   3.017  1.00  0.00    -0.218 N 
HETATM    4  C   UNL     1      41.973 -14.556   3.570  1.00  0.00     0.136 C 
HETATM    5  N   UNL     1      41.069 -13.863   2.899  1.00  0.00    -0.216 NA
ENDROOT
BRANCH   1   6
HETATM    6  C   UNL     1      39.736 -14.298   0.823  1.00  0.00     0.087 C 
BRANCH   6   7
HETATM    7  C   UNL     1      40.395 -13.970  -0.538  1.00  0.00    -0.004 C 
HETATM    8  C   UNL     1      40.791 -12.492  -0.712  1.00  0.00     0.032 C 
HETATM    9  C   UNL     1      39.589 -11.566  -0.839  1.00  0.00     0.234 C 
HETATM   10  N   UNL     1      38.737 -12.018  -2.001  1.00  0.00    -0.075 N 
HETATM   11  C   UNL     1      37.584 -11.076  -2.240  1.00  0.00     0.269 C 
HETATM   12  H   UNL     1      39.323 -11.964  -2.847  1.00  0.00     0.279 HD
HETATM   13  C   UNL     1      38.270 -13.445  -1.872  1.00  0.00     0.234 C 
HETATM   14  C   UNL     1      39.473 -14.371  -1.705  1.00  0.00     0.032 C 
ENDBRANCH   6   7
ENDBRANCH   1   6
BRANCH   3  15
HETATM   15  C   UNL     1      42.768 -17.008   3.424  1.00  0.00     0.062 A 
HETATM   16  C   UNL     1      43.028 -18.068   2.548  1.00  0.00     0.058 A 
HETATM   17  C   UNL     1      43.720 -19.198   3.000  1.00  0.00     0.074 A 
HETATM   18 CL   UNL     1      44.007 -20.489   1.898  1.00  0.00    -0.081 Cl
HETATM   19  C   UNL     1      44.168 -19.271   4.315  1.00  0.00     0.138 A 
HETATM   20  F   UNL     1      44.828 -20.348   4.758  1.00  0.00    -0.204 F 
HETATM   21  C   UNL     1      43.941 -18.215   5.189  1.00  0.00     0.046 A 
HETATM   22  C   UNL     1      43.250 -17.083   4.745  1.00  0.00     0.035 A 
ENDBRANCH   3  15
BRANCH   4  23
HETATM   23  C   UNL     1      42.823 -13.965   4.647  1.00  0.00     0.084 C 
HETATM   24  C   UNL     1      42.056 -13.800   5.967  1.00  0.00     0.244 C 
HETATM   25  N   UNL     1      42.788 -12.706   6.701  1.00  0.00    -0.074 N 
HETATM   26  H   UNL     1      42.114 -12.046   7.117  1.00  0.00     0.277 HD
HETATM   27  H   UNL     1      43.332 -13.085   7.489  1.00  0.00     0.277 HD
HETATM   28  C   UNL     1      43.686 -12.007   5.728  1.00  0.00     0.233 C 
HETATM   29  C   UNL     1      43.247 -12.525   4.368  1.00  0.00     0.041 C 
ENDBRANCH   4  23
TORSDOF 4
ENDMDL
MODEL 3
REMARK VINA RESULT:      -8.0      4.639      7.471
REMARK  4 active torsions:
REMARK  status: ('A' for Active; 'I' for Inactive)
REMARK    1  A    between atoms: C_6  and  C_7 
REMARK    2  A    between atoms: C_7  and  C_8 
REMARK    3  A    between atoms: N_10  and  C_11 
REMARK    4  A    between atoms: C_19  and  C_20 
ROOT
HETATM    1  C   UNL     1      41.372 -15.493   3.237  1.00  0.00     0.149 C 
HETATM    2  N   UNL     1      41.125 -15.510   1.930  1.00  0.00    -0.150 NA
HETATM    3  N   UNL     1      40.679 -14.249   1.680  1.00  0.00    -0.218 N 
HETATM    4  C   UNL     1      40.518 -13.588   2.902  1.00  0.00     0.136 C 
HETATM    5  N   UNL     1      41.011 -14.343   3.868  1.00  0.00    -0.216 NA
ENDROOT
BRANCH   1   6
HETATM    6  C   UNL     1      41.920 -16.676   3.956  1.00  0.00     0.087 C 
BRANCH   6   7
HETATM    7  C   UNL     1      43.454 -16.835   3.835  1.00  0.00    -0.004 C 
HETATM    8  C   UNL     1      43.904 -17.930   2.850  1.00  0.00     0.032 C 
HETATM    9  C   UNL     1      43.591 -19.337   3.340  1.00  0.00     0.234 C 
HETATM   10  N   UNL     1      44.244 -19.546   4.686  1.00  0.00    -0.075 N 
HETATM   11  C   UNL     1      44.054 -20.960   5.177  1.00  0.00     0.269 C 
HETATM   12  H   UNL     1      45.258 -19.430   4.554  1.00  0.00     0.279 HD
HETATM   13  C   UNL     1      43.809 -18.538   5.718  1.00  0.00     0.234 C 
HETATM   14  C   UNL     1      44.085 -17.125   5.211  1.00  0.00     0.032 C 
ENDBRANCH   6   7
ENDBRANCH   1   6
BRANCH   3  15
HETATM   15  C   UNL     1      40.454 -13.842   0.334  1.00  0.00     0.062 A 
HETATM   16  C   UNL     1      39.688 -14.600  -0.559  1.00  0.00     0.058 A 
HETATM   17  C   UNL     1      39.500 -14.156  -1.874  1.00  0.00     0.074 A 
HETATM   18 CL   UNL     1      38.566 -15.123  -2.949  1.00  0.00    -0.081 Cl
HETATM   19  C   UNL     1      40.058 -12.954  -2.299  1.00  0.00     0.138 A 
HETATM   20  F   UNL     1      39.886 -12.522  -3.554  1.00  0.00    -0.204 F 
HETATM   21  C   UNL     1      40.798 -12.178  -1.416  1.00  0.00     0.046 A 
HETATM   22  C   UNL     1      40.991 -12.615  -0.102  1.00  0.00     0.035 A 
ENDBRANCH   3  15
BRANCH   4  23
HETATM   23  C   UNL     1      39.793 -12.305   3.155  1.00  0.00     0.084 C 
HETATM   24  C   UNL     1      40.717 -11.084   3.038  1.00  0.00     0.244 C 
HETATM   25  N   UNL     1      40.049 -10.019   3.870  1.00  0.00    -0.074 N 
HETATM   26  H   UNL     1      40.749  -9.531   4.448  1.00  0.00     0.277 HD
HETATM   27  H   UNL     1      39.622  -9.294   3.275  1.00  0.00     0.277 HD
HETATM   28  C   UNL     1      39.012 -10.675   4.728  1.00  0.00     0.233 C 
HETATM   29  C   UNL     1      39.291 -12.162   4.590  1.00  0.00     0.041 C 
ENDBRANCH   4  23
TORSDOF 4
ENDMDL
MODEL 4
REMARK VINA RESULT:      -7.7      2.665      6.390
REMARK  4 active torsions:
REMARK  status: ('A' for Active; 'I' for Inactive)
REMARK    1  A    between atoms: C_6  and  C_7 
REMARK    2  A    between atoms: C_7  and  C_8 
REMARK    3  A    between atoms: N_10  and  C_11 
REMARK    4  A    between atoms: C_19  and  C_20 
ROOT
HETATM    1  C   UNL     1      40.416 -13.486   2.876  1.00  0.00     0.149 C 
HETATM    2  N   UNL     1      40.903 -14.696   2.616  1.00  0.00    -0.150 NA
HETATM    3  N   UNL     1      41.876 -14.850   3.556  1.00  0.00    -0.218 N 
HETATM    4  C   UNL     1      42.034 -13.634   4.229  1.00  0.00     0.136 C 
HETATM    5  N   UNL     1      41.079 -12.804   3.848  1.00  0.00    -0.216 NA
ENDROOT
BRANCH   1   6
HETATM    6  C   UNL     1      39.286 -12.903   2.100  1.00  0.00     0.087 C 
BRANCH   6   7
HETATM    7  C   UNL     1      39.660 -11.636   1.294  1.00  0.00    -0.004 C 
HETATM    8  C   UNL     1      38.507 -11.053   0.456  1.00  0.00     0.032 C 
HETATM    9  C   UNL     1      38.122 -11.938  -0.722  1.00  0.00     0.234 C 
HETATM   10  N   UNL     1      39.337 -12.161  -1.590  1.00  0.00    -0.075 N 
HETATM   11  C   UNL     1      38.993 -12.949  -2.830  1.00  0.00     0.269 C 
HETATM   12  H   UNL     1      39.648 -11.238  -1.923  1.00  0.00     0.279 HD
HETATM   13  C   UNL     1      40.492 -12.780  -0.844  1.00  0.00     0.234 C 
HETATM   14  C   UNL     1      40.854 -11.914   0.360  1.00  0.00     0.032 C 
ENDBRANCH   6   7
ENDBRANCH   1   6
BRANCH   3  15
HETATM   15  C   UNL     1      42.528 -16.109   3.685  1.00  0.00     0.062 A 
HETATM   16  C   UNL     1      42.666 -16.757   4.918  1.00  0.00     0.058 A 
HETATM   17  C   UNL     1      43.319 -17.994   4.991  1.00  0.00     0.074 A 
HETATM   18 CL   UNL     1      43.485 -18.754   6.527  1.00  0.00    -0.081 Cl
HETATM   19  C   UNL     1      43.820 -18.595   3.840  1.00  0.00     0.138 A 
HETATM   20  F   UNL     1      44.448 -19.776   3.900  1.00  0.00    -0.204 F 
HETATM   21  C   UNL     1      43.666 -17.977   2.606  1.00  0.00     0.046 A 
HETATM   22  C   UNL     1      43.017 -16.741   2.525  1.00  0.00     0.035 A 
ENDBRANCH   3  15
BRANCH   4  23
HETATM   23  C   UNL     1      43.155 -13.232   5.132  1.00  0.00     0.084 C 
HETATM   24  C   UNL     1      42.795 -13.403   6.615  1.00  0.00     0.244 C 
HETATM   25  N   UNL     1      43.704 -12.446   7.342  1.00  0.00    -0.074 N 
HETATM   26  H   UNL     1      43.175 -11.935   8.064  1.00  0.00     0.277 HD
HETATM   27  H   UNL     1      44.450 -12.948   7.844  1.00  0.00     0.277 HD
HETATM   28  C   UNL     1      44.287 -11.499   6.339  1.00  0.00     0.233 C 
HETATM   29  C   UNL     1      43.480 -11.742   5.075  1.00  0.00     0.041 C 
ENDBRANCH   4  23
TORSDOF 4
ENDMDL
MODEL 5
REMARK VINA RESULT:      -7.7      5.285      8.398
REMARK  4 active torsions:
REMARK  status: ('A' for Active; 'I' for Inactive)
REMARK    1  A    between atoms: C_6  and  C_7 
REMARK    2  A    between atoms: C_7  and  C_8 
REMARK    3  A    between atoms: N_10  and  C_11 
REMARK    4  A    between atoms: C_19  and  C_20 
ROOT
HETATM    1  C   UNL     1      40.781 -14.579   1.036  1.00  0.00     0.149 C 
HETATM    2  N   UNL     1      41.129 -13.297   1.118  1.00  0.00    -0.150 NA
HETATM    3  N   UNL     1      40.441 -12.720   0.095  1.00  0.00    -0.218 N 
HETATM    4  C   UNL     1      39.842 -13.734  -0.660  1.00  0.00     0.136 C 
HETATM    5  N   UNL     1      40.002 -14.887  -0.036  1.00  0.00    -0.216 NA
ENDROOT
BRANCH   1   6
HETATM    6  C   UNL     1      41.279 -15.599   1.999  1.00  0.00     0.087 C 
BRANCH   6   7
HETATM    7  C   UNL     1      42.815 -15.596   2.185  1.00  0.00    -0.004 C 
HETATM    8  C   UNL     1      43.459 -16.995   2.176  1.00  0.00     0.032 C 
HETATM    9  C   UNL     1      43.106 -17.820   3.406  1.00  0.00     0.234 C 
HETATM   10  N   UNL     1      43.522 -17.062   4.645  1.00  0.00    -0.075 N 
HETATM   11  C   UNL     1      43.290 -17.875   5.894  1.00  0.00     0.269 C 
HETATM   12  H   UNL     1      44.541 -16.921   4.588  1.00  0.00     0.279 HD
HETATM   13  C   UNL     1      42.887 -15.699   4.745  1.00  0.00     0.234 C 
HETATM   14  C   UNL     1      43.207 -14.884   3.494  1.00  0.00     0.032 C 
ENDBRANCH   6   7
ENDBRANCH   1   6
BRANCH   3  15
HETATM   15  C   UNL     1      40.449 -11.303  -0.039  1.00  0.00     0.062 A 
HETATM   16  C   UNL     1      41.489 -10.616  -0.676  1.00  0.00     0.058 A 
HETATM   17  C   UNL     1      41.449  -9.220  -0.779  1.00  0.00     0.074 A 
HETATM   18 CL   UNL     1      42.755  -8.409  -1.554  1.00  0.00    -0.081 Cl
HETATM   19  C   UNL     1      40.371  -8.506  -0.265  1.00  0.00     0.138 A 
HETATM   20  F   UNL     1      40.324  -7.172  -0.356  1.00  0.00    -0.204 F 
HETATM   21  C   UNL     1      39.318  -9.176   0.346  1.00  0.00     0.046 A 
HETATM   22  C   UNL     1      39.351 -10.570   0.453  1.00  0.00     0.035 A 
ENDBRANCH   3  15
BRANCH   4  23
HETATM   23  C   UNL     1      39.233 -13.617  -2.020  1.00  0.00     0.084 C 
HETATM   24  C   UNL     1      37.835 -12.983  -1.977  1.00  0.00     0.244 C 
HETATM   25  N   UNL     1      37.154 -13.473  -3.228  1.00  0.00    -0.074 N 
HETATM   26  H   UNL     1      36.188 -13.764  -3.015  1.00  0.00     0.277 HD
HETATM   27  H   UNL     1      37.072 -12.720  -3.928  1.00  0.00     0.277 HD
HETATM   28  C   UNL     1      37.947 -14.618  -3.777  1.00  0.00     0.233 C 
HETATM   29  C   UNL     1      38.928 -14.965  -2.669  1.00  0.00     0.041 C 
ENDBRANCH   4  23
TORSDOF 4
ENDMDL
MODEL 6
REMARK VINA RESULT:      -7.5      4.587      7.884
REMARK  4 active torsions:
REMARK  status: ('A' for Active; 'I' for Inactive)
REMARK    1  A    between atoms: C_6  and  C_7 
REMARK    2  A    between atoms: C_7  and  C_8 
REMARK    3  A    between atoms: N_10  and  C_11 
REMARK    4  A    between atoms: C_19  and  C_20 
ROOT
HETATM    1  C   UNL     1      42.600 -14.415   1.772  1.00  0.00     0.149 C 
HETATM    2  N   UNL     1      41.708 -14.298   0.792  1.00  0.00    -0.150 NA
HETATM    3  N   UNL     1      41.348 -12.986   0.852  1.00  0.00    -0.218 N 
HETATM    4  C   UNL     1      41.928 -12.422   1.993  1.00  0.00     0.136 C 
HETATM    5  N   UNL     1      42.760 -13.296   2.530  1.00  0.00    -0.216 NA
ENDROOT
BRANCH   1   6
HETATM    6  C   UNL     1      43.300 -15.697   2.058  1.00  0.00     0.087 C 
BRANCH   6   7
HETATM    7  C   UNL     1      42.365 -16.835   2.533  1.00  0.00    -0.004 C 
HETATM    8  C   UNL     1      41.430 -16.447   3.693  1.00  0.00     0.032 C 
HETATM    9  C   UNL     1      42.170 -16.230   5.006  1.00  0.00     0.234 C 
HETATM   10  N   UNL     1      42.939 -17.482   5.353  1.00  0.00    -0.075 N 
HETATM   11  C   UNL     1      43.612 -17.362   6.698  1.00  0.00     0.269 C 
HETATM   12  H   UNL     1      42.253 -18.244   5.450  1.00  0.00     0.279 HD
HETATM   13  C   UNL     1      43.915 -17.893   4.280  1.00  0.00     0.234 C 
HETATM   14  C   UNL     1      43.180 -18.074   2.953  1.00  0.00     0.032 C 
ENDBRANCH   6   7
ENDBRANCH   1   6
BRANCH   3  15
HETATM   15  C   UNL     1      40.504 -12.447  -0.160  1.00  0.00     0.062 A 
HETATM   16  C   UNL     1      41.008 -11.738  -1.257  1.00  0.00     0.058 A 
HETATM   17  C   UNL     1      40.134 -11.227  -2.224  1.00  0.00     0.074 A 
HETATM   18 CL   UNL     1      40.789 -10.346  -3.549  1.00  0.00    -0.081 Cl
HETATM   19  C   UNL     1      38.762 -11.432  -2.113  1.00  0.00     0.138 A 
HETATM   20  F   UNL     1      37.918 -10.946  -3.030  1.00  0.00    -0.204 F 
HETATM   21  C   UNL     1      38.249 -12.158  -1.045  1.00  0.00     0.046 A 
HETATM   22  C   UNL     1      39.116 -12.671  -0.074  1.00  0.00     0.035 A 
ENDBRANCH   3  15
BRANCH   4  23
HETATM   23  C   UNL     1      41.598 -11.109   2.628  1.00  0.00     0.084 C 
HETATM   24  C   UNL     1      42.577 -10.747   3.753  1.00  0.00     0.244 C 
HETATM   25  N   UNL     1      41.810  -9.798   4.637  1.00  0.00    -0.074 N 
HETATM   26  H   UNL     1      41.959 -10.037   5.628  1.00  0.00     0.277 HD
HETATM   27  H   UNL     1      42.149  -8.830   4.529  1.00  0.00     0.277 HD
HETATM   28  C   UNL     1      40.359  -9.891   4.278  1.00  0.00     0.233 C 
HETATM   29  C   UNL     1      40.269 -11.113   3.379  1.00  0.00     0.041 C 
ENDBRANCH   4  23
TORSDOF 4
ENDMDL
MODEL 7
REMARK VINA RESULT:      -7.5      3.387      5.406
REMARK  4 active torsions:
REMARK  status: ('A' for Active; 'I' for Inactive)
REMARK    1  A    between atoms: C_6  and  C_7 
REMARK    2  A    between atoms: C_7  and  C_8 
REMARK    3  A    between atoms: N_10  and  C_11 
REMARK    4  A    between atoms: C_19  and  C_20 
ROOT
HETATM    1  C   UNL     1      44.405 -11.972   6.445  1.00  0.00     0.149 C 
HETATM    2  N   UNL     1      43.947 -11.904   5.198  1.00  0.00    -0.150 NA
HETATM    3  N   UNL     1      43.221 -13.048   5.069  1.00  0.00    -0.218 N 
HETATM    4  C   UNL     1      43.428 -13.832   6.209  1.00  0.00     0.136 C 
HETATM    5  N   UNL     1      44.115 -13.132   7.094  1.00  0.00    -0.216 NA
ENDROOT
BRANCH   1   6
HETATM    6  C   UNL     1      45.239 -10.893   7.043  1.00  0.00     0.087 C 
BRANCH   6   7
HETATM    7  C   UNL     1      45.023 -10.696   8.563  1.00  0.00    -0.004 C 
HETATM    8  C   UNL     1      43.546 -10.607   8.989  1.00  0.00     0.032 C 
HETATM    9  C   UNL     1      42.868  -9.328   8.520  1.00  0.00     0.234 C 
HETATM   10  N   UNL     1      43.635  -8.139   9.048  1.00  0.00    -0.075 N 
HETATM   11  C   UNL     1      42.951  -6.841   8.700  1.00  0.00     0.269 C 
HETATM   12  H   UNL     1      43.618  -8.198  10.076  1.00  0.00     0.279 HD
HETATM   13  C   UNL     1      45.082  -8.134   8.625  1.00  0.00     0.234 C 
HETATM   14  C   UNL     1      45.754  -9.434   9.061  1.00  0.00     0.032 C 
ENDBRANCH   6   7
ENDBRANCH   1   6
BRANCH   3  15
HETATM   15  C   UNL     1      42.443 -13.252   3.894  1.00  0.00     0.062 A 
HETATM   16  C   UNL     1      41.142 -12.753   3.761  1.00  0.00     0.058 A 
HETATM   17  C   UNL     1      40.419 -12.984   2.584  1.00  0.00     0.074 A 
HETATM   18 CL   UNL     1      38.816 -12.370   2.463  1.00  0.00    -0.081 Cl
HETATM   19  C   UNL     1      40.991 -13.695   1.533  1.00  0.00     0.138 A 
HETATM   20  F   UNL     1      40.308 -13.923   0.405  1.00  0.00    -0.204 F 
HETATM   21  C   UNL     1      42.291 -14.172   1.640  1.00  0.00     0.046 A 
HETATM   22  C   UNL     1      43.019 -13.947   2.812  1.00  0.00     0.035 A 
ENDBRANCH   3  15
BRANCH   4  23
HETATM   23  C   UNL     1      43.078 -15.273   6.398  1.00  0.00     0.084 C 
HETATM   24  C   UNL     1      43.178 -15.706   7.868  1.00  0.00     0.244 C 
HETATM   25  N   UNL     1      43.397 -17.196   7.814  1.00  0.00    -0.074 N 
HETATM   26  H   UNL     1      44.132 -17.470   8.482  1.00  0.00     0.277 HD
HETATM   27  H   UNL     1      42.550 -17.708   8.103  1.00  0.00     0.277 HD
HETATM   28  C   UNL     1      43.784 -17.563   6.415  1.00  0.00     0.233 C 
HETATM   29  C   UNL     1      44.065 -16.232   5.738  1.00  0.00     0.041 C 
ENDBRANCH   4  23
TORSDOF 4
ENDMDL
MODEL 8
REMARK VINA RESULT:      -7.4     15.022     16.583
REMARK  4 active torsions:
REMARK  status: ('A' for Active; 'I' for Inactive)
REMARK    1  A    between atoms: C_6  and  C_7 
REMARK    2  A    between atoms: C_7  and  C_8 
REMARK    3  A    between atoms: N_10  and  C_11 
REMARK    4  A    between atoms: C_19  and  C_20 
ROOT
HETATM    1  C   UNL     1      46.471 -28.834   1.564  1.00  0.00     0.149 C 
HETATM    2  N   UNL     1      46.594 -29.059   0.258  1.00  0.00    -0.150 NA
HETATM    3  N   UNL     1      45.318 -29.318  -0.137  1.00  0.00    -0.218 N 
HETATM    4  C   UNL     1      44.512 -29.403   1.004  1.00  0.00     0.136 C 
HETATM    5  N   UNL     1      45.220 -29.038   2.058  1.00  0.00    -0.216 NA
ENDROOT
BRANCH   1   6
HETATM    6  C   UNL     1      47.633 -28.471   2.420  1.00  0.00     0.087 C 
BRANCH   6   7
HETATM    7  C   UNL     1      47.991 -29.534   3.486  1.00  0.00    -0.004 C 
HETATM    8  C   UNL     1      49.455 -29.489   3.962  1.00  0.00     0.032 C 
HETATM    9  C   UNL     1      50.442 -29.934   2.892  1.00  0.00     0.234 C 
HETATM   10  N   UNL     1      50.083 -31.329   2.438  1.00  0.00    -0.075 N 
HETATM   11  C   UNL     1      51.089 -31.863   1.449  1.00  0.00     0.269 C 
HETATM   12  H   UNL     1      50.148 -31.943   3.262  1.00  0.00     0.279 HD
HETATM   13  C   UNL     1      48.676 -31.436   1.909  1.00  0.00     0.234 C 
HETATM   14  C   UNL     1      47.687 -30.953   2.967  1.00  0.00     0.032 C 
ENDBRANCH   6   7
ENDBRANCH   1   6
BRANCH   3  15
HETATM   15  C   UNL     1      45.032 -29.460  -1.524  1.00  0.00     0.062 A 
HETATM   16  C   UNL     1      44.718 -30.696  -2.101  1.00  0.00     0.058 A 
HETATM   17  C   UNL     1      44.448 -30.781  -3.473  1.00  0.00     0.074 A 
HETATM   18 CL   UNL     1      44.082 -32.321  -4.150  1.00  0.00    -0.081 Cl
HETATM   19  C   UNL     1      44.472 -29.640  -4.269  1.00  0.00     0.138 A 
HETATM   20  F   UNL     1      44.217 -29.712  -5.581  1.00  0.00    -0.204 F 
HETATM   21  C   UNL     1      44.755 -28.402  -3.705  1.00  0.00     0.046 A 
HETATM   22  C   UNL     1      45.027 -28.309  -2.336  1.00  0.00     0.035 A 
ENDBRANCH   3  15
BRANCH   4  23
HETATM   23  C   UNL     1      43.122 -29.943   1.098  1.00  0.00     0.084 C 
HETATM   24  C   UNL     1      42.474 -29.645   2.458  1.00  0.00     0.244 C 
HETATM   25  N   UNL     1      41.416 -30.705   2.618  1.00  0.00    -0.074 N 
HETATM   26  H   UNL     1      41.437 -31.086   3.576  1.00  0.00     0.277 HD
HETATM   27  H   UNL     1      40.471 -30.311   2.495  1.00  0.00     0.277 HD
HETATM   28  C   UNL     1      41.673 -31.782   1.611  1.00  0.00     0.233 C 
HETATM   29  C   UNL     1      43.057 -31.468   1.066  1.00  0.00     0.041 C 
ENDBRANCH   4  23
TORSDOF 4
ENDMDL
MODEL 9
REMARK VINA RESULT:      -7.3      2.697      6.486
REMARK  4 active torsions:
REMARK  status: ('A' for Active; 'I' for Inactive)
REMARK    1  A    between atoms: C_6  and  C_7 
REMARK    2  A    between atoms: C_7  and  C_8 
REMARK    3  A    between atoms: N_10  and  C_11 
REMARK    4  A    between atoms: C_19  and  C_20 
ROOT
HETATM    1  C   UNL     1      40.055 -13.125   3.386  1.00  0.00     0.149 C 
HETATM    2  N   UNL     1      40.618 -14.330   3.321  1.00  0.00    -0.150 NA
HETATM    3  N   UNL     1      41.428 -14.356   4.414  1.00  0.00    -0.218 N 
HETATM    4  C   UNL     1      41.434 -13.081   4.989  1.00  0.00     0.136 C 
HETATM    5  N   UNL     1      40.529 -12.332   4.385  1.00  0.00    -0.216 NA
ENDROOT
BRANCH   1   6
HETATM    6  C   UNL     1      39.051 -12.664   2.389  1.00  0.00     0.087 C 
BRANCH   6   7
HETATM    7  C   UNL     1      39.607 -11.665   1.346  1.00  0.00    -0.004 C 
HETATM    8  C   UNL     1      38.533 -10.803   0.657  1.00  0.00     0.032 C 
HETATM    9  C   UNL     1      37.640 -11.602  -0.282  1.00  0.00     0.234 C 
HETATM   10  N   UNL     1      38.501 -12.289  -1.316  1.00  0.00    -0.075 N 
HETATM   11  C   UNL     1      37.662 -13.016  -2.338  1.00  0.00     0.269 C 
HETATM   12  H   UNL     1      38.999 -11.552  -1.836  1.00  0.00     0.279 HD
HETATM   13  C   UNL     1      39.544 -13.193  -0.711  1.00  0.00     0.234 C 
HETATM   14  C   UNL     1      40.416 -12.401   0.261  1.00  0.00     0.032 C 
ENDBRANCH   6   7
ENDBRANCH   1   6
BRANCH   3  15
HETATM   15  C   UNL     1      42.090 -15.568   4.762  1.00  0.00     0.062 A 
HETATM   16  C   UNL     1      42.729 -16.371   3.811  1.00  0.00     0.058 A 
HETATM   17  C   UNL     1      43.365 -17.555   4.206  1.00  0.00     0.074 A 
HETATM   18 CL   UNL     1      44.126 -18.526   3.006  1.00  0.00    -0.081 Cl
HETATM   19  C   UNL     1      43.380 -17.935   5.545  1.00  0.00     0.138 A 
HETATM   20  F   UNL     1      43.982 -19.065   5.932  1.00  0.00    -0.204 F 
HETATM   21  C   UNL     1      42.773 -17.133   6.504  1.00  0.00     0.046 A 
HETATM   22  C   UNL     1      42.136 -15.950   6.117  1.00  0.00     0.035 A 
ENDBRANCH   3  15
BRANCH   4  23
HETATM   23  C   UNL     1      42.379 -12.552   6.020  1.00  0.00     0.084 C 
HETATM   24  C   UNL     1      42.044 -11.110   6.427  1.00  0.00     0.244 C 
HETATM   25  N   UNL     1      43.342 -10.549   6.949  1.00  0.00    -0.074 N 
HETATM   26  H   UNL     1      43.489  -9.597   6.582  1.00  0.00     0.277 HD
HETATM   27  H   UNL     1      43.323 -10.455   7.975  1.00  0.00     0.277 HD
HETATM   28  C   UNL     1      44.452 -11.461   6.525  1.00  0.00     0.233 C 
HETATM   29  C   UNL     1      43.809 -12.393   5.511  1.00  0.00     0.041 C 
ENDBRANCH   4  23
TORSDOF 4
ENDMDL
MODEL 10
REMARK VINA RESULT:      -7.3      7.109      9.817
REMARK  4 active torsions:
REMARK  status: ('A' for Active; 'I' for Inactive)
REMARK    1  A    between atoms: C_6  and  C_7 
REMARK    2  A    between atoms: C_7  and  C_8 
REMARK    3  A    between atoms: N_10  and  C_11 
REMARK    4  A    between atoms: C_19  and  C_20 
ROOT
HETATM    1  C   UNL     1      43.150  -7.822  12.053  1.00  0.00     0.149 C 
HETATM    2  N   UNL     1      43.739  -8.850  11.447  1.00  0.00    -0.150 NA
HETATM    3  N   UNL     1      43.708  -8.499  10.133  1.00  0.00    -0.218 N 
HETATM    4  C   UNL     1      42.937  -7.339  10.005  1.00  0.00     0.136 C 
HETATM    5  N   UNL     1      42.643  -6.882  11.209  1.00  0.00    -0.216 NA
ENDROOT
BRANCH   1   6
HETATM    6  C   UNL     1      42.990  -7.758  13.531  1.00  0.00     0.087 C 
BRANCH   6   7
HETATM    7  C   UNL     1      41.813  -8.601  14.078  1.00  0.00    -0.004 C 
HETATM    8  C   UNL     1      40.501  -8.451  13.285  1.00  0.00     0.032 C 
HETATM    9  C   UNL     1      39.862  -7.079  13.448  1.00  0.00     0.234 C 
HETATM   10  N   UNL     1      39.617  -6.820  14.916  1.00  0.00    -0.075 N 
HETATM   11  C   UNL     1      38.890  -5.516  15.133  1.00  0.00     0.269 C 
HETATM   12  H   UNL     1      38.979  -7.555  15.253  1.00  0.00     0.279 HD
HETATM   13  C   UNL     1      40.871  -6.900  15.748  1.00  0.00     0.234 C 
HETATM   14  C   UNL     1      41.535  -8.261  15.555  1.00  0.00     0.032 C 
ENDBRANCH   6   7
ENDBRANCH   1   6
BRANCH   3  15
HETATM   15  C   UNL     1      44.395  -9.303   9.180  1.00  0.00     0.062 A 
HETATM   16  C   UNL     1      43.857 -10.494   8.678  1.00  0.00     0.058 A 
HETATM   17  C   UNL     1      44.575 -11.249   7.743  1.00  0.00     0.074 A 
HETATM   18 CL   UNL     1      43.889 -12.717   7.162  1.00  0.00    -0.081 Cl
HETATM   19  C   UNL     1      45.819 -10.817   7.293  1.00  0.00     0.138 A 
HETATM   20  F   UNL     1      46.514 -11.533   6.402  1.00  0.00    -0.204 F 
HETATM   21  C   UNL     1      46.353  -9.623   7.761  1.00  0.00     0.046 A 
HETATM   22  C   UNL     1      45.642  -8.863   8.695  1.00  0.00     0.035 A 
ENDBRANCH   3  15
BRANCH   4  23
HETATM   23  C   UNL     1      42.387  -6.745   8.748  1.00  0.00     0.084 C 
HETATM   24  C   UNL     1      41.792  -5.349   8.978  1.00  0.00     0.244 C 
HETATM   25  N   UNL     1      40.799  -5.167   7.859  1.00  0.00    -0.074 N 
HETATM   26  H   UNL     1      39.926  -4.759   8.223  1.00  0.00     0.277 HD
HETATM   27  H   UNL     1      41.148  -4.501   7.154  1.00  0.00     0.277 HD
HETATM   28  C   UNL     1      40.543  -6.505   7.236  1.00  0.00     0.233 C 
HETATM   29  C   UNL     1      41.178  -7.497   8.196  1.00  0.00     0.041 C 
ENDBRANCH   4  23
TORSDOF 4
ENDMDL
