MODEL 1
REMARK VINA RESULT:      -8.7      0.000      0.000
REMARK  4 active torsions:
REMARK  status: ('A' for Active; 'I' for Inactive)
REMARK    1  A    between atoms: C_7  and  N_8 
REMARK       I    between atoms: N_8  and  C_9 
REMARK    2  A    between atoms: C_9  and  C_10 
REMARK    3  A    between atoms: C_10  and  C_11 
REMARK    4  A    between atoms: C_14  and  O_15 
ROOT
HETATM    1  N   UNL     1      42.485 -14.692   1.501  1.00  0.00    -0.326 N 
HETATM    2  C   UNL     1      41.273 -14.023   1.550  1.00  0.00     0.226 C 
HETATM    3  O   UNL     1      40.364 -14.241   2.345  1.00  0.00    -0.273 OA
HETATM    4  H   UNL     1      43.151 -14.385   0.802  1.00  0.00     0.169 HD
ENDROOT
BRANCH   1   5
HETATM    5  C   UNL     1      42.896 -15.747   2.343  1.00  0.00     0.053 A 
HETATM    6  C   UNL     1      43.308 -15.607   3.662  1.00  0.00     0.146 A 
HETATM    7  N   UNL     1      43.700 -16.639   4.456  1.00  0.00    -0.258 NA
HETATM    8  C   UNL     1      43.686 -17.877   3.940  1.00  0.00     0.066 A 
HETATM    9  C   UNL     1      43.282 -18.133   2.614  1.00  0.00    -0.005 A 
HETATM   10  C   UNL     1      44.077 -18.950   4.730  1.00  0.00     0.032 A 
HETATM   11  C   UNL     1      43.276 -19.451   2.121  1.00  0.00     0.014 A 
HETATM   12  C   UNL     1      42.891 -17.042   1.820  1.00  0.00     0.044 A 
HETATM   13  C   UNL     1      43.670 -20.510   2.937  1.00  0.00     0.001 A 
HETATM   14  C   UNL     1      44.073 -20.259   4.243  1.00  0.00     0.002 A 
ENDBRANCH   1   5
BRANCH   2  15
HETATM   15  C   UNL     1      41.141 -12.940   0.489  1.00  0.00     0.141 C 
BRANCH  15  16
HETATM   16  C   UNL     1      40.337 -13.343  -0.726  1.00  0.00    -0.049 A 
HETATM   17  C   UNL     1      40.293 -12.490  -1.841  1.00  0.00     0.010 A 
HETATM   18  C   UNL     1      39.609 -12.864  -3.001  1.00  0.00     0.037 A 
HETATM   19  C   UNL     1      38.974 -14.099  -3.052  1.00  0.00     0.065 A 
HETATM   20  C   UNL     1      39.014 -14.964  -1.967  1.00  0.00     0.037 A 
HETATM   21  C   UNL     1      39.704 -14.593  -0.810  1.00  0.00     0.010 A 
BRANCH  19  22
HETATM   22  O   UNL     1      38.303 -14.508  -4.166  1.00  0.00    -0.361 OA
HETATM   23  H   UNL     1      38.945 -14.668  -4.876  1.00  0.00     0.217 HD
ENDBRANCH  19  22
ENDBRANCH  15  16
ENDBRANCH   2  15
TORSDOF 4
ENDMDL
MODEL 2
REMARK VINA RESULT:      -8.6      2.220      7.678
REMARK  4 active torsions:
REMARK  status: ('A' for Active; 'I' for Inactive)
REMARK    1  A    between atoms: C_7  and  N_8 
REMARK       I    between atoms: N_8  and  C_9 
REMARK    2  A    between atoms: C_9  and  C_10 
REMARK    3  A    between atoms: C_10  and  C_11 
REMARK    4  A    between atoms: C_14  and  O_15 
ROOT
HETATM    1  N   UNL     1      41.609 -14.867   2.310  1.00  0.00    -0.326 N 
HETATM    2  C   UNL     1      42.907 -15.335   2.421  1.00  0.00     0.226 C 
HETATM    3  O   UNL     1      43.793 -15.204   1.581  1.00  0.00    -0.273 OA
HETATM    4  H   UNL     1      40.993 -15.029   3.098  1.00  0.00     0.169 HD
ENDROOT
BRANCH   1   5
HETATM    5  C   UNL     1      41.060 -14.164   1.215  1.00  0.00     0.053 A 
HETATM    6  C   UNL     1      41.166 -12.795   1.007  1.00  0.00     0.146 A 
HETATM    7  N   UNL     1      40.630 -12.138  -0.056  1.00  0.00    -0.258 NA
HETATM    8  C   UNL     1      39.957 -12.854  -0.970  1.00  0.00     0.066 A 
HETATM    9  C   UNL     1      39.793 -14.249  -0.858  1.00  0.00    -0.005 A 
HETATM   10  C   UNL     1      39.402 -12.210  -2.068  1.00  0.00     0.032 A 
HETATM   11  C   UNL     1      39.086 -14.957  -1.848  1.00  0.00     0.014 A 
HETATM   12  C   UNL     1      40.353 -14.894   0.257  1.00  0.00     0.044 A 
HETATM   13  C   UNL     1      38.542 -14.286  -2.942  1.00  0.00     0.001 A 
HETATM   14  C   UNL     1      38.699 -12.909  -3.051  1.00  0.00     0.002 A 
ENDBRANCH   1   5
BRANCH   2  15
HETATM   15  C   UNL     1      43.174 -16.065   3.730  1.00  0.00     0.141 C 
BRANCH  15  16
HETATM   16  C   UNL     1      43.462 -17.541   3.580  1.00  0.00    -0.049 A 
HETATM   17  C   UNL     1      44.001 -18.255   4.664  1.00  0.00     0.010 A 
HETATM   18  C   UNL     1      44.221 -19.632   4.576  1.00  0.00     0.037 A 
HETATM   19  C   UNL     1      43.893 -20.302   3.403  1.00  0.00     0.065 A 
HETATM   20  C   UNL     1      43.349 -19.620   2.323  1.00  0.00     0.037 A 
HETATM   21  C   UNL     1      43.123 -18.245   2.415  1.00  0.00     0.010 A 
BRANCH  19  22
HETATM   22  O   UNL     1      44.082 -21.646   3.275  1.00  0.00    -0.361 OA
HETATM   23  H   UNL     1      44.382 -21.834   2.371  1.00  0.00     0.217 HD
ENDBRANCH  19  22
ENDBRANCH  15  16
ENDBRANCH   2  15
TORSDOF 4
ENDMDL
MODEL 3
REMARK VINA RESULT:      -7.9      4.993      7.044
REMARK  4 active torsions:
REMARK  status: ('A' for Active; 'I' for Inactive)
REMARK    1  A    between atoms: C_7  and  N_8 
REMARK       I    between atoms: N_8  and  C_9 
REMARK    2  A    between atoms: C_9  and  C_10 
REMARK    3  A    between atoms: C_10  and  C_11 
REMARK    4  A    between atoms: C_14  and  O_15 
ROOT
HETATM    1  N   UNL     1      43.168 -14.610   4.720  1.00  0.00    -0.326 N 
HETATM    2  C   UNL     1      42.448 -13.935   5.692  1.00  0.00     0.226 C 
HETATM    3  O   UNL     1      41.915 -14.443   6.674  1.00  0.00    -0.273 OA
HETATM    4  H   UNL     1      43.573 -14.052   3.977  1.00  0.00     0.169 HD
ENDROOT
BRANCH   1   5
HETATM    5  C   UNL     1      43.414 -15.999   4.672  1.00  0.00     0.053 A 
HETATM    6  C   UNL     1      43.910 -16.763   5.721  1.00  0.00     0.146 A 
HETATM    7  N   UNL     1      44.139 -18.101   5.652  1.00  0.00    -0.258 NA
HETATM    8  C   UNL     1      43.868 -18.733   4.500  1.00  0.00     0.066 A 
HETATM    9  C   UNL     1      43.358 -18.055   3.375  1.00  0.00    -0.005 A 
HETATM   10  C   UNL     1      44.089 -20.100   4.403  1.00  0.00     0.032 A 
HETATM   11  C   UNL     1      43.081 -18.764   2.191  1.00  0.00     0.014 A 
HETATM   12  C   UNL     1      43.141 -16.671   3.478  1.00  0.00     0.044 A 
HETATM   13  C   UNL     1      43.309 -20.137   2.122  1.00  0.00     0.001 A 
HETATM   14  C   UNL     1      43.816 -20.807   3.230  1.00  0.00     0.002 A 
ENDBRANCH   1   5
BRANCH   2  15
HETATM   15  C   UNL     1      42.359 -12.436   5.442  1.00  0.00     0.141 C 
BRANCH  15  16
HETATM   16  C   UNL     1      43.298 -11.601   6.281  1.00  0.00    -0.049 A 
HETATM   17  C   UNL     1      42.790 -10.514   7.014  1.00  0.00     0.010 A 
HETATM   18  C   UNL     1      43.623  -9.762   7.847  1.00  0.00     0.037 A 
HETATM   19  C   UNL     1      44.966 -10.101   7.957  1.00  0.00     0.065 A 
HETATM   20  C   UNL     1      45.487 -11.177   7.252  1.00  0.00     0.037 A 
HETATM   21  C   UNL     1      44.653 -11.933   6.425  1.00  0.00     0.010 A 
BRANCH  19  22
HETATM   22  O   UNL     1      45.813  -9.400   8.763  1.00  0.00    -0.361 OA
HETATM   23  H   UNL     1      46.385 -10.027   9.235  1.00  0.00     0.217 HD
ENDBRANCH  19  22
ENDBRANCH  15  16
ENDBRANCH   2  15
TORSDOF 4
ENDMDL
MODEL 4
REMARK VINA RESULT:      -7.5      4.392      7.232
REMARK  4 active torsions:
REMARK  status: ('A' for Active; 'I' for Inactive)
REMARK    1  A    between atoms: C_7  and  N_8 
REMARK       I    between atoms: N_8  and  C_9 
REMARK    2  A    between atoms: C_9  and  C_10 
REMARK    3  A    between atoms: C_10  and  C_11 
REMARK    4  A    between atoms: C_14  and  O_15 
ROOT
HETATM    1  N   UNL     1      42.312 -13.338   4.389  1.00  0.00    -0.326 N 
HETATM    2  C   UNL     1      42.987 -12.192   4.003  1.00  0.00     0.226 C 
HETATM    3  O   UNL     1      43.809 -12.113   3.094  1.00  0.00    -0.273 OA
HETATM    4  H   UNL     1      41.643 -13.245   5.143  1.00  0.00     0.169 HD
ENDROOT
BRANCH   1   5
HETATM    5  C   UNL     1      42.448 -14.623   3.820  1.00  0.00     0.053 A 
HETATM    6  C   UNL     1      41.877 -15.036   2.623  1.00  0.00     0.146 A 
HETATM    7  N   UNL     1      42.021 -16.279   2.094  1.00  0.00    -0.258 NA
HETATM    8  C   UNL     1      42.766 -17.171   2.764  1.00  0.00     0.066 A 
HETATM    9  C   UNL     1      43.394 -16.857   3.986  1.00  0.00    -0.005 A 
HETATM   10  C   UNL     1      42.934 -18.448   2.244  1.00  0.00     0.032 A 
HETATM   11  C   UNL     1      44.174 -17.825   4.647  1.00  0.00     0.014 A 
HETATM   12  C   UNL     1      43.217 -15.565   4.507  1.00  0.00     0.044 A 
HETATM   13  C   UNL     1      44.328 -19.098   4.101  1.00  0.00     0.001 A 
HETATM   14  C   UNL     1      43.706 -19.411   2.898  1.00  0.00     0.002 A 
ENDBRANCH   1   5
BRANCH   2  15
HETATM   15  C   UNL     1      42.619 -10.969   4.831  1.00  0.00     0.141 C 
BRANCH  15  16
HETATM   16  C   UNL     1      43.393 -10.826   6.121  1.00  0.00    -0.049 A 
HETATM   17  C   UNL     1      42.767 -10.260   7.245  1.00  0.00     0.010 A 
HETATM   18  C   UNL     1      43.437 -10.171   8.468  1.00  0.00     0.037 A 
HETATM   19  C   UNL     1      44.734 -10.659   8.574  1.00  0.00     0.065 A 
HETATM   20  C   UNL     1      45.369 -11.233   7.480  1.00  0.00     0.037 A 
HETATM   21  C   UNL     1      44.696 -11.328   6.260  1.00  0.00     0.010 A 
BRANCH  19  22
HETATM   22  O   UNL     1      45.423 -10.601   9.749  1.00  0.00    -0.361 OA
HETATM   23  H   UNL     1      46.120 -11.277   9.736  1.00  0.00     0.217 HD
ENDBRANCH  19  22
ENDBRANCH  15  16
ENDBRANCH   2  15
TORSDOF 4
ENDMDL
MODEL 5
REMARK VINA RESULT:      -7.3      3.318      4.032
REMARK  4 active torsions:
REMARK  status: ('A' for Active; 'I' for Inactive)
REMARK    1  A    between atoms: C_7  and  N_8 
REMARK       I    between atoms: N_8  and  C_9 
REMARK    2  A    between atoms: C_9  and  C_10 
REMARK    3  A    between atoms: C_10  and  C_11 
REMARK    4  A    between atoms: C_14  and  O_15 
ROOT
HETATM    1  N   UNL     1      42.964 -14.449   4.465  1.00  0.00    -0.326 N 
HETATM    2  C   UNL     1      41.968 -13.822   5.195  1.00  0.00     0.226 C 
HETATM    3  O   UNL     1      41.206 -14.367   5.988  1.00  0.00    -0.273 OA
HETATM    4  H   UNL     1      43.532 -13.864   3.865  1.00  0.00     0.169 HD
ENDROOT
BRANCH   1   5
HETATM    5  C   UNL     1      43.281 -15.825   4.488  1.00  0.00     0.053 A 
HETATM    6  C   UNL     1      43.842 -16.501   5.565  1.00  0.00     0.146 A 
HETATM    7  N   UNL     1      44.139 -17.827   5.566  1.00  0.00    -0.258 NA
HETATM    8  C   UNL     1      43.872 -18.538   4.459  1.00  0.00     0.066 A 
HETATM    9  C   UNL     1      43.300 -17.953   3.312  1.00  0.00    -0.005 A 
HETATM   10  C   UNL     1      44.162 -19.895   4.434  1.00  0.00     0.032 A 
HETATM   11  C   UNL     1      43.031 -18.743   2.178  1.00  0.00     0.014 A 
HETATM   12  C   UNL     1      43.014 -16.578   3.343  1.00  0.00     0.044 A 
HETATM   13  C   UNL     1      43.329 -20.104   2.181  1.00  0.00     0.001 A 
HETATM   14  C   UNL     1      43.898 -20.681   3.310  1.00  0.00     0.002 A 
ENDBRANCH   1   5
BRANCH   2  15
HETATM   15  C   UNL     1      41.879 -12.326   4.929  1.00  0.00     0.141 C 
BRANCH  15  16
HETATM   16  C   UNL     1      40.697 -11.905   4.087  1.00  0.00    -0.049 A 
HETATM   17  C   UNL     1      40.170 -12.797   3.138  1.00  0.00     0.010 A 
HETATM   18  C   UNL     1      39.039 -12.460   2.389  1.00  0.00     0.037 A 
HETATM   19  C   UNL     1      38.426 -11.230   2.595  1.00  0.00     0.065 A 
HETATM   20  C   UNL     1      38.921 -10.337   3.535  1.00  0.00     0.037 A 
HETATM   21  C   UNL     1      40.047 -10.678   4.289  1.00  0.00     0.010 A 
BRANCH  19  22
HETATM   22  O   UNL     1      37.316 -10.862   1.893  1.00  0.00    -0.361 OA
HETATM   23  H   UNL     1      37.119  -9.931   2.087  1.00  0.00     0.217 HD
ENDBRANCH  19  22
ENDBRANCH  15  16
ENDBRANCH   2  15
TORSDOF 4
ENDMDL
MODEL 6
REMARK VINA RESULT:      -7.1      2.132      2.447
REMARK  4 active torsions:
REMARK  status: ('A' for Active; 'I' for Inactive)
REMARK    1  A    between atoms: C_7  and  N_8 
REMARK       I    between atoms: N_8  and  C_9 
REMARK    2  A    between atoms: C_9  and  C_10 
REMARK    3  A    between atoms: C_10  and  C_11 
REMARK    4  A    between atoms: C_14  and  O_15 
ROOT
HETATM    1  N   UNL     1      39.835 -14.300   3.129  1.00  0.00    -0.326 N 
HETATM    2  C   UNL     1      40.025 -12.988   2.727  1.00  0.00     0.226 C 
HETATM    3  O   UNL     1      41.092 -12.380   2.737  1.00  0.00    -0.273 OA
HETATM    4  H   UNL     1      38.899 -14.676   3.041  1.00  0.00     0.169 HD
ENDROOT
BRANCH   1   5
HETATM    5  C   UNL     1      40.823 -15.175   3.630  1.00  0.00     0.053 A 
HETATM    6  C   UNL     1      41.286 -15.197   4.940  1.00  0.00     0.146 A 
HETATM    7  N   UNL     1      42.238 -16.050   5.401  1.00  0.00    -0.258 NA
HETATM    8  C   UNL     1      42.768 -16.934   4.543  1.00  0.00     0.066 A 
HETATM    9  C   UNL     1      42.369 -17.000   3.193  1.00  0.00    -0.005 A 
HETATM   10  C   UNL     1      43.740 -17.819   4.988  1.00  0.00     0.032 A 
HETATM   11  C   UNL     1      42.949 -17.952   2.332  1.00  0.00     0.014 A 
HETATM   12  C   UNL     1      41.388 -16.098   2.748  1.00  0.00     0.044 A 
HETATM   13  C   UNL     1      43.920 -18.831   2.807  1.00  0.00     0.001 A 
HETATM   14  C   UNL     1      44.319 -18.764   4.137  1.00  0.00     0.002 A 
ENDBRANCH   1   5
BRANCH   2  15
HETATM   15  C   UNL     1      38.747 -12.315   2.246  1.00  0.00     0.141 C 
BRANCH  15  16
HETATM   16  C   UNL     1      38.692 -12.059   0.758  1.00  0.00    -0.049 A 
HETATM   17  C   UNL     1      39.378 -12.917  -0.118  1.00  0.00     0.010 A 
HETATM   18  C   UNL     1      39.295 -12.743  -1.502  1.00  0.00     0.037 A 
HETATM   19  C   UNL     1      38.516 -11.712  -2.015  1.00  0.00     0.065 A 
HETATM   20  C   UNL     1      37.821 -10.859  -1.169  1.00  0.00     0.037 A 
HETATM   21  C   UNL     1      37.898 -11.038   0.214  1.00  0.00     0.010 A 
BRANCH  19  22
HETATM   22  O   UNL     1      38.400 -11.509  -3.358  1.00  0.00    -0.361 OA
HETATM   23  H   UNL     1      39.106 -11.999  -3.810  1.00  0.00     0.217 HD
ENDBRANCH  19  22
ENDBRANCH  15  16
ENDBRANCH   2  15
TORSDOF 4
ENDMDL
MODEL 7
REMARK VINA RESULT:      -7.0      2.040      2.579
REMARK  4 active torsions:
REMARK  status: ('A' for Active; 'I' for Inactive)
REMARK    1  A    between atoms: C_7  and  N_8 
REMARK       I    between atoms: N_8  and  C_9 
REMARK    2  A    between atoms: C_9  and  C_10 
REMARK    3  A    between atoms: C_10  and  C_11 
REMARK    4  A    between atoms: C_14  and  O_15 
ROOT
HETATM    1  N   UNL     1      42.045 -13.334   3.122  1.00  0.00    -0.326 N 
HETATM    2  C   UNL     1      42.752 -12.179   2.832  1.00  0.00     0.226 C 
HETATM    3  O   UNL     1      43.956 -12.012   2.998  1.00  0.00    -0.273 OA
HETATM    4  H   UNL     1      41.055 -13.333   2.909  1.00  0.00     0.169 HD
ENDROOT
BRANCH   1   5
HETATM    5  C   UNL     1      42.572 -14.526   3.666  1.00  0.00     0.053 A 
HETATM    6  C   UNL     1      42.937 -14.708   4.994  1.00  0.00     0.146 A 
HETATM    7  N   UNL     1      43.442 -15.865   5.497  1.00  0.00    -0.258 NA
HETATM    8  C   UNL     1      43.599 -16.905   4.663  1.00  0.00     0.066 A 
HETATM    9  C   UNL     1      43.257 -16.829   3.298  1.00  0.00    -0.005 A 
HETATM   10  C   UNL     1      44.109 -18.100   5.151  1.00  0.00     0.032 A 
HETATM   11  C   UNL     1      43.432 -17.951   2.465  1.00  0.00     0.014 A 
HETATM   12  C   UNL     1      42.745 -15.615   2.810  1.00  0.00     0.044 A 
HETATM   13  C   UNL     1      43.943 -19.139   2.982  1.00  0.00     0.001 A 
HETATM   14  C   UNL     1      44.285 -19.214   4.327  1.00  0.00     0.002 A 
ENDBRANCH   1   5
BRANCH   2  15
HETATM   15  C   UNL     1      41.880 -11.067   2.264  1.00  0.00     0.141 C 
BRANCH  15  16
HETATM   16  C   UNL     1      40.760 -11.542   1.367  1.00  0.00    -0.049 A 
HETATM   17  C   UNL     1      39.427 -11.271   1.722  1.00  0.00     0.010 A 
HETATM   18  C   UNL     1      38.374 -11.643   0.884  1.00  0.00     0.037 A 
HETATM   19  C   UNL     1      38.651 -12.281  -0.320  1.00  0.00     0.065 A 
HETATM   20  C   UNL     1      39.960 -12.548  -0.697  1.00  0.00     0.037 A 
HETATM   21  C   UNL     1      41.013 -12.170   0.138  1.00  0.00     0.010 A 
BRANCH  19  22
HETATM   22  O   UNL     1      37.655 -12.654  -1.173  1.00  0.00    -0.361 OA
HETATM   23  H   UNL     1      37.296 -11.859  -1.601  1.00  0.00     0.217 HD
ENDBRANCH  19  22
ENDBRANCH  15  16
ENDBRANCH   2  15
TORSDOF 4
ENDMDL
MODEL 8
REMARK VINA RESULT:      -7.0      5.199      8.128
REMARK  4 active torsions:
REMARK  status: ('A' for Active; 'I' for Inactive)
REMARK    1  A    between atoms: C_7  and  N_8 
REMARK       I    between atoms: N_8  and  C_9 
REMARK    2  A    between atoms: C_9  and  C_10 
REMARK    3  A    between atoms: C_10  and  C_11 
REMARK    4  A    between atoms: C_14  and  O_15 
ROOT
HETATM    1  N   UNL     1      42.535 -13.156   5.152  1.00  0.00    -0.326 N 
HETATM    2  C   UNL     1      41.510 -14.029   5.476  1.00  0.00     0.226 C 
HETATM    3  O   UNL     1      41.008 -14.169   6.587  1.00  0.00    -0.273 OA
HETATM    4  H   UNL     1      42.831 -13.134   4.184  1.00  0.00     0.169 HD
ENDROOT
BRANCH   1   5
HETATM    5  C   UNL     1      43.197 -12.276   6.035  1.00  0.00     0.053 A 
HETATM    6  C   UNL     1      44.410 -12.531   6.663  1.00  0.00     0.146 A 
HETATM    7  N   UNL     1      45.031 -11.668   7.510  1.00  0.00    -0.258 NA
HETATM    8  C   UNL     1      44.441 -10.489   7.759  1.00  0.00     0.066 A 
HETATM    9  C   UNL     1      43.212 -10.127   7.172  1.00  0.00    -0.005 A 
HETATM   10  C   UNL     1      45.054  -9.587   8.617  1.00  0.00     0.032 A 
HETATM   11  C   UNL     1      42.637  -8.874   7.457  1.00  0.00     0.014 A 
HETATM   12  C   UNL     1      42.595 -11.046   6.308  1.00  0.00     0.044 A 
HETATM   13  C   UNL     1      43.276  -7.985   8.320  1.00  0.00     0.001 A 
HETATM   14  C   UNL     1      44.486  -8.343   8.903  1.00  0.00     0.002 A 
ENDBRANCH   1   5
BRANCH   2  15
HETATM   15  C   UNL     1      41.022 -14.850   4.290  1.00  0.00     0.141 C 
BRANCH  15  16
HETATM   16  C   UNL     1      41.960 -15.956   3.862  1.00  0.00    -0.049 A 
HETATM   17  C   UNL     1      42.643 -16.701   4.838  1.00  0.00     0.010 A 
HETATM   18  C   UNL     1      43.468 -17.768   4.476  1.00  0.00     0.037 A 
HETATM   19  C   UNL     1      43.605 -18.101   3.133  1.00  0.00     0.065 A 
HETATM   20  C   UNL     1      42.931 -17.387   2.152  1.00  0.00     0.037 A 
HETATM   21  C   UNL     1      42.100 -16.324   2.516  1.00  0.00     0.010 A 
BRANCH  19  22
HETATM   22  O   UNL     1      44.393 -19.140   2.735  1.00  0.00    -0.361 OA
HETATM   23  H   UNL     1      44.058 -19.958   3.137  1.00  0.00     0.217 HD
ENDBRANCH  19  22
ENDBRANCH  15  16
ENDBRANCH   2  15
TORSDOF 4
ENDMDL
MODEL 9
REMARK VINA RESULT:      -6.9     13.756     15.566
REMARK  4 active torsions:
REMARK  status: ('A' for Active; 'I' for Inactive)
REMARK    1  A    between atoms: C_7  and  N_8 
REMARK       I    between atoms: N_8  and  C_9 
REMARK    2  A    between atoms: C_9  and  C_10 
REMARK    3  A    between atoms: C_10  and  C_11 
REMARK    4  A    between atoms: C_14  and  O_15 
ROOT
HETATM    1  N   UNL     1      48.432 -29.392   1.104  1.00  0.00    -0.326 N 
HETATM    2  C   UNL     1      47.611 -28.280   1.020  1.00  0.00     0.226 C 
HETATM    3  O   UNL     1      46.941 -27.809   1.934  1.00  0.00    -0.273 OA
HETATM    4  H   UNL     1      48.944 -29.650   0.270  1.00  0.00     0.169 HD
ENDROOT
BRANCH   1   5
HETATM    5  C   UNL     1      48.644 -30.193   2.247  1.00  0.00     0.053 A 
HETATM    6  C   UNL     1      47.728 -31.093   2.778  1.00  0.00     0.146 A 
HETATM    7  N   UNL     1      47.953 -31.855   3.880  1.00  0.00    -0.258 NA
HETATM    8  C   UNL     1      49.137 -31.739   4.500  1.00  0.00     0.066 A 
HETATM    9  C   UNL     1      50.140 -30.860   4.044  1.00  0.00    -0.005 A 
HETATM   10  C   UNL     1      49.396 -32.509   5.626  1.00  0.00     0.032 A 
HETATM   11  C   UNL     1      51.370 -30.781   4.724  1.00  0.00     0.014 A 
HETATM   12  C   UNL     1      49.870 -30.081   2.907  1.00  0.00     0.044 A 
HETATM   13  C   UNL     1      51.605 -31.567   5.850  1.00  0.00     0.001 A 
HETATM   14  C   UNL     1      50.615 -32.432   6.304  1.00  0.00     0.002 A 
ENDBRANCH   1   5
BRANCH   2  15
HETATM   15  C   UNL     1      47.597 -27.647  -0.365  1.00  0.00     0.141 C 
BRANCH  15  16
HETATM   16  C   UNL     1      46.622 -28.276  -1.334  1.00  0.00    -0.049 A 
HETATM   17  C   UNL     1      47.104 -29.111  -2.356  1.00  0.00     0.010 A 
HETATM   18  C   UNL     1      46.223 -29.755  -3.229  1.00  0.00     0.037 A 
HETATM   19  C   UNL     1      44.854 -29.573  -3.075  1.00  0.00     0.065 A 
HETATM   20  C   UNL     1      44.354 -28.762  -2.065  1.00  0.00     0.037 A 
HETATM   21  C   UNL     1      45.235 -28.124  -1.189  1.00  0.00     0.010 A 
BRANCH  19  22
HETATM   22  O   UNL     1      43.957 -30.188  -3.897  1.00  0.00    -0.361 OA
HETATM   23  H   UNL     1      43.991 -29.763  -4.770  1.00  0.00     0.217 HD
ENDBRANCH  19  22
ENDBRANCH  15  16
ENDBRANCH   2  15
TORSDOF 4
ENDMDL
MODEL 10
REMARK VINA RESULT:      -6.9     13.798     16.978
REMARK  4 active torsions:
REMARK  status: ('A' for Active; 'I' for Inactive)
REMARK    1  A    between atoms: C_7  and  N_8 
REMARK       I    between atoms: N_8  and  C_9 
REMARK    2  A    between atoms: C_9  and  C_10 
REMARK    3  A    between atoms: C_10  and  C_11 
REMARK    4  A    between atoms: C_14  and  O_15 
ROOT
HETATM    1  N   UNL     1      48.295 -29.218   1.112  1.00  0.00    -0.326 N 
HETATM    2  C   UNL     1      47.735 -28.557   2.192  1.00  0.00     0.226 C 
HETATM    3  O   UNL     1      46.580 -28.145   2.262  1.00  0.00    -0.273 OA
HETATM    4  H   UNL     1      49.257 -29.520   1.207  1.00  0.00     0.169 HD
ENDROOT
BRANCH   1   5
HETATM    5  C   UNL     1      47.653 -29.533  -0.105  1.00  0.00     0.053 A 
HETATM    6  C   UNL     1      47.608 -30.794  -0.686  1.00  0.00     0.146 A 
HETATM    7  N   UNL     1      46.983 -31.075  -1.860  1.00  0.00    -0.258 NA
HETATM    8  C   UNL     1      46.362 -30.075  -2.503  1.00  0.00     0.066 A 
HETATM    9  C   UNL     1      46.342 -28.758  -2.001  1.00  0.00    -0.005 A 
HETATM   10  C   UNL     1      45.712 -30.334  -3.702  1.00  0.00     0.032 A 
HETATM   11  C   UNL     1      45.669 -27.744  -2.709  1.00  0.00     0.014 A 
HETATM   12  C   UNL     1      47.006 -28.502  -0.790  1.00  0.00     0.044 A 
HETATM   13  C   UNL     1      45.021 -28.033  -3.908  1.00  0.00     0.001 A 
HETATM   14  C   UNL     1      45.044 -29.330  -4.407  1.00  0.00     0.002 A 
ENDBRANCH   1   5
BRANCH   2  15
HETATM   15  C   UNL     1      48.705 -28.364   3.349  1.00  0.00     0.141 C 
BRANCH  15  16
HETATM   16  C   UNL     1      49.072 -29.634   4.080  1.00  0.00    -0.049 A 
HETATM   17  C   UNL     1      48.056 -30.504   4.511  1.00  0.00     0.010 A 
HETATM   18  C   UNL     1      48.367 -31.715   5.134  1.00  0.00     0.037 A 
HETATM   19  C   UNL     1      49.700 -32.064   5.322  1.00  0.00     0.065 A 
HETATM   20  C   UNL     1      50.721 -31.226   4.894  1.00  0.00     0.037 A 
HETATM   21  C   UNL     1      50.409 -30.019   4.264  1.00  0.00     0.010 A 
BRANCH  19  22
HETATM   22  O   UNL     1      50.050 -33.239   5.918  1.00  0.00    -0.361 OA
HETATM   23  H   UNL     1      49.451 -33.401   6.665  1.00  0.00     0.217 HD
ENDBRANCH  19  22
ENDBRANCH  15  16
ENDBRANCH   2  15
TORSDOF 4
ENDMDL
