MODEL 1
REMARK VINA RESULT:      -9.5      0.000      0.000
REMARK  8 active torsions:
REMARK  status: ('A' for Active; 'I' for Inactive)
REMARK    1  A    between atoms: N_2  and  C_3 
REMARK    2  A    between atoms: C_4  and  C_5 
REMARK       I    between atoms: C_5  and  N_6 
REMARK    3  A    between atoms: N_6  and  C_7 
REMARK    4  A    between atoms: C_7  and  C_8 
REMARK    5  A    between atoms: N_13  and  C_15 
REMARK    6  A    between atoms: C_15  and  C_16 
REMARK    7  A    between atoms: C_16  and  C_17 
REMARK    8  A    between atoms: C_17  and  C_18 
ROOT
HETATM    1  C   UNL     1      44.040 -10.230   7.874  1.00  0.00     0.140 C 
HETATM    2  O   UNL     1      43.268 -11.013   6.942  1.00  0.00    -0.373 OA
HETATM    3  C   UNL     1      44.134 -11.932   6.249  1.00  0.00     0.064 C 
HETATM    4  C   UNL     1      43.930 -11.669   4.753  1.00  0.00     0.066 C 
HETATM    5  C   UNL     1      42.502 -11.996   4.321  1.00  0.00     0.237 C 
HETATM    6  N   UNL     1      42.130 -13.421   4.684  1.00  0.00    -0.071 N 
HETATM    7  H   UNL     1      41.117 -13.478   4.522  1.00  0.00     0.279 HD
HETATM    8  C   UNL     1      42.289 -13.636   6.181  1.00  0.00     0.237 C 
HETATM    9  C   UNL     1      43.725 -13.367   6.594  1.00  0.00     0.066 C 
HETATM   10  C   UNL     1      45.561 -11.629   6.713  1.00  0.00     0.041 C 
HETATM   11  C   UNL     1      45.450 -10.246   7.312  1.00  0.00     0.036 C 
ENDROOT
BRANCH   1  12
HETATM   12  C   UNL     1      43.948 -10.828   9.291  1.00  0.00     0.155 C 
BRANCH  12  13
HETATM   13  N   UNL     1      43.337  -9.906  10.234  1.00  0.00    -0.354 N 
HETATM   14  C   UNL     1      43.250 -10.168  11.590  1.00  0.00     0.253 C 
HETATM   15  O   UNL     1      43.706 -11.174  12.120  1.00  0.00    -0.268 OA
HETATM   16  H   UNL     1      42.849  -9.099   9.865  1.00  0.00     0.162 HD
BRANCH  14  17
HETATM   17  C   UNL     1      42.577  -9.093  12.375  1.00  0.00     0.053 A 
HETATM   18  C   UNL     1      41.174  -9.058  12.555  1.00  0.00     0.025 A 
HETATM   19  C   UNL     1      40.649  -7.986  13.306  1.00  0.00     0.025 A 
HETATM   20  C   UNL     1      41.473  -7.005  13.867  1.00  0.00     0.002 A 
HETATM   21  C   UNL     1      42.850  -7.069  13.697  1.00  0.00     0.001 A 
HETATM   22  C   UNL     1      43.402  -8.111  12.957  1.00  0.00     0.019 A 
BRANCH  18  23
HETATM   23  N   UNL     1      40.320 -10.016  11.950  1.00  0.00    -0.291 NA
HETATM   24  C   UNL     1      39.636  -9.441  10.790  1.00  0.00     0.116 C 
HETATM   25  C   UNL     1      39.444 -10.725  12.887  1.00  0.00     0.116 C 
ENDBRANCH  18  23
ENDBRANCH  14  17
ENDBRANCH  12  13
ENDBRANCH   1  12
BRANCH   6  26
HETATM   26  C   UNL     1      42.775 -14.442   3.773  1.00  0.00     0.235 C 
BRANCH  26  27
HETATM   27  C   UNL     1      42.514 -15.888   4.178  1.00  0.00     0.032 C 
BRANCH  27  28
HETATM   28  C   UNL     1      43.772 -16.670   4.557  1.00  0.00     0.040 C 
BRANCH  28  29
HETATM   29  C   UNL     1      43.712 -18.070   4.006  1.00  0.00    -0.058 A 
HETATM   30  C   UNL     1      44.070 -19.162   4.810  1.00  0.00     0.007 A 
HETATM   31  C   UNL     1      44.058 -20.456   4.288  1.00  0.00     0.001 A 
HETATM   32  C   UNL     1      43.693 -20.670   2.960  1.00  0.00     0.000 A 
HETATM   33  C   UNL     1      43.338 -19.591   2.154  1.00  0.00     0.001 A 
HETATM   34  C   UNL     1      43.349 -18.296   2.672  1.00  0.00     0.007 A 
ENDBRANCH  28  29
ENDBRANCH  27  28
ENDBRANCH  26  27
ENDBRANCH   6  26
TORSDOF 8
ENDMDL
MODEL 2
REMARK VINA RESULT:      -9.0      1.086      1.549
REMARK  8 active torsions:
REMARK  status: ('A' for Active; 'I' for Inactive)
REMARK    1  A    between atoms: N_2  and  C_3 
REMARK    2  A    between atoms: C_4  and  C_5 
REMARK       I    between atoms: C_5  and  N_6 
REMARK    3  A    between atoms: N_6  and  C_7 
REMARK    4  A    between atoms: C_7  and  C_8 
REMARK    5  A    between atoms: N_13  and  C_15 
REMARK    6  A    between atoms: C_15  and  C_16 
REMARK    7  A    between atoms: C_16  and  C_17 
REMARK    8  A    between atoms: C_17  and  C_18 
ROOT
HETATM    1  C   UNL     1      44.078 -10.341   7.810  1.00  0.00     0.140 C 
HETATM    2  O   UNL     1      43.325 -11.113   6.854  1.00  0.00    -0.373 OA
HETATM    3  C   UNL     1      44.226 -11.884   6.036  1.00  0.00     0.064 C 
HETATM    4  C   UNL     1      43.907 -11.516   4.583  1.00  0.00     0.066 C 
HETATM    5  C   UNL     1      42.491 -11.941   4.200  1.00  0.00     0.237 C 
HETATM    6  N   UNL     1      42.273 -13.421   4.453  1.00  0.00    -0.071 N 
HETATM    7  H   UNL     1      41.262 -13.562   4.341  1.00  0.00     0.279 HD
HETATM    8  C   UNL     1      42.543 -13.745   5.915  1.00  0.00     0.237 C 
HETATM    9  C   UNL     1      43.971 -13.375   6.272  1.00  0.00     0.066 C 
HETATM   10  C   UNL     1      45.645 -11.485   6.448  1.00  0.00     0.041 C 
HETATM   11  C   UNL     1      45.446 -10.174   7.174  1.00  0.00     0.036 C 
ENDROOT
BRANCH   1  12
HETATM   12  C   UNL     1      44.128 -11.062   9.171  1.00  0.00     0.155 C 
BRANCH  12  13
HETATM   13  N   UNL     1      43.162 -10.520  10.111  1.00  0.00    -0.354 N 
HETATM   14  C   UNL     1      43.496  -9.583  11.072  1.00  0.00     0.253 C 
HETATM   15  O   UNL     1      44.616  -9.103  11.197  1.00  0.00    -0.268 OA
HETATM   16  H   UNL     1      42.238 -10.935  10.141  1.00  0.00     0.162 HD
BRANCH  14  17
HETATM   17  C   UNL     1      42.354  -9.168  11.940  1.00  0.00     0.053 A 
HETATM   18  C   UNL     1      41.111  -8.759  11.404  1.00  0.00     0.025 A 
HETATM   19  C   UNL     1      40.110  -8.378  12.321  1.00  0.00     0.025 A 
HETATM   20  C   UNL     1      40.322  -8.417  13.703  1.00  0.00     0.002 A 
HETATM   21  C   UNL     1      41.544  -8.841  14.210  1.00  0.00     0.001 A 
HETATM   22  C   UNL     1      42.556  -9.221  13.333  1.00  0.00     0.019 A 
BRANCH  18  23
HETATM   23  N   UNL     1      40.896  -8.666  10.004  1.00  0.00    -0.291 NA
HETATM   24  C   UNL     1      40.983  -7.274   9.559  1.00  0.00     0.116 C 
HETATM   25  C   UNL     1      39.716  -9.389   9.523  1.00  0.00     0.116 C 
ENDBRANCH  18  23
ENDBRANCH  14  17
ENDBRANCH  12  13
ENDBRANCH   1  12
BRANCH   6  26
HETATM   26  C   UNL     1      42.951 -14.296   3.422  1.00  0.00     0.235 C 
BRANCH  26  27
HETATM   27  C   UNL     1      43.026 -15.768   3.809  1.00  0.00     0.032 C 
BRANCH  27  28
HETATM   28  C   UNL     1      43.054 -16.728   2.619  1.00  0.00     0.040 C 
BRANCH  28  29
HETATM   29  C   UNL     1      43.422 -18.118   3.068  1.00  0.00    -0.058 A 
HETATM   30  C   UNL     1      43.243 -19.209   2.206  1.00  0.00     0.007 A 
HETATM   31  C   UNL     1      43.541 -20.503   2.635  1.00  0.00     0.001 A 
HETATM   32  C   UNL     1      44.017 -20.718   3.926  1.00  0.00     0.000 A 
HETATM   33  C   UNL     1      44.196 -19.640   4.790  1.00  0.00     0.001 A 
HETATM   34  C   UNL     1      43.899 -18.344   4.365  1.00  0.00     0.007 A 
ENDBRANCH  28  29
ENDBRANCH  27  28
ENDBRANCH  26  27
ENDBRANCH   6  26
TORSDOF 8
ENDMDL
MODEL 3
REMARK VINA RESULT:      -8.9      2.000     11.071
REMARK  8 active torsions:
REMARK  status: ('A' for Active; 'I' for Inactive)
REMARK    1  A    between atoms: N_2  and  C_3 
REMARK    2  A    between atoms: C_4  and  C_5 
REMARK       I    between atoms: C_5  and  N_6 
REMARK    3  A    between atoms: N_6  and  C_7 
REMARK    4  A    between atoms: C_7  and  C_8 
REMARK    5  A    between atoms: N_13  and  C_15 
REMARK    6  A    between atoms: C_15  and  C_16 
REMARK    7  A    between atoms: C_16  and  C_17 
REMARK    8  A    between atoms: C_17  and  C_18 
ROOT
HETATM    1  C   UNL     1      44.857 -11.657   7.426  1.00  0.00     0.140 C 
HETATM    2  O   UNL     1      44.166 -11.229   8.616  1.00  0.00    -0.373 OA
HETATM    3  C   UNL     1      44.556  -9.882   8.944  1.00  0.00     0.064 C 
HETATM    4  C   UNL     1      45.070  -9.923  10.388  1.00  0.00     0.066 C 
HETATM    5  C   UNL     1      43.959 -10.311  11.362  1.00  0.00     0.237 C 
HETATM    6  N   UNL     1      42.764  -9.386  11.230  1.00  0.00    -0.071 N 
HETATM    7  H   UNL     1      42.022  -9.833  11.781  1.00  0.00     0.279 HD
HETATM    8  C   UNL     1      42.243  -9.408   9.801  1.00  0.00     0.237 C 
HETATM    9  C   UNL     1      43.335  -8.964   8.845  1.00  0.00     0.066 C 
HETATM   10  C   UNL     1      45.643  -9.481   7.943  1.00  0.00     0.041 C 
HETATM   11  C   UNL     1      46.113 -10.805   7.385  1.00  0.00     0.036 C 
ENDROOT
BRANCH   1  12
HETATM   12  C   UNL     1      43.963 -11.476   6.185  1.00  0.00     0.155 C 
BRANCH  12  13
HETATM   13  N   UNL     1      43.905 -12.679   5.373  1.00  0.00    -0.354 N 
HETATM   14  C   UNL     1      42.775 -13.055   4.668  1.00  0.00     0.253 C 
HETATM   15  O   UNL     1      41.742 -12.398   4.636  1.00  0.00    -0.268 OA
HETATM   16  H   UNL     1      44.682 -13.328   5.423  1.00  0.00     0.162 HD
BRANCH  14  17
HETATM   17  C   UNL     1      42.929 -14.329   3.907  1.00  0.00     0.053 A 
HETATM   18  C   UNL     1      43.097 -15.576   4.553  1.00  0.00     0.025 A 
HETATM   19  C   UNL     1      43.244 -16.712   3.730  1.00  0.00     0.025 A 
HETATM   20  C   UNL     1      43.211 -16.621   2.335  1.00  0.00     0.002 A 
HETATM   21  C   UNL     1      43.025 -15.390   1.720  1.00  0.00     0.001 A 
HETATM   22  C   UNL     1      42.880 -14.247   2.502  1.00  0.00     0.019 A 
BRANCH  18  23
HETATM   23  N   UNL     1      43.183 -15.680   5.966  1.00  0.00    -0.291 NA
HETATM   24  C   UNL     1      44.412 -16.371   6.360  1.00  0.00     0.116 C 
HETATM   25  C   UNL     1      41.967 -16.179   6.613  1.00  0.00     0.116 C 
ENDBRANCH  18  23
ENDBRANCH  14  17
ENDBRANCH  12  13
ENDBRANCH   1  12
BRANCH   6  26
HETATM   26  C   UNL     1      43.007  -8.027  11.849  1.00  0.00     0.235 C 
BRANCH  26  27
HETATM   27  C   UNL     1      43.076  -8.041  13.371  1.00  0.00     0.032 C 
BRANCH  27  28
HETATM   28  C   UNL     1      41.962  -8.847  14.041  1.00  0.00     0.040 C 
BRANCH  28  29
HETATM   29  C   UNL     1      41.091  -7.951  14.882  1.00  0.00    -0.058 A 
HETATM   30  C   UNL     1      40.131  -7.128  14.276  1.00  0.00     0.007 A 
HETATM   31  C   UNL     1      39.354  -6.264  15.050  1.00  0.00     0.001 A 
HETATM   32  C   UNL     1      39.531  -6.212  16.431  1.00  0.00     0.000 A 
HETATM   33  C   UNL     1      40.485  -7.025  17.040  1.00  0.00     0.001 A 
HETATM   34  C   UNL     1      41.264  -7.890  16.271  1.00  0.00     0.007 A 
ENDBRANCH  28  29
ENDBRANCH  27  28
ENDBRANCH  26  27
ENDBRANCH   6  26
TORSDOF 8
ENDMDL
MODEL 4
REMARK VINA RESULT:      -8.7      2.402      4.111
REMARK  8 active torsions:
REMARK  status: ('A' for Active; 'I' for Inactive)
REMARK    1  A    between atoms: N_2  and  C_3 
REMARK    2  A    between atoms: C_4  and  C_5 
REMARK       I    between atoms: C_5  and  N_6 
REMARK    3  A    between atoms: N_6  and  C_7 
REMARK    4  A    between atoms: C_7  and  C_8 
REMARK    5  A    between atoms: N_13  and  C_15 
REMARK    6  A    between atoms: C_15  and  C_16 
REMARK    7  A    between atoms: C_16  and  C_17 
REMARK    8  A    between atoms: C_17  and  C_18 
ROOT
HETATM    1  C   UNL     1      40.196 -10.071   5.464  1.00  0.00     0.140 C 
HETATM    2  O   UNL     1      40.809 -11.369   5.338  1.00  0.00    -0.373 OA
HETATM    3  C   UNL     1      40.968 -11.696   3.944  1.00  0.00     0.064 C 
HETATM    4  C   UNL     1      40.267 -13.043   3.736  1.00  0.00     0.066 C 
HETATM    5  C   UNL     1      40.950 -14.154   4.531  1.00  0.00     0.237 C 
HETATM    6  N   UNL     1      42.426 -14.245   4.193  1.00  0.00    -0.071 N 
HETATM    7  H   UNL     1      42.820 -14.880   4.897  1.00  0.00     0.279 HD
HETATM    8  C   UNL     1      43.106 -12.911   4.461  1.00  0.00     0.237 C 
HETATM    9  C   UNL     1      42.460 -11.822   3.623  1.00  0.00     0.066 C 
HETATM   10  C   UNL     1      40.316 -10.563   3.148  1.00  0.00     0.041 C 
HETATM   11  C   UNL     1      39.431  -9.881   4.166  1.00  0.00     0.036 C 
ENDROOT
BRANCH   1  12
HETATM   12  C   UNL     1      41.266  -8.987   5.700  1.00  0.00     0.155 C 
BRANCH  12  13
HETATM   13  N   UNL     1      41.849  -9.076   7.028  1.00  0.00    -0.354 N 
HETATM   14  C   UNL     1      42.464  -8.003   7.650  1.00  0.00     0.253 C 
HETATM   15  O   UNL     1      42.542  -6.884   7.158  1.00  0.00    -0.268 OA
HETATM   16  H   UNL     1      41.914  -9.989   7.462  1.00  0.00     0.162 HD
BRANCH  14  17
HETATM   17  C   UNL     1      43.003  -8.314   9.006  1.00  0.00     0.053 A 
HETATM   18  C   UNL     1      44.173  -9.087   9.192  1.00  0.00     0.025 A 
HETATM   19  C   UNL     1      44.580  -9.326  10.521  1.00  0.00     0.025 A 
HETATM   20  C   UNL     1      43.874  -8.811  11.613  1.00  0.00     0.002 A 
HETATM   21  C   UNL     1      42.739  -8.038  11.408  1.00  0.00     0.001 A 
HETATM   22  C   UNL     1      42.306  -7.785  10.110  1.00  0.00     0.019 A 
BRANCH  18  23
HETATM   23  N   UNL     1      44.872  -9.658   8.098  1.00  0.00    -0.291 NA
HETATM   24  C   UNL     1      44.616 -11.097   8.015  1.00  0.00     0.116 C 
HETATM   25  C   UNL     1      46.286  -9.284   8.019  1.00  0.00     0.116 C 
ENDBRANCH  18  23
ENDBRANCH  14  17
ENDBRANCH  12  13
ENDBRANCH   1  12
BRANCH   6  26
HETATM   26  C   UNL     1      42.677 -14.881   2.843  1.00  0.00     0.235 C 
BRANCH  26  27
HETATM   27  C   UNL     1      42.217 -16.331   2.746  1.00  0.00     0.032 C 
BRANCH  27  28
HETATM   28  C   UNL     1      43.216 -17.259   2.053  1.00  0.00     0.040 C 
BRANCH  28  29
HETATM   29  C   UNL     1      43.548 -18.434   2.936  1.00  0.00    -0.058 A 
HETATM   30  C   UNL     1      43.521 -19.737   2.419  1.00  0.00     0.007 A 
HETATM   31  C   UNL     1      43.785 -20.829   3.246  1.00  0.00     0.001 A 
HETATM   32  C   UNL     1      44.073 -20.631   4.595  1.00  0.00     0.000 A 
HETATM   33  C   UNL     1      44.100 -19.340   5.118  1.00  0.00     0.001 A 
HETATM   34  C   UNL     1      43.837 -18.244   4.294  1.00  0.00     0.007 A 
ENDBRANCH  28  29
ENDBRANCH  27  28
ENDBRANCH  26  27
ENDBRANCH   6  26
TORSDOF 8
ENDMDL
MODEL 5
REMARK VINA RESULT:      -8.7      1.860      2.588
REMARK  8 active torsions:
REMARK  status: ('A' for Active; 'I' for Inactive)
REMARK    1  A    between atoms: N_2  and  C_3 
REMARK    2  A    between atoms: C_4  and  C_5 
REMARK       I    between atoms: C_5  and  N_6 
REMARK    3  A    between atoms: N_6  and  C_7 
REMARK    4  A    between atoms: C_7  and  C_8 
REMARK    5  A    between atoms: N_13  and  C_15 
REMARK    6  A    between atoms: C_15  and  C_16 
REMARK    7  A    between atoms: C_16  and  C_17 
REMARK    8  A    between atoms: C_17  and  C_18 
ROOT
HETATM    1  C   UNL     1      41.605 -10.331   6.154  1.00  0.00     0.140 C 
HETATM    2  O   UNL     1      41.388 -11.690   5.726  1.00  0.00    -0.373 OA
HETATM    3  C   UNL     1      41.890 -11.861   4.386  1.00  0.00     0.064 C 
HETATM    4  C   UNL     1      40.721 -12.402   3.556  1.00  0.00     0.066 C 
HETATM    5  C   UNL     1      40.286 -13.783   4.044  1.00  0.00     0.237 C 
HETATM    6  N   UNL     1      41.450 -14.755   4.054  1.00  0.00    -0.071 N 
HETATM    7  H   UNL     1      41.102 -15.579   4.560  1.00  0.00     0.279 HD
HETATM    8  C   UNL     1      42.571 -14.217   4.929  1.00  0.00     0.237 C 
HETATM    9  C   UNL     1      43.039 -12.872   4.403  1.00  0.00     0.066 C 
HETATM   10  C   UNL     1      42.361 -10.483   3.913  1.00  0.00     0.041 C 
HETATM   11  C   UNL     1      41.678  -9.530   4.867  1.00  0.00     0.036 C 
ENDROOT
BRANCH   1  12
HETATM   12  C   UNL     1      42.887 -10.228   7.004  1.00  0.00     0.155 C 
BRANCH  12  13
HETATM   13  N   UNL     1      42.598  -9.901   8.389  1.00  0.00    -0.354 N 
HETATM   14  C   UNL     1      42.963  -8.698   8.967  1.00  0.00     0.253 C 
HETATM   15  O   UNL     1      43.527  -7.794   8.362  1.00  0.00    -0.268 OA
HETATM   16  H   UNL     1      42.224 -10.630   8.985  1.00  0.00     0.162 HD
BRANCH  14  17
HETATM   17  C   UNL     1      42.578  -8.571  10.404  1.00  0.00     0.053 A 
HETATM   18  C   UNL     1      41.228  -8.580  10.825  1.00  0.00     0.025 A 
HETATM   19  C   UNL     1      40.985  -8.441  12.207  1.00  0.00     0.025 A 
HETATM   20  C   UNL     1      42.029  -8.317  13.130  1.00  0.00     0.002 A 
HETATM   21  C   UNL     1      43.348  -8.331  12.698  1.00  0.00     0.001 A 
HETATM   22  C   UNL     1      43.624  -8.462  11.341  1.00  0.00     0.019 A 
BRANCH  18  23
HETATM   23  N   UNL     1      40.157  -8.655   9.897  1.00  0.00    -0.291 NA
HETATM   24  C   UNL     1      39.426  -7.388   9.848  1.00  0.00     0.116 C 
HETATM   25  C   UNL     1      39.312  -9.844  10.041  1.00  0.00     0.116 C 
ENDBRANCH  18  23
ENDBRANCH  14  17
ENDBRANCH  12  13
ENDBRANCH   1  12
BRANCH   6  26
HETATM   26  C   UNL     1      41.830 -15.224   2.667  1.00  0.00     0.235 C 
BRANCH  26  27
HETATM   27  C   UNL     1      41.799 -16.738   2.494  1.00  0.00     0.032 C 
BRANCH  27  28
HETATM   28  C   UNL     1      43.124 -17.342   2.026  1.00  0.00     0.040 C 
BRANCH  28  29
HETATM   29  C   UNL     1      43.511 -18.510   2.895  1.00  0.00    -0.058 A 
HETATM   30  C   UNL     1      43.538 -19.808   2.363  1.00  0.00     0.007 A 
HETATM   31  C   UNL     1      43.853 -20.896   3.177  1.00  0.00     0.001 A 
HETATM   32  C   UNL     1      44.137 -20.701   4.527  1.00  0.00     0.000 A 
HETATM   33  C   UNL     1      44.110 -19.415   5.064  1.00  0.00     0.001 A 
HETATM   34  C   UNL     1      43.796 -18.323   4.253  1.00  0.00     0.007 A 
ENDBRANCH  28  29
ENDBRANCH  27  28
ENDBRANCH  26  27
ENDBRANCH   6  26
TORSDOF 8
ENDMDL
MODEL 6
REMARK VINA RESULT:      -8.7      2.377      4.340
REMARK  8 active torsions:
REMARK  status: ('A' for Active; 'I' for Inactive)
REMARK    1  A    between atoms: N_2  and  C_3 
REMARK    2  A    between atoms: C_4  and  C_5 
REMARK       I    between atoms: C_5  and  N_6 
REMARK    3  A    between atoms: N_6  and  C_7 
REMARK    4  A    between atoms: C_7  and  C_8 
REMARK    5  A    between atoms: N_13  and  C_15 
REMARK    6  A    between atoms: C_15  and  C_16 
REMARK    7  A    between atoms: C_16  and  C_17 
REMARK    8  A    between atoms: C_17  and  C_18 
ROOT
HETATM    1  C   UNL     1      39.663 -12.063   6.127  1.00  0.00     0.140 C 
HETATM    2  O   UNL     1      40.604 -13.067   6.554  1.00  0.00    -0.373 OA
HETATM    3  C   UNL     1      41.249 -13.646   5.403  1.00  0.00     0.064 C 
HETATM    4  C   UNL     1      41.021 -15.159   5.500  1.00  0.00     0.066 C 
HETATM    5  C   UNL     1      41.706 -15.746   6.732  1.00  0.00     0.237 C 
HETATM    6  N   UNL     1      43.185 -15.411   6.751  1.00  0.00    -0.071 N 
HETATM    7  H   UNL     1      43.506 -15.686   7.688  1.00  0.00     0.279 HD
HETATM    8  C   UNL     1      43.379 -13.903   6.710  1.00  0.00     0.237 C 
HETATM    9  C   UNL     1      42.747 -13.334   5.453  1.00  0.00     0.066 C 
HETATM   10  C   UNL     1      40.587 -13.028   4.169  1.00  0.00     0.041 C 
HETATM   11  C   UNL     1      39.294 -12.462   4.709  1.00  0.00     0.036 C 
ENDROOT
BRANCH   1  12
HETATM   12  C   UNL     1      40.290 -10.658   6.215  1.00  0.00     0.155 C 
BRANCH  12  13
HETATM   13  N   UNL     1      41.339 -10.591   7.219  1.00  0.00    -0.354 N 
HETATM   14  C   UNL     1      42.186  -9.504   7.347  1.00  0.00     0.253 C 
HETATM   15  O   UNL     1      42.110  -8.495   6.656  1.00  0.00    -0.268 OA
HETATM   16  H   UNL     1      41.533 -11.422   7.765  1.00  0.00     0.162 HD
BRANCH  14  17
HETATM   17  C   UNL     1      43.196  -9.646   8.436  1.00  0.00     0.053 A 
HETATM   18  C   UNL     1      42.913  -9.295   9.777  1.00  0.00     0.025 A 
HETATM   19  C   UNL     1      43.950  -9.460  10.718  1.00  0.00     0.025 A 
HETATM   20  C   UNL     1      45.203  -9.965  10.353  1.00  0.00     0.002 A 
HETATM   21  C   UNL     1      45.454 -10.324   9.036  1.00  0.00     0.001 A 
HETATM   22  C   UNL     1      44.455 -10.170   8.080  1.00  0.00     0.019 A 
BRANCH  18  23
HETATM   23  N   UNL     1      41.665  -8.734  10.153  1.00  0.00    -0.291 NA
HETATM   24  C   UNL     1      41.839  -7.365  10.643  1.00  0.00     0.116 C 
HETATM   25  C   UNL     1      40.850  -9.593  11.017  1.00  0.00     0.116 C 
ENDBRANCH  18  23
ENDBRANCH  14  17
ENDBRANCH  12  13
ENDBRANCH   1  12
BRANCH   6  26
HETATM   26  C   UNL     1      43.982 -16.231   5.760  1.00  0.00     0.235 C 
BRANCH  26  27
HETATM   27  C   UNL     1      43.218 -17.413   5.175  1.00  0.00     0.032 C 
BRANCH  27  28
HETATM   28  C   UNL     1      43.525 -17.690   3.703  1.00  0.00     0.040 C 
BRANCH  28  29
HETATM   29  C   UNL     1      42.786 -16.722   2.816  1.00  0.00    -0.058 A 
HETATM   30  C   UNL     1      43.427 -15.569   2.341  1.00  0.00     0.007 A 
HETATM   31  C   UNL     1      42.732 -14.648   1.556  1.00  0.00     0.001 A 
HETATM   32  C   UNL     1      41.392 -14.869   1.242  1.00  0.00     0.000 A 
HETATM   33  C   UNL     1      40.747 -16.011   1.712  1.00  0.00     0.001 A 
HETATM   34  C   UNL     1      41.439 -16.934   2.497  1.00  0.00     0.007 A 
ENDBRANCH  28  29
ENDBRANCH  27  28
ENDBRANCH  26  27
ENDBRANCH   6  26
TORSDOF 8
ENDMDL
MODEL 7
REMARK VINA RESULT:      -8.6      2.276      3.819
REMARK  8 active torsions:
REMARK  status: ('A' for Active; 'I' for Inactive)
REMARK    1  A    between atoms: N_2  and  C_3 
REMARK    2  A    between atoms: C_4  and  C_5 
REMARK       I    between atoms: C_5  and  N_6 
REMARK    3  A    between atoms: N_6  and  C_7 
REMARK    4  A    between atoms: C_7  and  C_8 
REMARK    5  A    between atoms: N_13  and  C_15 
REMARK    6  A    between atoms: C_15  and  C_16 
REMARK    7  A    between atoms: C_16  and  C_17 
REMARK    8  A    between atoms: C_17  and  C_18 
ROOT
HETATM    1  C   UNL     1      39.418  -9.926   6.335  1.00  0.00     0.140 C 
HETATM    2  O   UNL     1      40.180 -11.148   6.314  1.00  0.00    -0.373 OA
HETATM    3  C   UNL     1      40.462 -11.520   4.950  1.00  0.00     0.064 C 
HETATM    4  C   UNL     1      39.932 -12.947   4.776  1.00  0.00     0.066 C 
HETATM    5  C   UNL     1      40.686 -13.932   5.666  1.00  0.00     0.237 C 
HETATM    6  N   UNL     1      42.181 -13.867   5.417  1.00  0.00    -0.071 N 
HETATM    7  H   UNL     1      42.600 -14.419   6.175  1.00  0.00     0.279 HD
HETATM    8  C   UNL     1      42.687 -12.452   5.651  1.00  0.00     0.237 C 
HETATM    9  C   UNL     1      41.976 -11.486   4.721  1.00  0.00     0.066 C 
HETATM   10  C   UNL     1      39.737 -10.508   4.059  1.00  0.00     0.041 C 
HETATM   11  C   UNL     1      38.719  -9.887   4.988  1.00  0.00     0.036 C 
ENDROOT
BRANCH   1  12
HETATM   12  C   UNL     1      40.342  -8.715   6.572  1.00  0.00     0.155 C 
BRANCH  12  13
HETATM   13  N   UNL     1      41.427  -9.027   7.486  1.00  0.00    -0.354 N 
HETATM   14  C   UNL     1      42.441  -8.132   7.780  1.00  0.00     0.253 C 
HETATM   15  O   UNL     1      42.497  -6.994   7.328  1.00  0.00    -0.268 OA
HETATM   16  H   UNL     1      41.509  -9.978   7.824  1.00  0.00     0.162 HD
BRANCH  14  17
HETATM   17  C   UNL     1      43.459  -8.659   8.735  1.00  0.00     0.053 A 
HETATM   18  C   UNL     1      43.142  -8.974  10.076  1.00  0.00     0.025 A 
HETATM   19  C   UNL     1      44.189  -9.453  10.890  1.00  0.00     0.025 A 
HETATM   20  C   UNL     1      45.486  -9.628  10.395  1.00  0.00     0.002 A 
HETATM   21  C   UNL     1      45.772  -9.332   9.069  1.00  0.00     0.001 A 
HETATM   22  C   UNL     1      44.763  -8.853   8.239  1.00  0.00     0.019 A 
BRANCH  18  23
HETATM   23  N   UNL     1      41.844  -8.754  10.607  1.00  0.00    -0.291 NA
HETATM   24  C   UNL     1      41.669  -7.350  10.982  1.00  0.00     0.116 C 
HETATM   25  C   UNL     1      41.439  -9.716  11.636  1.00  0.00     0.116 C 
ENDBRANCH  18  23
ENDBRANCH  14  17
ENDBRANCH  12  13
ENDBRANCH   1  12
BRANCH   6  26
HETATM   26  C   UNL     1      42.586 -14.532   4.120  1.00  0.00     0.235 C 
BRANCH  26  27
HETATM   27  C   UNL     1      42.883 -16.021   4.252  1.00  0.00     0.032 C 
BRANCH  27  28
HETATM   28  C   UNL     1      43.224 -16.712   2.931  1.00  0.00     0.040 C 
BRANCH  28  29
HETATM   29  C   UNL     1      43.502 -18.175   3.154  1.00  0.00    -0.058 A 
HETATM   30  C   UNL     1      43.251 -19.105   2.135  1.00  0.00     0.007 A 
HETATM   31  C   UNL     1      43.465 -20.467   2.355  1.00  0.00     0.001 A 
HETATM   32  C   UNL     1      43.928 -20.910   3.591  1.00  0.00     0.000 A 
HETATM   33  C   UNL     1      44.179 -19.993   4.610  1.00  0.00     0.001 A 
HETATM   34  C   UNL     1      43.965 -18.631   4.395  1.00  0.00     0.007 A 
ENDBRANCH  28  29
ENDBRANCH  27  28
ENDBRANCH  26  27
ENDBRANCH   6  26
TORSDOF 8
ENDMDL
MODEL 8
REMARK VINA RESULT:      -8.6      2.086      3.069
REMARK  8 active torsions:
REMARK  status: ('A' for Active; 'I' for Inactive)
REMARK    1  A    between atoms: N_2  and  C_3 
REMARK    2  A    between atoms: C_4  and  C_5 
REMARK       I    between atoms: C_5  and  N_6 
REMARK    3  A    between atoms: N_6  and  C_7 
REMARK    4  A    between atoms: C_7  and  C_8 
REMARK    5  A    between atoms: N_13  and  C_15 
REMARK    6  A    between atoms: C_15  and  C_16 
REMARK    7  A    between atoms: C_16  and  C_17 
REMARK    8  A    between atoms: C_17  and  C_18 
ROOT
HETATM    1  C   UNL     1      40.803  -9.661   5.953  1.00  0.00     0.140 C 
HETATM    2  O   UNL     1      40.979 -10.614   4.887  1.00  0.00    -0.373 OA
HETATM    3  C   UNL     1      42.159 -11.403   5.133  1.00  0.00     0.064 C 
HETATM    4  C   UNL     1      43.040 -11.258   3.887  1.00  0.00     0.066 C 
HETATM    5  C   UNL     1      42.361 -11.851   2.654  1.00  0.00     0.237 C 
HETATM    6  N   UNL     1      41.969 -13.298   2.885  1.00  0.00    -0.071 N 
HETATM    7  H   UNL     1      41.371 -13.541   2.086  1.00  0.00     0.279 HD
HETATM    8  C   UNL     1      41.051 -13.404   4.093  1.00  0.00     0.237 C 
HETATM    9  C   UNL     1      41.755 -12.867   5.327  1.00  0.00     0.066 C 
HETATM   10  C   UNL     1      42.818 -10.831   6.391  1.00  0.00     0.041 C 
HETATM   11  C   UNL     1      42.197  -9.459   6.521  1.00  0.00     0.036 C 
ENDROOT
BRANCH   1  12
HETATM   12  C   UNL     1      39.798 -10.190   6.994  1.00  0.00     0.155 C 
BRANCH  12  13
HETATM   13  N   UNL     1      40.316 -10.101   8.348  1.00  0.00    -0.354 N 
HETATM   14  C   UNL     1      39.679  -9.388   9.349  1.00  0.00     0.253 C 
HETATM   15  O   UNL     1      38.615  -8.801   9.196  1.00  0.00    -0.268 OA
HETATM   16  H   UNL     1      41.239 -10.474   8.533  1.00  0.00     0.162 HD
BRANCH  14  17
HETATM   17  C   UNL     1      40.387  -9.420  10.663  1.00  0.00     0.053 A 
HETATM   18  C   UNL     1      41.657  -8.826  10.848  1.00  0.00     0.025 A 
HETATM   19  C   UNL     1      42.234  -8.930  12.131  1.00  0.00     0.025 A 
HETATM   20  C   UNL     1      41.578  -9.576  13.184  1.00  0.00     0.002 A 
HETATM   21  C   UNL     1      40.322 -10.135  12.987  1.00  0.00     0.001 A 
HETATM   22  C   UNL     1      39.725 -10.055  11.732  1.00  0.00     0.019 A 
BRANCH  18  23
HETATM   23  N   UNL     1      42.357  -8.211   9.778  1.00  0.00    -0.291 NA
HETATM   24  C   UNL     1      43.747  -8.667   9.740  1.00  0.00     0.116 C 
HETATM   25  C   UNL     1      42.188  -6.758   9.698  1.00  0.00     0.116 C 
ENDBRANCH  18  23
ENDBRANCH  14  17
ENDBRANCH  12  13
ENDBRANCH   1  12
BRANCH   6  26
HETATM   26  C   UNL     1      43.154 -14.238   2.842  1.00  0.00     0.235 C 
BRANCH  26  27
HETATM   27  C   UNL     1      42.826 -15.671   3.244  1.00  0.00     0.032 C 
BRANCH  27  28
HETATM   28  C   UNL     1      43.173 -16.715   2.182  1.00  0.00     0.040 C 
BRANCH  28  29
HETATM   29  C   UNL     1      43.424 -18.056   2.819  1.00  0.00    -0.058 A 
HETATM   30  C   UNL     1      43.835 -18.137   4.158  1.00  0.00     0.007 A 
HETATM   31  C   UNL     1      44.110 -19.376   4.737  1.00  0.00     0.001 A 
HETATM   32  C   UNL     1      43.981 -20.543   3.986  1.00  0.00     0.000 A 
HETATM   33  C   UNL     1      43.576 -20.471   2.655  1.00  0.00     0.001 A 
HETATM   34  C   UNL     1      43.299 -19.234   2.072  1.00  0.00     0.007 A 
ENDBRANCH  28  29
ENDBRANCH  27  28
ENDBRANCH  26  27
ENDBRANCH   6  26
TORSDOF 8
ENDMDL
MODEL 9
REMARK VINA RESULT:      -8.4      2.750      9.995
REMARK  8 active torsions:
REMARK  status: ('A' for Active; 'I' for Inactive)
REMARK    1  A    between atoms: N_2  and  C_3 
REMARK    2  A    between atoms: C_4  and  C_5 
REMARK       I    between atoms: C_5  and  N_6 
REMARK    3  A    between atoms: N_6  and  C_7 
REMARK    4  A    between atoms: C_7  and  C_8 
REMARK    5  A    between atoms: N_13  and  C_15 
REMARK    6  A    between atoms: C_15  and  C_16 
REMARK    7  A    between atoms: C_16  and  C_17 
REMARK    8  A    between atoms: C_17  and  C_18 
ROOT
HETATM    1  C   UNL     1      41.638 -13.034   5.870  1.00  0.00     0.140 C 
HETATM    2  O   UNL     1      41.167 -11.688   6.075  1.00  0.00    -0.373 OA
HETATM    3  C   UNL     1      42.278 -10.830   6.399  1.00  0.00     0.064 C 
HETATM    4  C   UNL     1      41.927 -10.157   7.731  1.00  0.00     0.066 C 
HETATM    5  C   UNL     1      40.700  -9.257   7.592  1.00  0.00     0.237 C 
HETATM    6  N   UNL     1      40.893  -8.231   6.491  1.00  0.00    -0.071 N 
HETATM    7  H   UNL     1      39.965  -7.809   6.359  1.00  0.00     0.279 HD
HETATM    8  C   UNL     1      41.185  -8.930   5.172  1.00  0.00     0.237 C 
HETATM    9  C   UNL     1      42.439  -9.775   5.300  1.00  0.00     0.066 C 
HETATM   10  C   UNL     1      43.514 -11.728   6.500  1.00  0.00     0.041 C 
HETATM   11  C   UNL     1      42.930 -13.113   6.664  1.00  0.00     0.036 C 
ENDROOT
BRANCH   1  12
HETATM   12  C   UNL     1      41.834 -13.317   4.368  1.00  0.00     0.155 C 
BRANCH  12  13
HETATM   13  N   UNL     1      42.462 -14.605   4.132  1.00  0.00    -0.354 N 
HETATM   14  C   UNL     1      41.745 -15.738   3.788  1.00  0.00     0.253 C 
HETATM   15  O   UNL     1      40.531 -15.750   3.618  1.00  0.00    -0.268 OA
HETATM   16  H   UNL     1      43.447 -14.704   4.347  1.00  0.00     0.162 HD
BRANCH  14  17
HETATM   17  C   UNL     1      42.585 -16.957   3.601  1.00  0.00     0.053 A 
HETATM   18  C   UNL     1      43.486 -17.408   4.593  1.00  0.00     0.025 A 
HETATM   19  C   UNL     1      44.237 -18.566   4.300  1.00  0.00     0.025 A 
HETATM   20  C   UNL     1      44.090 -19.254   3.091  1.00  0.00     0.002 A 
HETATM   21  C   UNL     1      43.185 -18.805   2.139  1.00  0.00     0.001 A 
HETATM   22  C   UNL     1      42.430 -17.663   2.393  1.00  0.00     0.019 A 
BRANCH  18  23
HETATM   23  N   UNL     1      43.684 -16.695   5.804  1.00  0.00    -0.291 NA
HETATM   24  C   UNL     1      45.110 -16.471   6.046  1.00  0.00     0.116 C 
HETATM   25  C   UNL     1      42.946 -17.230   6.951  1.00  0.00     0.116 C 
ENDBRANCH  18  23
ENDBRANCH  14  17
ENDBRANCH  12  13
ENDBRANCH   1  12
BRANCH   6  26
HETATM   26  C   UNL     1      41.827  -7.111   6.894  1.00  0.00     0.235 C 
BRANCH  26  27
HETATM   27  C   UNL     1      41.738  -6.728   8.367  1.00  0.00     0.032 C 
BRANCH  27  28
HETATM   28  C   UNL     1      43.082  -6.368   9.002  1.00  0.00     0.040 C 
BRANCH  28  29
HETATM   29  C   UNL     1      43.809  -7.611   9.445  1.00  0.00    -0.058 A 
HETATM   30  C   UNL     1      44.830  -8.153   8.652  1.00  0.00     0.007 A 
HETATM   31  C   UNL     1      45.474  -9.329   9.039  1.00  0.00     0.001 A 
HETATM   32  C   UNL     1      45.102  -9.974  10.216  1.00  0.00     0.000 A 
HETATM   33  C   UNL     1      44.087  -9.444  11.009  1.00  0.00     0.001 A 
HETATM   34  C   UNL     1      43.440  -8.268  10.626  1.00  0.00     0.007 A 
ENDBRANCH  28  29
ENDBRANCH  27  28
ENDBRANCH  26  27
ENDBRANCH   6  26
TORSDOF 8
ENDMDL
MODEL 10
REMARK VINA RESULT:      -8.4      1.819     10.997
REMARK  8 active torsions:
REMARK  status: ('A' for Active; 'I' for Inactive)
REMARK    1  A    between atoms: N_2  and  C_3 
REMARK    2  A    between atoms: C_4  and  C_5 
REMARK       I    between atoms: C_5  and  N_6 
REMARK    3  A    between atoms: N_6  and  C_7 
REMARK    4  A    between atoms: C_7  and  C_8 
REMARK    5  A    between atoms: N_13  and  C_15 
REMARK    6  A    between atoms: C_15  and  C_16 
REMARK    7  A    between atoms: C_16  and  C_17 
REMARK    8  A    between atoms: C_17  and  C_18 
ROOT
HETATM    1  C   UNL     1      44.923 -11.634   7.485  1.00  0.00     0.140 C 
HETATM    2  O   UNL     1      44.224 -11.225   8.677  1.00  0.00    -0.373 OA
HETATM    3  C   UNL     1      44.525  -9.846   8.965  1.00  0.00     0.064 C 
HETATM    4  C   UNL     1      45.064  -9.815  10.400  1.00  0.00     0.066 C 
HETATM    5  C   UNL     1      43.999 -10.253  11.403  1.00  0.00     0.237 C 
HETATM    6  N   UNL     1      42.741  -9.417  11.271  1.00  0.00    -0.071 N 
HETATM    7  H   UNL     1      42.041  -9.900  11.846  1.00  0.00     0.279 HD
HETATM    8  C   UNL     1      42.199  -9.511   9.853  1.00  0.00     0.237 C 
HETATM    9  C   UNL     1      43.241  -9.018   8.865  1.00  0.00     0.066 C 
HETATM   10  C   UNL     1      45.564  -9.396   7.935  1.00  0.00     0.041 C 
HETATM   11  C   UNL     1      46.116 -10.698   7.400  1.00  0.00     0.036 C 
ENDROOT
BRANCH   1  12
HETATM   12  C   UNL     1      43.998 -11.546   6.256  1.00  0.00     0.155 C 
BRANCH  12  13
HETATM   13  N   UNL     1      43.903 -12.814   5.553  1.00  0.00    -0.354 N 
HETATM   14  C   UNL     1      43.320 -13.939   6.109  1.00  0.00     0.253 C 
HETATM   15  O   UNL     1      42.804 -13.961   7.221  1.00  0.00    -0.268 OA
HETATM   16  H   UNL     1      44.391 -12.909   4.670  1.00  0.00     0.162 HD
BRANCH  14  17
HETATM   17  C   UNL     1      43.337 -15.137   5.219  1.00  0.00     0.053 A 
HETATM   18  C   UNL     1      42.691 -15.149   3.960  1.00  0.00     0.025 A 
HETATM   19  C   UNL     1      42.765 -16.341   3.212  1.00  0.00     0.025 A 
HETATM   20  C   UNL     1      43.458 -17.463   3.678  1.00  0.00     0.002 A 
HETATM   21  C   UNL     1      44.103 -17.424   4.907  1.00  0.00     0.001 A 
HETATM   22  C   UNL     1      44.047 -16.264   5.675  1.00  0.00     0.019 A 
BRANCH  18  23
HETATM   23  N   UNL     1      41.942 -14.037   3.495  1.00  0.00    -0.291 NA
HETATM   24  C   UNL     1      40.506 -14.313   3.572  1.00  0.00     0.116 C 
HETATM   25  C   UNL     1      42.393 -13.496   2.210  1.00  0.00     0.116 C 
ENDBRANCH  18  23
ENDBRANCH  14  17
ENDBRANCH  12  13
ENDBRANCH   1  12
BRANCH   6  26
HETATM   26  C   UNL     1      42.899  -8.029  11.852  1.00  0.00     0.235 C 
BRANCH  26  27
HETATM   27  C   UNL     1      43.088  -8.007  13.364  1.00  0.00     0.032 C 
BRANCH  27  28
HETATM   28  C   UNL     1      42.059  -8.834  14.136  1.00  0.00     0.040 C 
BRANCH  28  29
HETATM   29  C   UNL     1      41.149  -7.937  14.934  1.00  0.00    -0.058 A 
HETATM   30  C   UNL     1      40.187  -7.150  14.285  1.00  0.00     0.007 A 
HETATM   31  C   UNL     1      39.373  -6.285  15.019  1.00  0.00     0.001 A 
HETATM   32  C   UNL     1      39.515  -6.197  16.402  1.00  0.00     0.000 A 
HETATM   33  C   UNL     1      40.470  -6.974  17.054  1.00  0.00     0.001 A 
HETATM   34  C   UNL     1      41.286  -7.840  16.324  1.00  0.00     0.007 A 
ENDBRANCH  28  29
ENDBRANCH  27  28
ENDBRANCH  26  27
ENDBRANCH   6  26
TORSDOF 8
ENDMDL
