MODEL 1
REMARK VINA RESULT:      -9.0      0.000      0.000
REMARK  6 active torsions:
REMARK  status: ('A' for Active; 'I' for Inactive)
REMARK    1  A    between atoms: C_2  and  O_3 
REMARK    2  A    between atoms: O_3  and  C_4 
REMARK    3  A    between atoms: C_7  and  C_8 
REMARK    4  A    between atoms: C_8  and  C_9 
REMARK       I    between atoms: C_9  and  N_10 
REMARK    5  A    between atoms: N_13  and  C_14 
REMARK    6  A    between atoms: C_18  and  C_19 
ROOT
HETATM    1  C   UNL     1      42.849  -8.646  10.137  1.00  0.00     0.224 C 
HETATM    2  N   UNL     1      43.195  -9.552   9.142  1.00  0.00    -0.349 N 
HETATM    3  C   UNL     1      42.187  -9.859   8.113  1.00  0.00     0.145 C 
HETATM    4  C   UNL     1      42.813 -10.225   6.757  1.00  0.00     0.144 C 
HETATM    5  N   UNL     1      43.827 -11.285   6.922  1.00  0.00    -0.363 N 
HETATM    6  C   UNL     1      44.891 -10.899   7.866  1.00  0.00     0.144 C 
HETATM    7  C   UNL     1      44.299 -10.520   9.239  1.00  0.00     0.145 C 
HETATM    8  O   UNL     1      41.811  -7.981  10.074  1.00  0.00    -0.273 OA
ENDROOT
BRANCH   5   9
HETATM    9  C   UNL     1      43.545 -12.582   6.597  1.00  0.00     0.122 A 
HETATM   10  N   UNL     1      43.165 -13.527   7.514  1.00  0.00    -0.262 N 
HETATM   11  H   UNL     1      43.050 -13.409   8.512  1.00  0.00     0.191 HD
HETATM   12  N   UNL     1      42.959 -14.751   7.008  1.00  0.00    -0.173 NA
HETATM   13  C   UNL     1      43.258 -14.631   5.704  1.00  0.00     0.090 A 
HETATM   14  C   UNL     1      43.613 -13.282   5.410  1.00  0.00     0.084 A 
BRANCH  13  15
HETATM   15  C   UNL     1      43.215 -15.786   4.797  1.00  0.00    -0.005 A 
HETATM   16  C   UNL     1      43.865 -16.983   5.142  1.00  0.00     0.015 A 
HETATM   17  C   UNL     1      43.854 -18.086   4.281  1.00  0.00     0.024 A 
HETATM   18  C   UNL     1      43.190 -18.001   3.062  1.00  0.00     0.034 A 
HETATM   19 CL   UNL     1      43.180 -19.351   1.996  1.00  0.00    -0.084 Cl
HETATM   20  C   UNL     1      42.535 -16.827   2.699  1.00  0.00     0.024 A 
HETATM   21  C   UNL     1      42.548 -15.724   3.563  1.00  0.00     0.015 A 
ENDBRANCH  13  15
ENDBRANCH   5   9
BRANCH   1  22
HETATM   22  C   UNL     1      43.786  -8.461  11.322  1.00  0.00     0.141 C 
BRANCH  22  23
HETATM   23  C   UNL     1      43.092  -8.367  12.663  1.00  0.00    -0.049 A 
HETATM   24  C   UNL     1      43.311  -7.278  13.519  1.00  0.00     0.010 A 
HETATM   25  C   UNL     1      42.609  -7.159  14.725  1.00  0.00     0.037 A 
HETATM   26  C   UNL     1      41.664  -8.118  15.083  1.00  0.00     0.068 A 
HETATM   27  C   UNL     1      41.448  -9.209  14.241  1.00  0.00     0.037 A 
HETATM   28  C   UNL     1      42.146  -9.330  13.036  1.00  0.00     0.010 A 
BRANCH  26  29
HETATM   29  O   UNL     1      40.897  -8.105  16.215  1.00  0.00    -0.352 OA
BRANCH  29  30
HETATM   30  C   UNL     1      41.250  -7.152  17.219  1.00  0.00     0.171 C 
HETATM   31  C   UNL     1      40.525  -7.528  18.498  1.00  0.00     0.034 C 
ENDBRANCH  29  30
ENDBRANCH  26  29
ENDBRANCH  22  23
ENDBRANCH   1  22
TORSDOF 6
ENDMDL
MODEL 2
REMARK VINA RESULT:      -8.5      4.949     11.381
REMARK  6 active torsions:
REMARK  status: ('A' for Active; 'I' for Inactive)
REMARK    1  A    between atoms: C_2  and  O_3 
REMARK    2  A    between atoms: O_3  and  C_4 
REMARK    3  A    between atoms: C_7  and  C_8 
REMARK    4  A    between atoms: C_8  and  C_9 
REMARK       I    between atoms: C_9  and  N_10 
REMARK    5  A    between atoms: N_13  and  C_14 
REMARK    6  A    between atoms: C_18  and  C_19 
ROOT
HETATM    1  C   UNL     1      42.329 -13.230   3.448  1.00  0.00     0.224 C 
HETATM    2  N   UNL     1      42.105 -12.334   4.486  1.00  0.00    -0.349 N 
HETATM    3  C   UNL     1      43.084 -11.252   4.681  1.00  0.00     0.145 C 
HETATM    4  C   UNL     1      42.456  -9.980   5.277  1.00  0.00     0.144 C 
HETATM    5  N   UNL     1      41.684 -10.303   6.493  1.00  0.00    -0.363 N 
HETATM    6  C   UNL     1      40.629 -11.300   6.238  1.00  0.00     0.144 C 
HETATM    7  C   UNL     1      41.223 -12.590   5.635  1.00  0.00     0.145 C 
HETATM    8  O   UNL     1      43.210 -13.034   2.604  1.00  0.00    -0.273 OA
ENDROOT
BRANCH   5   9
HETATM    9  C   UNL     1      42.195 -10.051   7.735  1.00  0.00     0.122 A 
HETATM   10  N   UNL     1      43.286 -10.700   8.251  1.00  0.00    -0.262 N 
HETATM   11  H   UNL     1      43.839 -11.424   7.813  1.00  0.00     0.191 HD
HETATM   12  N   UNL     1      43.620 -10.335   9.497  1.00  0.00    -0.173 NA
HETATM   13  C   UNL     1      42.685  -9.436   9.847  1.00  0.00     0.090 A 
HETATM   14  C   UNL     1      41.786  -9.224   8.762  1.00  0.00     0.084 A 
BRANCH  13  15
HETATM   15  C   UNL     1      42.664  -8.832  11.186  1.00  0.00    -0.005 A 
HETATM   16  C   UNL     1      42.594  -9.646  12.330  1.00  0.00     0.015 A 
HETATM   17  C   UNL     1      42.550  -9.087  13.613  1.00  0.00     0.024 A 
HETATM   18  C   UNL     1      42.576  -7.705  13.763  1.00  0.00     0.034 A 
HETATM   19 CL   UNL     1      42.515  -7.012  15.337  1.00  0.00    -0.084 Cl
HETATM   20  C   UNL     1      42.650  -6.878  12.644  1.00  0.00     0.024 A 
HETATM   21  C   UNL     1      42.693  -7.439  11.362  1.00  0.00     0.015 A 
ENDBRANCH  13  15
ENDBRANCH   5   9
BRANCH   1  22
HETATM   22  C   UNL     1      41.455 -14.471   3.344  1.00  0.00     0.141 C 
BRANCH  22  23
HETATM   23  C   UNL     1      42.207 -15.779   3.431  1.00  0.00    -0.049 A 
HETATM   24  C   UNL     1      42.197 -16.696   2.371  1.00  0.00     0.010 A 
HETATM   25  C   UNL     1      42.956 -17.871   2.428  1.00  0.00     0.037 A 
HETATM   26  C   UNL     1      43.752 -18.138   3.539  1.00  0.00     0.068 A 
HETATM   27  C   UNL     1      43.760 -17.235   4.603  1.00  0.00     0.037 A 
HETATM   28  C   UNL     1      43.005 -16.060   4.549  1.00  0.00     0.010 A 
BRANCH  26  29
HETATM   29  O   UNL     1      44.556 -19.231   3.707  1.00  0.00    -0.352 OA
BRANCH  29  30
HETATM   30  C   UNL     1      43.904 -20.498   3.810  1.00  0.00     0.171 C 
HETATM   31  C   UNL     1      43.950 -20.932   5.264  1.00  0.00     0.034 C 
ENDBRANCH  29  30
ENDBRANCH  26  29
ENDBRANCH  22  23
ENDBRANCH   1  22
TORSDOF 6
ENDMDL
MODEL 3
REMARK VINA RESULT:      -8.5      5.059     11.666
REMARK  6 active torsions:
REMARK  status: ('A' for Active; 'I' for Inactive)
REMARK    1  A    between atoms: C_2  and  O_3 
REMARK    2  A    between atoms: O_3  and  C_4 
REMARK    3  A    between atoms: C_7  and  C_8 
REMARK    4  A    between atoms: C_8  and  C_9 
REMARK       I    between atoms: C_9  and  N_10 
REMARK    5  A    between atoms: N_13  and  C_14 
REMARK    6  A    between atoms: C_18  and  C_19 
ROOT
HETATM    1  C   UNL     1      42.203 -14.274   5.064  1.00  0.00     0.224 C 
HETATM    2  N   UNL     1      42.674 -13.153   5.737  1.00  0.00    -0.349 N 
HETATM    3  C   UNL     1      43.965 -13.265   6.436  1.00  0.00     0.145 C 
HETATM    4  C   UNL     1      44.726 -11.929   6.500  1.00  0.00     0.144 C 
HETATM    5  N   UNL     1      43.857 -10.862   7.033  1.00  0.00    -0.363 N 
HETATM    6  C   UNL     1      42.628 -10.690   6.239  1.00  0.00     0.144 C 
HETATM    7  C   UNL     1      41.840 -12.014   6.149  1.00  0.00     0.145 C 
HETATM    8  O   UNL     1      42.910 -15.273   4.899  1.00  0.00    -0.273 OA
ENDROOT
BRANCH   5   9
HETATM    9  C   UNL     1      43.980 -10.440   8.327  1.00  0.00     0.122 A 
HETATM   10  N   UNL     1      45.156 -10.484   9.031  1.00  0.00    -0.262 N 
HETATM   11  H   UNL     1      46.054 -10.821   8.712  1.00  0.00     0.191 HD
HETATM   12  N   UNL     1      45.070 -10.052  10.296  1.00  0.00    -0.173 NA
HETATM   13  C   UNL     1      43.773  -9.750  10.463  1.00  0.00     0.090 A 
HETATM   14  C   UNL     1      43.064  -9.967   9.245  1.00  0.00     0.084 A 
BRANCH  13  15
HETATM   15  C   UNL     1      43.251  -9.291  11.758  1.00  0.00    -0.005 A 
HETATM   16  C   UNL     1      42.307 -10.064  12.456  1.00  0.00     0.015 A 
HETATM   17  C   UNL     1      41.783  -9.632  13.679  1.00  0.00     0.024 A 
HETATM   18  C   UNL     1      42.198  -8.418  14.217  1.00  0.00     0.034 A 
HETATM   19 CL   UNL     1      41.550  -7.877  15.716  1.00  0.00    -0.084 Cl
HETATM   20  C   UNL     1      43.134  -7.636  13.544  1.00  0.00     0.024 A 
HETATM   21  C   UNL     1      43.658  -8.071  12.320  1.00  0.00     0.015 A 
ENDBRANCH  13  15
ENDBRANCH   5   9
BRANCH   1  22
HETATM   22  C   UNL     1      40.787 -14.258   4.506  1.00  0.00     0.141 C 
BRANCH  22  23
HETATM   23  C   UNL     1      40.706 -14.304   2.997  1.00  0.00    -0.049 A 
HETATM   24  C   UNL     1      40.135 -15.399   2.334  1.00  0.00     0.010 A 
HETATM   25  C   UNL     1      39.995 -15.402   0.941  1.00  0.00     0.037 A 
HETATM   26  C   UNL     1      40.406 -14.302   0.192  1.00  0.00     0.068 A 
HETATM   27  C   UNL     1      40.984 -13.212   0.845  1.00  0.00     0.037 A 
HETATM   28  C   UNL     1      41.124 -13.205   2.235  1.00  0.00     0.010 A 
BRANCH  26  29
HETATM   29  O   UNL     1      40.301 -14.170  -1.165  1.00  0.00    -0.352 OA
BRANCH  29  30
HETATM   30  C   UNL     1      40.183 -12.841  -1.673  1.00  0.00     0.171 C 
HETATM   31  C   UNL     1      40.949 -12.769  -2.982  1.00  0.00     0.034 C 
ENDBRANCH  29  30
ENDBRANCH  26  29
ENDBRANCH  22  23
ENDBRANCH   1  22
TORSDOF 6
ENDMDL
MODEL 4
REMARK VINA RESULT:      -8.3      2.780      4.406
REMARK  6 active torsions:
REMARK  status: ('A' for Active; 'I' for Inactive)
REMARK    1  A    between atoms: C_2  and  O_3 
REMARK    2  A    between atoms: O_3  and  C_4 
REMARK    3  A    between atoms: C_7  and  C_8 
REMARK    4  A    between atoms: C_8  and  C_9 
REMARK       I    between atoms: C_9  and  N_10 
REMARK    5  A    between atoms: N_13  and  C_14 
REMARK    6  A    between atoms: C_18  and  C_19 
ROOT
HETATM    1  C   UNL     1      40.714  -9.651   5.978  1.00  0.00     0.224 C 
HETATM    2  N   UNL     1      41.193 -10.513   4.999  1.00  0.00    -0.349 N 
HETATM    3  C   UNL     1      40.317 -11.614   4.566  1.00  0.00     0.145 C 
HETATM    4  C   UNL     1      40.551 -12.022   3.101  1.00  0.00     0.144 C 
HETATM    5  N   UNL     1      41.984 -12.278   2.857  1.00  0.00    -0.363 N 
HETATM    6  C   UNL     1      42.825 -11.113   3.183  1.00  0.00     0.144 C 
HETATM    7  C   UNL     1      42.613 -10.672   4.647  1.00  0.00     0.145 C 
HETATM    8  O   UNL     1      39.537  -9.686   6.351  1.00  0.00    -0.273 OA
ENDROOT
BRANCH   5   9
HETATM    9  C   UNL     1      42.465 -13.555   2.785  1.00  0.00     0.122 A 
HETATM   10  N   UNL     1      42.784 -14.180   1.607  1.00  0.00    -0.262 N 
HETATM   11  H   UNL     1      42.709 -13.808   0.670  1.00  0.00     0.191 HD
HETATM   12  N   UNL     1      43.214 -15.442   1.739  1.00  0.00    -0.173 NA
HETATM   13  C   UNL     1      43.136 -15.689   3.057  1.00  0.00     0.090 A 
HETATM   14  C   UNL     1      42.685 -14.524   3.743  1.00  0.00     0.084 A 
BRANCH  13  15
HETATM   15  C   UNL     1      43.469 -17.009   3.612  1.00  0.00    -0.005 A 
HETATM   16  C   UNL     1      43.616 -18.119   2.762  1.00  0.00     0.015 A 
HETATM   17  C   UNL     1      43.910 -19.387   3.275  1.00  0.00     0.024 A 
HETATM   18  C   UNL     1      44.060 -19.558   4.648  1.00  0.00     0.034 A 
HETATM   19 CL   UNL     1      44.413 -21.116   5.284  1.00  0.00    -0.084 Cl
HETATM   20  C   UNL     1      43.921 -18.472   5.509  1.00  0.00     0.024 A 
HETATM   21  C   UNL     1      43.627 -17.203   4.993  1.00  0.00     0.015 A 
ENDBRANCH  13  15
ENDBRANCH   5   9
BRANCH   1  22
HETATM   22  C   UNL     1      41.664  -8.632   6.591  1.00  0.00     0.141 C 
BRANCH  22  23
HETATM   23  C   UNL     1      42.155  -8.984   7.977  1.00  0.00    -0.049 A 
HETATM   24  C   UNL     1      43.509  -9.258   8.220  1.00  0.00     0.010 A 
HETATM   25  C   UNL     1      43.970  -9.509   9.517  1.00  0.00     0.037 A 
HETATM   26  C   UNL     1      43.087  -9.473  10.595  1.00  0.00     0.068 A 
HETATM   27  C   UNL     1      41.737  -9.212  10.359  1.00  0.00     0.037 A 
HETATM   28  C   UNL     1      41.274  -8.958   9.065  1.00  0.00     0.010 A 
BRANCH  26  29
HETATM   29  O   UNL     1      43.414  -9.675  11.907  1.00  0.00    -0.352 OA
BRANCH  29  30
HETATM   30  C   UNL     1      42.570  -9.059  12.880  1.00  0.00     0.171 C 
HETATM   31  C   UNL     1      43.253  -7.790  13.357  1.00  0.00     0.034 C 
ENDBRANCH  29  30
ENDBRANCH  26  29
ENDBRANCH  22  23
ENDBRANCH   1  22
TORSDOF 6
ENDMDL
MODEL 5
REMARK VINA RESULT:      -8.1      9.779     13.000
REMARK  6 active torsions:
REMARK  status: ('A' for Active; 'I' for Inactive)
REMARK    1  A    between atoms: C_2  and  O_3 
REMARK    2  A    between atoms: O_3  and  C_4 
REMARK    3  A    between atoms: C_7  and  C_8 
REMARK    4  A    between atoms: C_8  and  C_9 
REMARK       I    between atoms: C_9  and  N_10 
REMARK    5  A    between atoms: N_13  and  C_14 
REMARK    6  A    between atoms: C_18  and  C_19 
ROOT
HETATM    1  C   UNL     1      41.194 -14.310   1.132  1.00  0.00     0.224 C 
HETATM    2  N   UNL     1      40.644 -13.734  -0.006  1.00  0.00    -0.349 N 
HETATM    3  C   UNL     1      40.712 -12.269  -0.134  1.00  0.00     0.145 C 
HETATM    4  C   UNL     1      40.780 -11.801  -1.598  1.00  0.00     0.144 C 
HETATM    5  N   UNL     1      39.695 -12.412  -2.390  1.00  0.00    -0.363 N 
HETATM    6  C   UNL     1      39.728 -13.884  -2.342  1.00  0.00     0.144 C 
HETATM    7  C   UNL     1      39.665 -14.391  -0.886  1.00  0.00     0.145 C 
HETATM    8  O   UNL     1      41.874 -13.652   1.926  1.00  0.00    -0.273 OA
ENDROOT
BRANCH   5   9
HETATM    9  C   UNL     1      38.579 -11.696  -2.718  1.00  0.00     0.122 A 
HETATM   10  N   UNL     1      38.602 -10.573  -3.504  1.00  0.00    -0.262 N 
HETATM   11  H   UNL     1      39.407 -10.133  -3.929  1.00  0.00     0.191 HD
HETATM   12  N   UNL     1      37.409  -9.992  -3.691  1.00  0.00    -0.173 NA
HETATM   13  C   UNL     1      36.557 -10.731  -2.961  1.00  0.00     0.090 A 
HETATM   14  C   UNL     1      37.253 -11.814  -2.351  1.00  0.00     0.084 A 
BRANCH  13  15
HETATM   15  C   UNL     1      35.134 -10.378  -2.852  1.00  0.00    -0.005 A 
HETATM   16  C   UNL     1      34.688  -9.540  -1.816  1.00  0.00     0.015 A 
HETATM   17  C   UNL     1      33.335  -9.212  -1.683  1.00  0.00     0.024 A 
HETATM   18  C   UNL     1      32.411  -9.721  -2.589  1.00  0.00     0.034 A 
HETATM   19 CL   UNL     1      30.744  -9.328  -2.427  1.00  0.00    -0.084 Cl
HETATM   20  C   UNL     1      32.829 -10.550  -3.627  1.00  0.00     0.024 A 
HETATM   21  C   UNL     1      34.185 -10.877  -3.758  1.00  0.00     0.015 A 
ENDBRANCH  13  15
ENDBRANCH   5   9
BRANCH   1  22
HETATM   22  C   UNL     1      40.963 -15.792   1.393  1.00  0.00     0.141 C 
BRANCH  22  23
HETATM   23  C   UNL     1      41.848 -16.387   2.465  1.00  0.00    -0.049 A 
HETATM   24  C   UNL     1      41.517 -16.279   3.823  1.00  0.00     0.010 A 
HETATM   25  C   UNL     1      42.300 -16.896   4.806  1.00  0.00     0.037 A 
HETATM   26  C   UNL     1      43.416 -17.647   4.443  1.00  0.00     0.068 A 
HETATM   27  C   UNL     1      43.758 -17.751   3.094  1.00  0.00     0.037 A 
HETATM   28  C   UNL     1      42.977 -17.137   2.110  1.00  0.00     0.010 A 
BRANCH  26  29
HETATM   29  O   UNL     1      44.245 -18.317   5.300  1.00  0.00    -0.352 OA
BRANCH  29  30
HETATM   30  C   UNL     1      43.663 -19.379   6.056  1.00  0.00     0.171 C 
HETATM   31  C   UNL     1      44.061 -20.692   5.406  1.00  0.00     0.034 C 
ENDBRANCH  29  30
ENDBRANCH  26  29
ENDBRANCH  22  23
ENDBRANCH   1  22
TORSDOF 6
ENDMDL
MODEL 6
REMARK VINA RESULT:      -8.0      3.416      4.501
REMARK  6 active torsions:
REMARK  status: ('A' for Active; 'I' for Inactive)
REMARK    1  A    between atoms: C_2  and  O_3 
REMARK    2  A    between atoms: O_3  and  C_4 
REMARK    3  A    between atoms: C_7  and  C_8 
REMARK    4  A    between atoms: C_8  and  C_9 
REMARK       I    between atoms: C_9  and  N_10 
REMARK    5  A    between atoms: N_13  and  C_14 
REMARK    6  A    between atoms: C_18  and  C_19 
ROOT
HETATM    1  C   UNL     1      44.899 -10.178   8.260  1.00  0.00     0.224 C 
HETATM    2  N   UNL     1      43.983 -10.690   7.349  1.00  0.00    -0.349 N 
HETATM    3  C   UNL     1      44.298 -11.978   6.709  1.00  0.00     0.145 C 
HETATM    4  C   UNL     1      43.041 -12.785   6.344  1.00  0.00     0.144 C 
HETATM    5  N   UNL     1      42.099 -11.957   5.567  1.00  0.00    -0.363 N 
HETATM    6  C   UNL     1      41.705 -10.732   6.286  1.00  0.00     0.144 C 
HETATM    7  C   UNL     1      42.944  -9.898   6.674  1.00  0.00     0.145 C 
HETATM    8  O   UNL     1      45.855 -10.849   8.661  1.00  0.00    -0.273 OA
ENDROOT
BRANCH   5   9
HETATM    9  C   UNL     1      41.996 -12.097   4.211  1.00  0.00     0.122 A 
HETATM   10  N   UNL     1      42.737 -11.372   3.315  1.00  0.00    -0.262 N 
HETATM   11  H   UNL     1      43.428 -10.663   3.517  1.00  0.00     0.191 HD
HETATM   12  N   UNL     1      42.474 -11.632   2.027  1.00  0.00    -0.173 NA
HETATM   13  C   UNL     1      41.481 -12.536   2.062  1.00  0.00     0.090 A 
HETATM   14  C   UNL     1      41.168 -12.861   3.413  1.00  0.00     0.084 A 
BRANCH  13  15
HETATM   15  C   UNL     1      40.859 -13.040   0.829  1.00  0.00    -0.005 A 
HETATM   16  C   UNL     1      40.363 -14.354   0.772  1.00  0.00     0.015 A 
HETATM   17  C   UNL     1      39.788 -14.859  -0.400  1.00  0.00     0.024 A 
HETATM   18  C   UNL     1      39.702 -14.050  -1.529  1.00  0.00     0.034 A 
HETATM   19 CL   UNL     1      39.003 -14.668  -2.974  1.00  0.00    -0.084 Cl
HETATM   20  C   UNL     1      40.183 -12.744  -1.494  1.00  0.00     0.024 A 
HETATM   21  C   UNL     1      40.758 -12.241  -0.320  1.00  0.00     0.015 A 
ENDBRANCH  13  15
ENDBRANCH   5   9
BRANCH   1  22
HETATM   22  C   UNL     1      44.705  -8.762   8.783  1.00  0.00     0.141 C 
BRANCH  22  23
HETATM   23  C   UNL     1      43.761  -8.651   9.959  1.00  0.00    -0.049 A 
HETATM   24  C   UNL     1      44.126  -9.115  11.231  1.00  0.00     0.010 A 
HETATM   25  C   UNL     1      43.278  -8.941  12.331  1.00  0.00     0.037 A 
HETATM   26  C   UNL     1      42.059  -8.284  12.179  1.00  0.00     0.068 A 
HETATM   27  C   UNL     1      41.684  -7.829  10.914  1.00  0.00     0.037 A 
HETATM   28  C   UNL     1      42.529  -7.999   9.814  1.00  0.00     0.010 A 
BRANCH  26  29
HETATM   29  O   UNL     1      41.155  -8.028  13.173  1.00  0.00    -0.352 OA
BRANCH  29  30
HETATM   30  C   UNL     1      40.820  -9.119  14.031  1.00  0.00     0.171 C 
HETATM   31  C   UNL     1      39.966 -10.093  13.240  1.00  0.00     0.034 C 
ENDBRANCH  29  30
ENDBRANCH  26  29
ENDBRANCH  22  23
ENDBRANCH   1  22
TORSDOF 6
ENDMDL
MODEL 7
REMARK VINA RESULT:      -7.7      5.248     11.401
REMARK  6 active torsions:
REMARK  status: ('A' for Active; 'I' for Inactive)
REMARK    1  A    between atoms: C_2  and  O_3 
REMARK    2  A    between atoms: O_3  and  C_4 
REMARK    3  A    between atoms: C_7  and  C_8 
REMARK    4  A    between atoms: C_8  and  C_9 
REMARK       I    between atoms: C_9  and  N_10 
REMARK    5  A    between atoms: N_13  and  C_14 
REMARK    6  A    between atoms: C_18  and  C_19 
ROOT
HETATM    1  C   UNL     1      41.732 -12.018   2.776  1.00  0.00     0.224 C 
HETATM    2  N   UNL     1      41.200 -11.282   3.828  1.00  0.00    -0.349 N 
HETATM    3  C   UNL     1      42.048 -10.244   4.437  1.00  0.00     0.145 C 
HETATM    4  C   UNL     1      41.235  -9.070   5.009  1.00  0.00     0.144 C 
HETATM    5  N   UNL     1      40.172  -9.563   5.907  1.00  0.00    -0.363 N 
HETATM    6  C   UNL     1      39.264 -10.508   5.233  1.00  0.00     0.144 C 
HETATM    7  C   UNL     1      40.047 -11.699   4.641  1.00  0.00     0.145 C 
HETATM    8  O   UNL     1      42.802 -11.706   2.245  1.00  0.00    -0.273 OA
ENDROOT
BRANCH   5   9
HETATM    9  C   UNL     1      40.315  -9.497   7.264  1.00  0.00     0.122 A 
HETATM   10  N   UNL     1      39.426 -10.051   8.148  1.00  0.00    -0.262 N 
HETATM   11  H   UNL     1      38.578 -10.559   7.934  1.00  0.00     0.191 HD
HETATM   12  N   UNL     1      39.722  -9.856   9.440  1.00  0.00    -0.173 NA
HETATM   13  C   UNL     1      40.832  -9.100   9.421  1.00  0.00     0.090 A 
HETATM   14  C   UNL     1      41.239  -8.869   8.075  1.00  0.00     0.084 A 
BRANCH  13  15
HETATM   15  C   UNL     1      41.450  -8.613  10.662  1.00  0.00    -0.005 A 
HETATM   16  C   UNL     1      41.225  -7.295  11.096  1.00  0.00     0.015 A 
HETATM   17  C   UNL     1      41.822  -6.806  12.263  1.00  0.00     0.024 A 
HETATM   18  C   UNL     1      42.655  -7.634  13.010  1.00  0.00     0.034 A 
HETATM   19 CL   UNL     1      43.399  -7.036  14.441  1.00  0.00    -0.084 Cl
HETATM   20  C   UNL     1      42.890  -8.945  12.601  1.00  0.00     0.024 A 
HETATM   21  C   UNL     1      42.290  -9.432  11.433  1.00  0.00     0.015 A 
ENDBRANCH  13  15
ENDBRANCH   5   9
BRANCH   1  22
HETATM   22  C   UNL     1      40.964 -13.227   2.261  1.00  0.00     0.141 C 
BRANCH  22  23
HETATM   23  C   UNL     1      41.602 -14.560   2.581  1.00  0.00    -0.049 A 
HETATM   24  C   UNL     1      42.597 -15.106   1.757  1.00  0.00     0.010 A 
HETATM   25  C   UNL     1      43.236 -16.304   2.099  1.00  0.00     0.037 A 
HETATM   26  C   UNL     1      42.904 -16.964   3.280  1.00  0.00     0.068 A 
HETATM   27  C   UNL     1      41.909 -16.431   4.100  1.00  0.00     0.037 A 
HETATM   28  C   UNL     1      41.269 -15.235   3.763  1.00  0.00     0.010 A 
BRANCH  26  29
HETATM   29  O   UNL     1      43.470 -18.121   3.739  1.00  0.00    -0.352 OA
BRANCH  29  30
HETATM   30  C   UNL     1      44.188 -18.906   2.787  1.00  0.00     0.171 C 
HETATM   31  C   UNL     1      43.238 -19.950   2.228  1.00  0.00     0.034 C 
ENDBRANCH  29  30
ENDBRANCH  26  29
ENDBRANCH  22  23
ENDBRANCH   1  22
TORSDOF 6
ENDMDL
MODEL 8
REMARK VINA RESULT:      -7.7      5.405     12.004
REMARK  6 active torsions:
REMARK  status: ('A' for Active; 'I' for Inactive)
REMARK    1  A    between atoms: C_2  and  O_3 
REMARK    2  A    between atoms: O_3  and  C_4 
REMARK    3  A    between atoms: C_7  and  C_8 
REMARK    4  A    between atoms: C_8  and  C_9 
REMARK       I    between atoms: C_9  and  N_10 
REMARK    5  A    between atoms: N_13  and  C_14 
REMARK    6  A    between atoms: C_18  and  C_19 
ROOT
HETATM    1  C   UNL     1      44.227  -8.047   9.483  1.00  0.00     0.224 C 
HETATM    2  N   UNL     1      43.378  -8.119  10.580  1.00  0.00    -0.349 N 
HETATM    3  C   UNL     1      42.594  -6.920  10.921  1.00  0.00     0.145 C 
HETATM    4  C   UNL     1      41.250  -7.256  11.588  1.00  0.00     0.144 C 
HETATM    5  N   UNL     1      41.450  -8.171  12.728  1.00  0.00    -0.363 N 
HETATM    6  C   UNL     1      42.128  -9.419  12.332  1.00  0.00     0.144 C 
HETATM    7  C   UNL     1      43.482  -9.119  11.653  1.00  0.00     0.145 C 
HETATM    8  O   UNL     1      44.203  -7.085   8.708  1.00  0.00    -0.273 OA
ENDROOT
BRANCH   5   9
HETATM    9  C   UNL     1      41.422  -7.707  14.013  1.00  0.00     0.122 A 
HETATM   10  N   UNL     1      41.697  -6.409  14.356  1.00  0.00    -0.262 N 
HETATM   11  H   UNL     1      41.952  -5.648  13.741  1.00  0.00     0.191 HD
HETATM   12  N   UNL     1      41.646  -6.152  15.670  1.00  0.00    -0.173 NA
HETATM   13  C   UNL     1      41.371  -7.339  16.235  1.00  0.00     0.090 A 
HETATM   14  C   UNL     1      41.209  -8.331  15.226  1.00  0.00     0.084 A 
BRANCH  13  15
HETATM   15  C   UNL     1      41.290  -7.494  17.695  1.00  0.00    -0.005 A 
HETATM   16  C   UNL     1      40.116  -7.986  18.291  1.00  0.00     0.015 A 
HETATM   17  C   UNL     1      40.013  -8.119  19.681  1.00  0.00     0.024 A 
HETATM   18  C   UNL     1      41.087  -7.760  20.489  1.00  0.00     0.034 A 
HETATM   19 CL   UNL     1      40.963  -7.914  22.197  1.00  0.00    -0.084 Cl
HETATM   20  C   UNL     1      42.261  -7.274  19.920  1.00  0.00     0.024 A 
HETATM   21  C   UNL     1      42.362  -7.141  18.529  1.00  0.00     0.015 A 
ENDBRANCH  13  15
ENDBRANCH   5   9
BRANCH   1  22
HETATM   22  C   UNL     1      45.197  -9.191   9.226  1.00  0.00     0.141 C 
BRANCH  22  23
HETATM   23  C   UNL     1      44.829 -10.075   8.055  1.00  0.00    -0.049 A 
HETATM   24  C   UNL     1      45.814 -10.740   7.309  1.00  0.00     0.010 A 
HETATM   25  C   UNL     1      45.463 -11.615   6.275  1.00  0.00     0.037 A 
HETATM   26  C   UNL     1      44.122 -11.855   5.982  1.00  0.00     0.068 A 
HETATM   27  C   UNL     1      43.137 -11.189   6.714  1.00  0.00     0.037 A 
HETATM   28  C   UNL     1      43.484 -10.316   7.749  1.00  0.00     0.010 A 
BRANCH  26  29
HETATM   29  O   UNL     1      43.649 -12.702   5.019  1.00  0.00    -0.352 OA
BRANCH  29  30
HETATM   30  C   UNL     1      43.371 -12.129   3.741  1.00  0.00     0.171 C 
HETATM   31  C   UNL     1      43.247 -13.261   2.737  1.00  0.00     0.034 C 
ENDBRANCH  29  30
ENDBRANCH  26  29
ENDBRANCH  22  23
ENDBRANCH   1  22
TORSDOF 6
ENDMDL
MODEL 9
REMARK VINA RESULT:      -7.6     19.943     23.531
REMARK  6 active torsions:
REMARK  status: ('A' for Active; 'I' for Inactive)
REMARK    1  A    between atoms: C_2  and  O_3 
REMARK    2  A    between atoms: O_3  and  C_4 
REMARK    3  A    between atoms: C_7  and  C_8 
REMARK    4  A    between atoms: C_8  and  C_9 
REMARK       I    between atoms: C_9  and  N_10 
REMARK    5  A    between atoms: N_13  and  C_14 
REMARK    6  A    between atoms: C_18  and  C_19 
ROOT
HETATM    1  C   UNL     1      45.470 -28.584  -1.331  1.00  0.00     0.224 C 
HETATM    2  N   UNL     1      45.870 -28.822  -0.022  1.00  0.00    -0.349 N 
HETATM    3  C   UNL     1      47.272 -28.540   0.329  1.00  0.00     0.145 C 
HETATM    4  C   UNL     1      47.446 -28.128   1.800  1.00  0.00     0.144 C 
HETATM    5  N   UNL     1      46.801 -29.109   2.695  1.00  0.00    -0.363 N 
HETATM    6  C   UNL     1      45.367 -29.278   2.398  1.00  0.00     0.144 C 
HETATM    7  C   UNL     1      45.153 -29.689   0.926  1.00  0.00     0.145 C 
HETATM    8  O   UNL     1      46.199 -27.992  -2.133  1.00  0.00    -0.273 OA
ENDROOT
BRANCH   5   9
HETATM    9  C   UNL     1      47.543 -30.037   3.369  1.00  0.00     0.122 A 
HETATM   10  N   UNL     1      47.150 -31.337   3.548  1.00  0.00    -0.262 N 
HETATM   11  H   UNL     1      46.297 -31.774   3.228  1.00  0.00     0.191 HD
HETATM   12  N   UNL     1      48.001 -32.089   4.261  1.00  0.00    -0.173 NA
HETATM   13  C   UNL     1      48.983 -31.244   4.614  1.00  0.00     0.090 A 
HETATM   14  C   UNL     1      48.736 -29.954   4.060  1.00  0.00     0.084 A 
BRANCH  13  15
HETATM   15  C   UNL     1      50.097 -31.676   5.469  1.00  0.00    -0.005 A 
HETATM   16  C   UNL     1      51.357 -31.063   5.355  1.00  0.00     0.015 A 
HETATM   17  C   UNL     1      52.436 -31.476   6.145  1.00  0.00     0.024 A 
HETATM   18  C   UNL     1      52.264 -32.511   7.059  1.00  0.00     0.034 A 
HETATM   19 CL   UNL     1      53.588 -33.028   8.027  1.00  0.00    -0.084 Cl
HETATM   20  C   UNL     1      51.024 -33.130   7.192  1.00  0.00     0.024 A 
HETATM   21  C   UNL     1      49.945 -32.715   6.401  1.00  0.00     0.015 A 
ENDBRANCH  13  15
ENDBRANCH   5   9
BRANCH   1  22
HETATM   22  C   UNL     1      44.092 -29.053  -1.778  1.00  0.00     0.141 C 
BRANCH  22  23
HETATM   23  C   UNL     1      44.098 -29.958  -2.988  1.00  0.00    -0.049 A 
HETATM   24  C   UNL     1      43.917 -29.445  -4.281  1.00  0.00     0.010 A 
HETATM   25  C   UNL     1      43.999 -30.278  -5.403  1.00  0.00     0.037 A 
HETATM   26  C   UNL     1      44.280 -31.634  -5.252  1.00  0.00     0.068 A 
HETATM   27  C   UNL     1      44.452 -32.153  -3.968  1.00  0.00     0.037 A 
HETATM   28  C   UNL     1      44.373 -31.325  -2.845  1.00  0.00     0.010 A 
BRANCH  26  29
HETATM   29  O   UNL     1      44.411 -32.544  -6.263  1.00  0.00    -0.352 OA
BRANCH  29  30
HETATM   30  C   UNL     1      45.180 -32.139  -7.396  1.00  0.00     0.171 C 
HETATM   31  C   UNL     1      46.649 -32.269  -7.036  1.00  0.00     0.034 C 
ENDBRANCH  29  30
ENDBRANCH  26  29
ENDBRANCH  22  23
ENDBRANCH   1  22
TORSDOF 6
ENDMDL
MODEL 10
REMARK VINA RESULT:      -7.6      9.160     12.161
REMARK  6 active torsions:
REMARK  status: ('A' for Active; 'I' for Inactive)
REMARK    1  A    between atoms: C_2  and  O_3 
REMARK    2  A    between atoms: O_3  and  C_4 
REMARK    3  A    between atoms: C_7  and  C_8 
REMARK    4  A    between atoms: C_8  and  C_9 
REMARK       I    between atoms: C_9  and  N_10 
REMARK    5  A    between atoms: N_13  and  C_14 
REMARK    6  A    between atoms: C_18  and  C_19 
ROOT
HETATM    1  C   UNL     1      39.291  -9.931  -3.461  1.00  0.00     0.224 C 
HETATM    2  N   UNL     1      39.431 -11.129  -2.772  1.00  0.00    -0.349 N 
HETATM    3  C   UNL     1      38.352 -11.520  -1.849  1.00  0.00     0.145 C 
HETATM    4  C   UNL     1      38.204 -13.045  -1.717  1.00  0.00     0.144 C 
HETATM    5  N   UNL     1      39.504 -13.667  -1.399  1.00  0.00    -0.363 N 
HETATM    6  C   UNL     1      40.533 -13.358  -2.408  1.00  0.00     0.144 C 
HETATM    7  C   UNL     1      40.706 -11.834  -2.571  1.00  0.00     0.145 C 
HETATM    8  O   UNL     1      38.230  -9.297  -3.448  1.00  0.00    -0.273 OA
ENDROOT
BRANCH   5   9
HETATM    9  C   UNL     1      39.796 -14.069  -0.127  1.00  0.00     0.122 A 
HETATM   10  N   UNL     1      39.285 -13.469   0.994  1.00  0.00    -0.262 N 
HETATM   11  H   UNL     1      38.654 -12.680   1.039  1.00  0.00     0.191 HD
HETATM   12  N   UNL     1      39.711 -13.988   2.154  1.00  0.00    -0.173 NA
HETATM   13  C   UNL     1      40.580 -14.947   1.795  1.00  0.00     0.090 A 
HETATM   14  C   UNL     1      40.646 -15.035   0.374  1.00  0.00     0.084 A 
BRANCH  13  15
HETATM   15  C   UNL     1      41.323 -15.724   2.797  1.00  0.00    -0.005 A 
HETATM   16  C   UNL     1      40.948 -15.678   4.151  1.00  0.00     0.015 A 
HETATM   17  C   UNL     1      41.658 -16.393   5.122  1.00  0.00     0.024 A 
HETATM   18  C   UNL     1      42.753 -17.163   4.747  1.00  0.00     0.034 A 
HETATM   19 CL   UNL     1      43.634 -18.038   5.937  1.00  0.00    -0.084 Cl
HETATM   20  C   UNL     1      43.142 -17.227   3.411  1.00  0.00     0.024 A 
HETATM   21  C   UNL     1      42.430 -16.511   2.441  1.00  0.00     0.015 A 
ENDBRANCH  13  15
ENDBRANCH   5   9
BRANCH   1  22
HETATM   22  C   UNL     1      40.470  -9.400  -4.262  1.00  0.00     0.141 C 
BRANCH  22  23
HETATM   23  C   UNL     1      41.229  -8.275  -3.594  1.00  0.00    -0.049 A 
HETATM   24  C   UNL     1      41.154  -8.070  -2.209  1.00  0.00     0.010 A 
HETATM   25  C   UNL     1      41.917  -7.075  -1.587  1.00  0.00     0.037 A 
HETATM   26  C   UNL     1      42.781  -6.281  -2.338  1.00  0.00     0.068 A 
HETATM   27  C   UNL     1      42.854  -6.473  -3.719  1.00  0.00     0.037 A 
HETATM   28  C   UNL     1      42.095  -7.467  -4.343  1.00  0.00     0.010 A 
BRANCH  26  29
HETATM   29  O   UNL     1      43.596  -5.297  -1.851  1.00  0.00    -0.352 OA
BRANCH  29  30
HETATM   30  C   UNL     1      43.417  -4.937  -0.481  1.00  0.00     0.171 C 
HETATM   31  C   UNL     1      44.729  -4.369   0.030  1.00  0.00     0.034 C 
ENDBRANCH  29  30
ENDBRANCH  26  29
ENDBRANCH  22  23
ENDBRANCH   1  22
TORSDOF 6
ENDMDL
