MODEL 1
REMARK VINA RESULT:     -10.2      0.000      0.000
REMARK  7 active torsions:
REMARK  status: ('A' for Active; 'I' for Inactive)
REMARK    1  A    between atoms: C_4  and  N_5 
REMARK    2  A    between atoms: N_8  and  C_10 
REMARK    3  A    between atoms: C_10  and  C_11 
REMARK    4  A    between atoms: C_11  and  C_12 
REMARK    5  A    between atoms: C_12  and  N_13 
REMARK       I    between atoms: N_13  and  C_14 
REMARK    6  A    between atoms: C_14  and  C_15 
REMARK    7  A    between atoms: C_21  and  C_22 
ROOT
HETATM    1  N   UNL     1      41.532  -9.994   2.971  1.00  0.00    -0.357 N 
HETATM    2  C   UNL     1      42.464 -10.595   3.794  1.00  0.00     0.251 C 
HETATM    3  O   UNL     1      43.356 -11.305   3.328  1.00  0.00    -0.268 OA
HETATM    4  H   UNL     1      40.859  -9.337   3.348  1.00  0.00     0.162 HD
ENDROOT
BRANCH   2   5
HETATM    5  C   UNL     1      42.431 -10.241   5.243  1.00  0.00     0.034 A 
HETATM    6  C   UNL     1      43.458 -10.572   6.136  1.00  0.00     0.048 A 
HETATM    7  C   UNL     1      43.326 -10.296   7.507  1.00  0.00     0.053 A 
HETATM    8  C   UNL     1      42.177  -9.676   7.994  1.00  0.00     0.032 A 
HETATM    9  N   UNL     1      44.369 -10.679   8.351  1.00  0.00    -0.321 N 
HETATM   10  S   UNL     1      41.895  -9.354   9.707  1.00  0.00    -0.083 SA
HETATM   11  C   UNL     1      41.169  -9.313   7.093  1.00  0.00     0.022 A 
HETATM   12  C   UNL     1      43.412  -9.729  10.439  1.00  0.00     0.074 C 
HETATM   13  C   UNL     1      43.698  -9.407  11.717  1.00  0.00     0.036 C 
HETATM   14  C   UNL     1      44.479 -10.471   9.694  1.00  0.00     0.263 C 
HETATM   15  O   UNL     1      45.492 -10.897  10.253  1.00  0.00    -0.267 OA
HETATM   16  C   UNL     1      41.293  -9.588   5.728  1.00  0.00     0.018 A 
HETATM   17  H   UNL     1      45.178 -11.155   7.970  1.00  0.00     0.169 HD
BRANCH  13  18
HETATM   18  C   UNL     1      42.817  -8.681  12.641  1.00  0.00    -0.035 A 
HETATM   19  C   UNL     1      42.935  -7.294  12.776  1.00  0.00     0.011 A 
HETATM   20  C   UNL     1      42.108  -6.605  13.665  1.00  0.00     0.001 A 
HETATM   21  C   UNL     1      41.161  -7.297  14.419  1.00  0.00     0.000 A 
HETATM   22  C   UNL     1      41.036  -8.679  14.282  1.00  0.00     0.001 A 
HETATM   23  C   UNL     1      41.861  -9.370  13.394  1.00  0.00     0.011 A 
ENDBRANCH  13  18
ENDBRANCH   2   5
BRANCH   1  24
HETATM   24  C   UNL     1      41.533 -10.193   1.537  1.00  0.00     0.124 C 
BRANCH  24  25
HETATM   25  C   UNL     1      40.505 -11.230   1.086  1.00  0.00     0.047 C 
BRANCH  25  26
HETATM   26  C   UNL     1      39.921 -12.131   2.176  1.00  0.00     0.236 C 
BRANCH  26  27
HETATM   27  N   UNL     1      40.250 -13.594   1.999  1.00  0.00    -0.068 N 
HETATM   28  C   UNL     1      41.645 -13.820   1.418  1.00  0.00     0.254 C 
HETATM   29  C   UNL     1      42.071 -15.304   1.426  1.00  0.00     0.150 C 
HETATM   30  N   UNL     1      41.889 -15.853   2.776  1.00  0.00    -0.377 N 
HETATM   31  C   UNL     1      40.480 -15.826   3.207  1.00  0.00     0.150 C 
HETATM   32  C   UNL     1      40.045 -14.350   3.325  1.00  0.00     0.254 C 
HETATM   33  H   UNL     1      39.525 -14.000   1.372  1.00  0.00     0.280 HD
BRANCH  30  34
HETATM   34  C   UNL     1      42.643 -16.964   3.171  1.00  0.00     0.036 A 
HETATM   35  C   UNL     1      42.750 -18.110   2.359  1.00  0.00     0.036 A 
HETATM   36  C   UNL     1      43.540 -19.215   2.718  1.00  0.00    -0.060 A 
HETATM   37  C   UNL     1      43.695 -20.389   1.795  1.00  0.00     0.048 C 
HETATM   38  C   UNL     1      44.236 -19.186   3.924  1.00  0.00     0.007 A 
HETATM   39  C   UNL     1      44.149 -18.070   4.750  1.00  0.00     0.009 A 
HETATM   40  C   UNL     1      43.386 -16.947   4.377  1.00  0.00    -0.035 A 
HETATM   41  C   UNL     1      43.431 -15.760   5.302  1.00  0.00     0.050 C 
ENDBRANCH  30  34
ENDBRANCH  26  27
ENDBRANCH  25  26
ENDBRANCH  24  25
ENDBRANCH   1  24
TORSDOF 7
ENDMDL
MODEL 2
REMARK VINA RESULT:      -9.9      2.403      3.967
REMARK  7 active torsions:
REMARK  status: ('A' for Active; 'I' for Inactive)
REMARK    1  A    between atoms: C_4  and  N_5 
REMARK    2  A    between atoms: N_8  and  C_10 
REMARK    3  A    between atoms: C_10  and  C_11 
REMARK    4  A    between atoms: C_11  and  C_12 
REMARK    5  A    between atoms: C_12  and  N_13 
REMARK       I    between atoms: N_13  and  C_14 
REMARK    6  A    between atoms: C_14  and  C_15 
REMARK    7  A    between atoms: C_21  and  C_22 
ROOT
HETATM    1  N   UNL     1      42.982 -10.684   7.327  1.00  0.00    -0.357 N 
HETATM    2  C   UNL     1      43.884 -10.659   8.373  1.00  0.00     0.251 C 
HETATM    3  O   UNL     1      45.035 -11.069   8.227  1.00  0.00    -0.268 OA
HETATM    4  H   UNL     1      42.067 -10.261   7.425  1.00  0.00     0.162 HD
ENDROOT
BRANCH   2   5
HETATM    5  C   UNL     1      43.451  -9.993   9.636  1.00  0.00     0.034 A 
HETATM    6  C   UNL     1      42.127  -9.609   9.886  1.00  0.00     0.048 A 
HETATM    7  C   UNL     1      41.800  -8.899  11.053  1.00  0.00     0.053 A 
HETATM    8  C   UNL     1      42.785  -8.580  11.985  1.00  0.00     0.032 A 
HETATM    9  N   UNL     1      40.470  -8.515  11.228  1.00  0.00    -0.321 N 
HETATM   10  S   UNL     1      42.478  -7.633  13.443  1.00  0.00    -0.083 SA
HETATM   11  C   UNL     1      44.101  -8.999  11.750  1.00  0.00     0.022 A 
HETATM   12  C   UNL     1      40.758  -7.506  13.482  1.00  0.00     0.074 C 
HETATM   13  C   UNL     1      40.090  -7.047  14.561  1.00  0.00     0.036 C 
HETATM   14  C   UNL     1      39.918  -7.870  12.295  1.00  0.00     0.263 C 
HETATM   15  O   UNL     1      38.712  -7.621  12.247  1.00  0.00    -0.267 OA
HETATM   16  C   UNL     1      44.433  -9.702  10.589  1.00  0.00     0.018 A 
HETATM   17  H   UNL     1      39.782  -8.736  10.518  1.00  0.00     0.169 HD
BRANCH  13  18
HETATM   18  C   UNL     1      40.692  -6.634  15.834  1.00  0.00    -0.035 A 
HETATM   19  C   UNL     1      40.936  -7.583  16.833  1.00  0.00     0.011 A 
HETATM   20  C   UNL     1      41.494  -7.189  18.051  1.00  0.00     0.001 A 
HETATM   21  C   UNL     1      41.811  -5.850  18.274  1.00  0.00     0.000 A 
HETATM   22  C   UNL     1      41.575  -4.903  17.279  1.00  0.00     0.001 A 
HETATM   23  C   UNL     1      41.017  -5.293  16.061  1.00  0.00     0.011 A 
ENDBRANCH  13  18
ENDBRANCH   2   5
BRANCH   1  24
HETATM   24  C   UNL     1      43.329 -11.220   6.028  1.00  0.00     0.124 C 
BRANCH  24  25
HETATM   25  C   UNL     1      42.110 -11.417   5.128  1.00  0.00     0.047 C 
BRANCH  25  26
HETATM   26  C   UNL     1      42.390 -11.667   3.645  1.00  0.00     0.236 C 
BRANCH  26  27
HETATM   27  N   UNL     1      42.189 -13.102   3.219  1.00  0.00    -0.068 N 
HETATM   28  C   UNL     1      43.398 -13.672   2.477  1.00  0.00     0.254 C 
HETATM   29  C   UNL     1      43.288 -15.190   2.220  1.00  0.00     0.150 C 
HETATM   30  N   UNL     1      42.984 -15.875   3.484  1.00  0.00    -0.377 N 
HETATM   31  C   UNL     1      41.689 -15.458   4.050  1.00  0.00     0.150 C 
HETATM   32  C   UNL     1      41.791 -13.966   4.429  1.00  0.00     0.254 C 
HETATM   33  H   UNL     1      41.344 -13.129   2.612  1.00  0.00     0.280 HD
BRANCH  30  34
HETATM   34  C   UNL     1      43.326 -17.224   3.633  1.00  0.00     0.036 A 
HETATM   35  C   UNL     1      43.167 -18.147   2.580  1.00  0.00     0.036 A 
HETATM   36  C   UNL     1      43.549 -19.493   2.695  1.00  0.00    -0.060 A 
HETATM   37  C   UNL     1      43.438 -20.433   1.530  1.00  0.00     0.048 C 
HETATM   38  C   UNL     1      44.096 -19.940   3.896  1.00  0.00     0.007 A 
HETATM   39  C   UNL     1      44.265 -19.055   4.955  1.00  0.00     0.009 A 
HETATM   40  C   UNL     1      43.914 -17.697   4.831  1.00  0.00    -0.035 A 
HETATM   41  C   UNL     1      44.220 -16.808   6.008  1.00  0.00     0.050 C 
ENDBRANCH  30  34
ENDBRANCH  26  27
ENDBRANCH  25  26
ENDBRANCH  24  25
ENDBRANCH   1  24
TORSDOF 7
ENDMDL
MODEL 3
REMARK VINA RESULT:      -9.8      1.469      2.339
REMARK  7 active torsions:
REMARK  status: ('A' for Active; 'I' for Inactive)
REMARK    1  A    between atoms: C_4  and  N_5 
REMARK    2  A    between atoms: N_8  and  C_10 
REMARK    3  A    between atoms: C_10  and  C_11 
REMARK    4  A    between atoms: C_11  and  C_12 
REMARK    5  A    between atoms: C_12  and  N_13 
REMARK       I    between atoms: N_13  and  C_14 
REMARK    6  A    between atoms: C_14  and  C_15 
REMARK    7  A    between atoms: C_21  and  C_22 
ROOT
HETATM    1  N   UNL     1      40.566  -8.821   3.321  1.00  0.00    -0.357 N 
HETATM    2  C   UNL     1      39.937  -9.602   4.271  1.00  0.00     0.251 C 
HETATM    3  O   UNL     1      39.145 -10.486   3.942  1.00  0.00    -0.268 OA
HETATM    4  H   UNL     1      41.285  -8.161   3.590  1.00  0.00     0.162 HD
ENDROOT
BRANCH   2   5
HETATM    5  C   UNL     1      40.358  -9.427   5.692  1.00  0.00     0.034 A 
HETATM    6  C   UNL     1      41.561  -9.931   6.203  1.00  0.00     0.048 A 
HETATM    7  C   UNL     1      41.857  -9.817   7.571  1.00  0.00     0.053 A 
HETATM    8  C   UNL     1      40.964  -9.189   8.436  1.00  0.00     0.032 A 
HETATM    9  N   UNL     1      43.056 -10.368   8.024  1.00  0.00    -0.321 N 
HETATM   10  S   UNL     1      41.221  -9.062  10.178  1.00  0.00    -0.083 SA
HETATM   11  C   UNL     1      39.780  -8.653   7.915  1.00  0.00     0.022 A 
HETATM   12  C   UNL     1      42.840  -9.622  10.386  1.00  0.00     0.074 C 
HETATM   13  C   UNL     1      43.512  -9.477  11.546  1.00  0.00     0.036 C 
HETATM   14  C   UNL     1      43.569 -10.334   9.288  1.00  0.00     0.263 C 
HETATM   15  O   UNL     1      44.652 -10.891   9.476  1.00  0.00    -0.267 OA
HETATM   16  C   UNL     1      39.478  -8.766   6.555  1.00  0.00     0.018 A 
HETATM   17  H   UNL     1      43.670 -10.845   7.376  1.00  0.00     0.169 HD
BRANCH  13  18
HETATM   18  C   UNL     1      43.010  -8.815  12.756  1.00  0.00    -0.035 A 
HETATM   19  C   UNL     1      43.532  -7.577  13.144  1.00  0.00     0.011 A 
HETATM   20  C   UNL     1      43.067  -6.953  14.303  1.00  0.00     0.001 A 
HETATM   21  C   UNL     1      42.079  -7.561  15.076  1.00  0.00     0.000 A 
HETATM   22  C   UNL     1      41.550  -8.792  14.689  1.00  0.00     0.001 A 
HETATM   23  C   UNL     1      42.014  -9.418  13.531  1.00  0.00     0.011 A 
ENDBRANCH  13  18
ENDBRANCH   2   5
BRANCH   1  24
HETATM   24  C   UNL     1      40.303  -8.975   1.906  1.00  0.00     0.124 C 
BRANCH  24  25
HETATM   25  C   UNL     1      41.313  -9.891   1.216  1.00  0.00     0.047 C 
BRANCH  25  26
HETATM   26  C   UNL     1      40.898 -11.352   1.036  1.00  0.00     0.236 C 
BRANCH  26  27
HETATM   27  N   UNL     1      41.083 -12.196   2.274  1.00  0.00    -0.068 N 
HETATM   28  C   UNL     1      40.499 -13.600   2.125  1.00  0.00     0.254 C 
HETATM   29  C   UNL     1      40.861 -14.534   3.299  1.00  0.00     0.150 C 
HETATM   30  N   UNL     1      42.315 -14.510   3.506  1.00  0.00    -0.377 N 
HETATM   31  C   UNL     1      42.807 -13.171   3.877  1.00  0.00     0.150 C 
HETATM   32  C   UNL     1      42.568 -12.226   2.682  1.00  0.00     0.254 C 
HETATM   33  H   UNL     1      40.625 -11.693   3.062  1.00  0.00     0.280 HD
BRANCH  30  34
HETATM   34  C   UNL     1      42.938 -15.599   4.128  1.00  0.00     0.036 A 
HETATM   35  C   UNL     1      43.142 -15.636   5.521  1.00  0.00     0.036 A 
HETATM   36  C   UNL     1      43.721 -16.740   6.167  1.00  0.00    -0.060 A 
HETATM   37  C   UNL     1      43.856 -16.781   7.662  1.00  0.00     0.048 C 
HETATM   38  C   UNL     1      44.119 -17.838   5.406  1.00  0.00     0.007 A 
HETATM   39  C   UNL     1      43.933 -17.832   4.028  1.00  0.00     0.009 A 
HETATM   40  C   UNL     1      43.321 -16.740   3.382  1.00  0.00    -0.035 A 
HETATM   41  C   UNL     1      43.089 -16.875   1.900  1.00  0.00     0.050 C 
ENDBRANCH  30  34
ENDBRANCH  26  27
ENDBRANCH  25  26
ENDBRANCH  24  25
ENDBRANCH   1  24
TORSDOF 7
ENDMDL
MODEL 4
REMARK VINA RESULT:      -9.6      3.149      5.528
REMARK  7 active torsions:
REMARK  status: ('A' for Active; 'I' for Inactive)
REMARK    1  A    between atoms: C_4  and  N_5 
REMARK    2  A    between atoms: N_8  and  C_10 
REMARK    3  A    between atoms: C_10  and  C_11 
REMARK    4  A    between atoms: C_11  and  C_12 
REMARK    5  A    between atoms: C_12  and  N_13 
REMARK       I    between atoms: N_13  and  C_14 
REMARK    6  A    between atoms: C_14  and  C_15 
REMARK    7  A    between atoms: C_21  and  C_22 
ROOT
HETATM    1  N   UNL     1      43.193 -10.355   9.212  1.00  0.00    -0.357 N 
HETATM    2  C   UNL     1      43.682 -10.292  10.502  1.00  0.00     0.251 C 
HETATM    3  O   UNL     1      44.718 -10.880  10.816  1.00  0.00    -0.268 OA
HETATM    4  H   UNL     1      42.395  -9.796   8.935  1.00  0.00     0.162 HD
ENDROOT
BRANCH   2   5
HETATM    5  C   UNL     1      42.988  -9.378  11.456  1.00  0.00     0.034 A 
HETATM    6  C   UNL     1      41.595  -9.257  11.524  1.00  0.00     0.048 A 
HETATM    7  C   UNL     1      41.003  -8.309  12.375  1.00  0.00     0.053 A 
HETATM    8  C   UNL     1      41.795  -7.487  13.174  1.00  0.00     0.032 A 
HETATM    9  N   UNL     1      39.611  -8.213  12.374  1.00  0.00    -0.321 N 
HETATM   10  S   UNL     1      41.143  -6.224  14.221  1.00  0.00    -0.083 SA
HETATM   11  C   UNL     1      43.187  -7.638  13.132  1.00  0.00     0.022 A 
HETATM   12  C   UNL     1      39.440  -6.499  14.166  1.00  0.00     0.074 C 
HETATM   13  C   UNL     1      38.581  -5.889  15.009  1.00  0.00     0.036 C 
HETATM   14  C   UNL     1      38.826  -7.409  13.146  1.00  0.00     0.263 C 
HETATM   15  O   UNL     1      37.607  -7.480  12.983  1.00  0.00    -0.267 OA
HETATM   16  C   UNL     1      43.781  -8.577  12.283  1.00  0.00     0.018 A 
HETATM   17  H   UNL     1      39.065  -8.804  11.760  1.00  0.00     0.169 HD
BRANCH  13  18
HETATM   18  C   UNL     1      38.944  -4.962  16.087  1.00  0.00    -0.035 A 
HETATM   19  C   UNL     1      38.678  -3.596  15.954  1.00  0.00     0.011 A 
HETATM   20  C   UNL     1      39.037  -2.711  16.973  1.00  0.00     0.001 A 
HETATM   21  C   UNL     1      39.659  -3.187  18.126  1.00  0.00     0.000 A 
HETATM   22  C   UNL     1      39.920  -4.549  18.265  1.00  0.00     0.001 A 
HETATM   23  C   UNL     1      39.562  -5.437  17.249  1.00  0.00     0.011 A 
ENDBRANCH  13  18
ENDBRANCH   2   5
BRANCH   1  24
HETATM   24  C   UNL     1      43.845 -11.136   8.182  1.00  0.00     0.124 C 
BRANCH  24  25
HETATM   25  C   UNL     1      43.294 -10.845   6.786  1.00  0.00     0.047 C 
BRANCH  25  26
HETATM   26  C   UNL     1      42.014 -11.582   6.390  1.00  0.00     0.236 C 
BRANCH  26  27
HETATM   27  N   UNL     1      42.139 -13.086   6.426  1.00  0.00    -0.068 N 
HETATM   28  C   UNL     1      41.156 -13.783   5.486  1.00  0.00     0.254 C 
HETATM   29  C   UNL     1      41.413 -15.300   5.359  1.00  0.00     0.150 C 
HETATM   30  N   UNL     1      42.825 -15.526   5.023  1.00  0.00    -0.377 N 
HETATM   31  C   UNL     1      43.736 -15.040   6.074  1.00  0.00     0.150 C 
HETATM   32  C   UNL     1      43.596 -13.506   6.156  1.00  0.00     0.254 C 
HETATM   33  H   UNL     1      41.977 -13.386   7.409  1.00  0.00     0.280 HD
BRANCH  30  34
HETATM   34  C   UNL     1      43.194 -16.710   4.373  1.00  0.00     0.036 A 
HETATM   35  C   UNL     1      43.559 -17.864   5.093  1.00  0.00     0.036 A 
HETATM   36  C   UNL     1      43.886 -19.074   4.460  1.00  0.00    -0.060 A 
HETATM   37  C   UNL     1      44.195 -20.308   5.257  1.00  0.00     0.048 C 
HETATM   38  C   UNL     1      43.860 -19.137   3.068  1.00  0.00     0.007 A 
HETATM   39  C   UNL     1      43.506 -18.015   2.328  1.00  0.00     0.009 A 
HETATM   40  C   UNL     1      43.145 -16.811   2.962  1.00  0.00    -0.035 A 
HETATM   41  C   UNL     1      42.695 -15.684   2.068  1.00  0.00     0.050 C 
ENDBRANCH  30  34
ENDBRANCH  26  27
ENDBRANCH  25  26
ENDBRANCH  24  25
ENDBRANCH   1  24
TORSDOF 7
ENDMDL
MODEL 5
REMARK VINA RESULT:      -9.5      4.739      8.722
REMARK  7 active torsions:
REMARK  status: ('A' for Active; 'I' for Inactive)
REMARK    1  A    between atoms: C_4  and  N_5 
REMARK    2  A    between atoms: N_8  and  C_10 
REMARK    3  A    between atoms: C_10  and  C_11 
REMARK    4  A    between atoms: C_11  and  C_12 
REMARK    5  A    between atoms: C_12  and  N_13 
REMARK       I    between atoms: N_13  and  C_14 
REMARK    6  A    between atoms: C_14  and  C_15 
REMARK    7  A    between atoms: C_21  and  C_22 
ROOT
HETATM    1  N   UNL     1      39.539  -9.940   5.477  1.00  0.00    -0.357 N 
HETATM    2  C   UNL     1      39.311 -11.082   6.218  1.00  0.00     0.251 C 
HETATM    3  O   UNL     1      38.480 -11.092   7.127  1.00  0.00    -0.268 OA
HETATM    4  H   UNL     1      40.154  -9.962   4.672  1.00  0.00     0.162 HD
ENDROOT
BRANCH   2   5
HETATM    5  C   UNL     1      40.006 -12.330   5.788  1.00  0.00     0.034 A 
HETATM    6  C   UNL     1      40.922 -12.371   4.729  1.00  0.00     0.048 A 
HETATM    7  C   UNL     1      41.470 -13.594   4.309  1.00  0.00     0.053 A 
HETATM    8  C   UNL     1      41.122 -14.781   4.950  1.00  0.00     0.032 A 
HETATM    9  N   UNL     1      42.351 -13.574   3.227  1.00  0.00    -0.321 N 
HETATM   10  S   UNL     1      41.707 -16.369   4.447  1.00  0.00    -0.083 SA
HETATM   11  C   UNL     1      40.235 -14.731   6.033  1.00  0.00     0.022 A 
HETATM   12  C   UNL     1      42.909 -15.996   3.266  1.00  0.00     0.074 C 
HETATM   13  C   UNL     1      43.765 -16.923   2.787  1.00  0.00     0.036 C 
HETATM   14  C   UNL     1      43.036 -14.621   2.684  1.00  0.00     0.263 C 
HETATM   15  O   UNL     1      43.767 -14.383   1.721  1.00  0.00    -0.267 OA
HETATM   16  C   UNL     1      39.683 -13.518   6.453  1.00  0.00     0.018 A 
HETATM   17  H   UNL     1      42.562 -12.699   2.763  1.00  0.00     0.169 HD
BRANCH  13  18
HETATM   18  C   UNL     1      43.834 -18.328   3.204  1.00  0.00    -0.035 A 
HETATM   19  C   UNL     1      43.459 -19.341   2.315  1.00  0.00     0.011 A 
HETATM   20  C   UNL     1      43.510 -20.678   2.715  1.00  0.00     0.001 A 
HETATM   21  C   UNL     1      43.937 -21.007   4.001  1.00  0.00     0.000 A 
HETATM   22  C   UNL     1      44.318 -20.001   4.888  1.00  0.00     0.001 A 
HETATM   23  C   UNL     1      44.268 -18.664   4.491  1.00  0.00     0.011 A 
ENDBRANCH  13  18
ENDBRANCH   2   5
BRANCH   1  24
HETATM   24  C   UNL     1      38.846  -8.698   5.748  1.00  0.00     0.124 C 
BRANCH  24  25
HETATM   25  C   UNL     1      38.072  -8.179   4.536  1.00  0.00     0.047 C 
BRANCH  25  26
HETATM   26  C   UNL     1      38.887  -7.453   3.465  1.00  0.00     0.236 C 
BRANCH  26  27
HETATM   27  N   UNL     1      39.043  -8.233   2.182  1.00  0.00    -0.068 N 
HETATM   28  C   UNL     1      40.457  -8.779   1.990  1.00  0.00     0.254 C 
HETATM   29  C   UNL     1      40.576  -9.746   0.794  1.00  0.00     0.150 C 
HETATM   30  N   UNL     1      39.545 -10.786   0.907  1.00  0.00    -0.377 N 
HETATM   31  C   UNL     1      38.180 -10.231   0.856  1.00  0.00     0.150 C 
HETATM   32  C   UNL     1      37.978  -9.343   2.101  1.00  0.00     0.254 C 
HETATM   33  H   UNL     1      38.790  -7.596   1.399  1.00  0.00     0.280 HD
BRANCH  30  34
HETATM   34  C   UNL     1      39.742 -12.020   0.276  1.00  0.00     0.036 A 
HETATM   35  C   UNL     1      39.780 -13.224   1.006  1.00  0.00     0.036 A 
HETATM   36  C   UNL     1      39.929 -14.476   0.385  1.00  0.00    -0.060 A 
HETATM   37  C   UNL     1      39.888 -15.746   1.183  1.00  0.00     0.048 C 
HETATM   38  C   UNL     1      40.055 -14.532  -1.001  1.00  0.00     0.007 A 
HETATM   39  C   UNL     1      40.024 -13.361  -1.750  1.00  0.00     0.009 A 
HETATM   40  C   UNL     1      39.840 -12.108  -1.133  1.00  0.00    -0.035 A 
HETATM   41  C   UNL     1      39.735 -10.914  -2.045  1.00  0.00     0.050 C 
ENDBRANCH  30  34
ENDBRANCH  26  27
ENDBRANCH  25  26
ENDBRANCH  24  25
ENDBRANCH   1  24
TORSDOF 7
ENDMDL
MODEL 6
REMARK VINA RESULT:      -9.5      2.859     10.525
REMARK  7 active torsions:
REMARK  status: ('A' for Active; 'I' for Inactive)
REMARK    1  A    between atoms: C_4  and  N_5 
REMARK    2  A    between atoms: N_8  and  C_10 
REMARK    3  A    between atoms: C_10  and  C_11 
REMARK    4  A    between atoms: C_11  and  C_12 
REMARK    5  A    between atoms: C_12  and  N_13 
REMARK       I    between atoms: N_13  and  C_14 
REMARK    6  A    between atoms: C_14  and  C_15 
REMARK    7  A    between atoms: C_21  and  C_22 
ROOT
HETATM    1  N   UNL     1      39.145 -10.037   5.224  1.00  0.00    -0.357 N 
HETATM    2  C   UNL     1      39.192 -11.073   6.135  1.00  0.00     0.251 C 
HETATM    3  O   UNL     1      38.574 -11.010   7.198  1.00  0.00    -0.268 OA
HETATM    4  H   UNL     1      39.577 -10.132   4.312  1.00  0.00     0.162 HD
ENDROOT
BRANCH   2   5
HETATM    5  C   UNL     1      39.902 -12.319   5.722  1.00  0.00     0.034 A 
HETATM    6  C   UNL     1      40.800 -12.369   4.649  1.00  0.00     0.048 A 
HETATM    7  C   UNL     1      41.364 -13.592   4.248  1.00  0.00     0.053 A 
HETATM    8  C   UNL     1      41.048 -14.769   4.923  1.00  0.00     0.032 A 
HETATM    9  N   UNL     1      42.226 -13.582   3.151  1.00  0.00    -0.321 N 
HETATM   10  S   UNL     1      41.654 -16.358   4.448  1.00  0.00    -0.083 SA
HETATM   11  C   UNL     1      40.179 -14.709   6.020  1.00  0.00     0.022 A 
HETATM   12  C   UNL     1      42.828 -15.992   3.238  1.00  0.00     0.074 C 
HETATM   13  C   UNL     1      43.693 -16.914   2.766  1.00  0.00     0.036 C 
HETATM   14  C   UNL     1      42.920 -14.630   2.621  1.00  0.00     0.263 C 
HETATM   15  O   UNL     1      43.630 -14.402   1.640  1.00  0.00    -0.267 OA
HETATM   16  C   UNL     1      39.612 -13.496   6.420  1.00  0.00     0.018 A 
HETATM   17  H   UNL     1      42.412 -12.714   2.663  1.00  0.00     0.169 HD
BRANCH  13  18
HETATM   18  C   UNL     1      43.795 -18.308   3.215  1.00  0.00    -0.035 A 
HETATM   19  C   UNL     1      43.459 -19.350   2.344  1.00  0.00     0.011 A 
HETATM   20  C   UNL     1      43.541 -20.676   2.774  1.00  0.00     0.001 A 
HETATM   21  C   UNL     1      43.960 -20.965   4.072  1.00  0.00     0.000 A 
HETATM   22  C   UNL     1      44.302 -19.930   4.941  1.00  0.00     0.001 A 
HETATM   23  C   UNL     1      44.221 -18.603   4.514  1.00  0.00     0.011 A 
ENDBRANCH  13  18
ENDBRANCH   2   5
BRANCH   1  24
HETATM   24  C   UNL     1      38.404  -8.821   5.482  1.00  0.00     0.124 C 
BRANCH  24  25
HETATM   25  C   UNL     1      39.256  -7.564   5.309  1.00  0.00     0.047 C 
BRANCH  25  26
HETATM   26  C   UNL     1      40.773  -7.762   5.314  1.00  0.00     0.236 C 
BRANCH  26  27
HETATM   27  N   UNL     1      41.416  -7.521   6.659  1.00  0.00    -0.068 N 
HETATM   28  C   UNL     1      40.489  -6.797   7.635  1.00  0.00     0.254 C 
HETATM   29  C   UNL     1      41.055  -6.729   9.069  1.00  0.00     0.150 C 
HETATM   30  N   UNL     1      41.442  -8.078   9.502  1.00  0.00    -0.377 N 
HETATM   31  C   UNL     1      42.510  -8.651   8.663  1.00  0.00     0.150 C 
HETATM   32  C   UNL     1      41.948  -8.844   7.239  1.00  0.00     0.254 C 
HETATM   33  H   UNL     1      42.278  -6.963   6.494  1.00  0.00     0.280 HD
BRANCH  30  34
HETATM   34  C   UNL     1      41.496  -8.371  10.870  1.00  0.00     0.036 A 
HETATM   35  C   UNL     1      42.418  -7.737  11.725  1.00  0.00     0.036 A 
HETATM   36  C   UNL     1      42.454  -7.982  13.107  1.00  0.00    -0.060 A 
HETATM   37  C   UNL     1      43.396  -7.233  14.003  1.00  0.00     0.048 C 
HETATM   38  C   UNL     1      41.555  -8.894  13.656  1.00  0.00     0.007 A 
HETATM   39  C   UNL     1      40.633  -9.539  12.838  1.00  0.00     0.009 A 
HETATM   40  C   UNL     1      40.572  -9.269  11.458  1.00  0.00    -0.035 A 
HETATM   41  C   UNL     1      39.480  -9.957  10.681  1.00  0.00     0.050 C 
ENDBRANCH  30  34
ENDBRANCH  26  27
ENDBRANCH  25  26
ENDBRANCH  24  25
ENDBRANCH   1  24
TORSDOF 7
ENDMDL
MODEL 7
REMARK VINA RESULT:      -9.3      3.629      5.180
REMARK  7 active torsions:
REMARK  status: ('A' for Active; 'I' for Inactive)
REMARK    1  A    between atoms: C_4  and  N_5 
REMARK    2  A    between atoms: N_8  and  C_10 
REMARK    3  A    between atoms: C_10  and  C_11 
REMARK    4  A    between atoms: C_11  and  C_12 
REMARK    5  A    between atoms: C_12  and  N_13 
REMARK       I    between atoms: N_13  and  C_14 
REMARK    6  A    between atoms: C_14  and  C_15 
REMARK    7  A    between atoms: C_21  and  C_22 
ROOT
HETATM    1  N   UNL     1      39.181 -10.512   7.821  1.00  0.00    -0.357 N 
HETATM    2  C   UNL     1      39.541  -9.200   8.060  1.00  0.00     0.251 C 
HETATM    3  O   UNL     1      39.604  -8.384   7.141  1.00  0.00    -0.268 OA
HETATM    4  H   UNL     1      39.039 -11.156   8.590  1.00  0.00     0.162 HD
ENDROOT
BRANCH   2   5
HETATM    5  C   UNL     1      39.713  -8.783   9.482  1.00  0.00     0.034 A 
HETATM    6  C   UNL     1      38.788  -7.981  10.163  1.00  0.00     0.048 A 
HETATM    7  C   UNL     1      39.053  -7.542  11.470  1.00  0.00     0.053 A 
HETATM    8  C   UNL     1      40.232  -7.911  12.113  1.00  0.00     0.032 A 
HETATM    9  N   UNL     1      38.108  -6.718  12.083  1.00  0.00    -0.321 N 
HETATM   10  S   UNL     1      40.679  -7.351  13.727  1.00  0.00    -0.083 SA
HETATM   11  C   UNL     1      41.137  -8.744  11.443  1.00  0.00     0.022 A 
HETATM   12  C   UNL     1      39.252  -6.558  14.284  1.00  0.00     0.074 C 
HETATM   13  C   UNL     1      39.090  -6.177  15.568  1.00  0.00     0.036 C 
HETATM   14  C   UNL     1      38.129  -6.218  13.352  1.00  0.00     0.263 C 
HETATM   15  O   UNL     1      37.187  -5.502  13.695  1.00  0.00    -0.267 OA
HETATM   16  C   UNL     1      40.881  -9.181  10.141  1.00  0.00     0.018 A 
HETATM   17  H   UNL     1      37.274  -6.444  11.578  1.00  0.00     0.169 HD
BRANCH  13  18
HETATM   18  C   UNL     1      40.045  -6.401  16.660  1.00  0.00    -0.035 A 
HETATM   19  C   UNL     1      39.992  -7.583  17.405  1.00  0.00     0.011 A 
HETATM   20  C   UNL     1      40.890  -7.791  18.454  1.00  0.00     0.001 A 
HETATM   21  C   UNL     1      41.843  -6.821  18.760  1.00  0.00     0.000 A 
HETATM   22  C   UNL     1      41.904  -5.644  18.015  1.00  0.00     0.001 A 
HETATM   23  C   UNL     1      41.008  -5.434  16.966  1.00  0.00     0.011 A 
ENDBRANCH  13  18
ENDBRANCH   2   5
BRANCH   1  24
HETATM   24  C   UNL     1      38.896 -10.999   6.488  1.00  0.00     0.124 C 
BRANCH  24  25
HETATM   25  C   UNL     1      39.630 -12.301   6.168  1.00  0.00     0.047 C 
BRANCH  25  26
HETATM   26  C   UNL     1      41.149 -12.291   6.350  1.00  0.00     0.236 C 
BRANCH  26  27
HETATM   27  N   UNL     1      41.764 -13.668   6.431  1.00  0.00    -0.068 N 
HETATM   28  C   UNL     1      40.772 -14.778   6.086  1.00  0.00     0.254 C 
HETATM   29  C   UNL     1      41.436 -16.166   5.964  1.00  0.00     0.150 C 
HETATM   30  N   UNL     1      42.578 -16.077   5.045  1.00  0.00    -0.377 N 
HETATM   31  C   UNL     1      43.624 -15.161   5.535  1.00  0.00     0.150 C 
HETATM   32  C   UNL     1      43.034 -13.736   5.564  1.00  0.00     0.254 C 
HETATM   33  H   UNL     1      42.123 -13.789   7.400  1.00  0.00     0.280 HD
BRANCH  30  34
HETATM   34  C   UNL     1      43.018 -17.230   4.383  1.00  0.00     0.036 A 
HETATM   35  C   UNL     1      43.579 -18.315   5.084  1.00  0.00     0.036 A 
HETATM   36  C   UNL     1      43.981 -19.499   4.443  1.00  0.00    -0.060 A 
HETATM   37  C   UNL     1      44.504 -20.666   5.228  1.00  0.00     0.048 C 
HETATM   38  C   UNL     1      43.831 -19.604   3.062  1.00  0.00     0.007 A 
HETATM   39  C   UNL     1      43.282 -18.550   2.340  1.00  0.00     0.009 A 
HETATM   40  C   UNL     1      42.847 -17.376   2.985  1.00  0.00    -0.035 A 
HETATM   41  C   UNL     1      42.188 -16.333   2.120  1.00  0.00     0.050 C 
ENDBRANCH  30  34
ENDBRANCH  26  27
ENDBRANCH  25  26
ENDBRANCH  24  25
ENDBRANCH   1  24
TORSDOF 7
ENDMDL
MODEL 8
REMARK VINA RESULT:      -9.2      3.499      5.629
REMARK  7 active torsions:
REMARK  status: ('A' for Active; 'I' for Inactive)
REMARK    1  A    between atoms: C_4  and  N_5 
REMARK    2  A    between atoms: N_8  and  C_10 
REMARK    3  A    between atoms: C_10  and  C_11 
REMARK    4  A    between atoms: C_11  and  C_12 
REMARK    5  A    between atoms: C_12  and  N_13 
REMARK       I    between atoms: N_13  and  C_14 
REMARK    6  A    between atoms: C_14  and  C_15 
REMARK    7  A    between atoms: C_21  and  C_22 
ROOT
HETATM    1  N   UNL     1      41.480  -9.152   8.916  1.00  0.00    -0.357 N 
HETATM    2  C   UNL     1      42.526  -8.694   9.692  1.00  0.00     0.251 C 
HETATM    3  O   UNL     1      43.642  -8.507   9.206  1.00  0.00    -0.268 OA
HETATM    4  H   UNL     1      40.544  -9.215   9.297  1.00  0.00     0.162 HD
ENDROOT
BRANCH   2   5
HETATM    5  C   UNL     1      42.218  -8.305  11.099  1.00  0.00     0.034 A 
HETATM    6  C   UNL     1      40.966  -7.827  11.506  1.00  0.00     0.048 A 
HETATM    7  C   UNL     1      40.765  -7.386  12.824  1.00  0.00     0.053 A 
HETATM    8  C   UNL     1      41.806  -7.433  13.750  1.00  0.00     0.032 A 
HETATM    9  N   UNL     1      39.505  -6.890  13.159  1.00  0.00    -0.321 N 
HETATM   10  S   UNL     1      41.665  -6.838  15.406  1.00  0.00    -0.083 SA
HETATM   11  C   UNL     1      43.046  -7.947  13.350  1.00  0.00     0.022 A 
HETATM   12  C   UNL     1      39.979  -6.505  15.569  1.00  0.00     0.074 C 
HETATM   13  C   UNL     1      39.406  -6.240  16.761  1.00  0.00     0.036 C 
HETATM   14  C   UNL     1      39.071  -6.458  14.378  1.00  0.00     0.263 C 
HETATM   15  O   UNL     1      37.910  -6.053  14.456  1.00  0.00    -0.267 OA
HETATM   16  C   UNL     1      43.252  -8.383  12.038  1.00  0.00     0.018 A 
HETATM   17  H   UNL     1      38.778  -6.842  12.456  1.00  0.00     0.169 HD
BRANCH  13  18
HETATM   18  C   UNL     1      40.087  -6.230  18.061  1.00  0.00    -0.035 A 
HETATM   19  C   UNL     1      40.649  -5.046  18.548  1.00  0.00     0.011 A 
HETATM   20  C   UNL     1      41.310  -5.038  19.778  1.00  0.00     0.001 A 
HETATM   21  C   UNL     1      41.410  -6.212  20.524  1.00  0.00     0.000 A 
HETATM   22  C   UNL     1      40.846  -7.393  20.046  1.00  0.00     0.001 A 
HETATM   23  C   UNL     1      40.184  -7.403  18.817  1.00  0.00     0.011 A 
ENDBRANCH  13  18
ENDBRANCH   2   5
BRANCH   1  24
HETATM   24  C   UNL     1      41.647  -9.468   7.513  1.00  0.00     0.124 C 
BRANCH  24  25
HETATM   25  C   UNL     1      40.361  -9.986   6.870  1.00  0.00     0.047 C 
BRANCH  25  26
HETATM   26  C   UNL     1      40.520 -10.791   5.579  1.00  0.00     0.236 C 
BRANCH  26  27
HETATM   27  N   UNL     1      41.176 -12.137   5.775  1.00  0.00    -0.068 N 
HETATM   28  C   UNL     1      40.254 -13.301   5.416  1.00  0.00     0.254 C 
HETATM   29  C   UNL     1      40.975 -14.666   5.414  1.00  0.00     0.150 C 
HETATM   30  N   UNL     1      42.179 -14.576   4.578  1.00  0.00    -0.377 N 
HETATM   31  C   UNL     1      43.151 -13.597   5.095  1.00  0.00     0.150 C 
HETATM   32  C   UNL     1      42.510 -12.196   5.008  1.00  0.00     0.254 C 
HETATM   33  H   UNL     1      41.466 -12.197   6.773  1.00  0.00     0.280 HD
BRANCH  30  34
HETATM   34  C   UNL     1      42.708 -15.742   4.010  1.00  0.00     0.036 A 
HETATM   35  C   UNL     1      43.148 -16.817   4.807  1.00  0.00     0.036 A 
HETATM   36  C   UNL     1      43.637 -18.012   4.254  1.00  0.00    -0.060 A 
HETATM   37  C   UNL     1      44.026 -19.168   5.129  1.00  0.00     0.048 C 
HETATM   38  C   UNL     1      43.701 -18.140   2.868  1.00  0.00     0.007 A 
HETATM   39  C   UNL     1      43.276 -17.096   2.054  1.00  0.00     0.009 A 
HETATM   40  C   UNL     1      42.754 -15.910   2.605  1.00  0.00    -0.035 A 
HETATM   41  C   UNL     1      42.242 -14.880   1.632  1.00  0.00     0.050 C 
ENDBRANCH  30  34
ENDBRANCH  26  27
ENDBRANCH  25  26
ENDBRANCH  24  25
ENDBRANCH   1  24
TORSDOF 7
ENDMDL
MODEL 9
REMARK VINA RESULT:      -9.2      2.878      4.095
REMARK  7 active torsions:
REMARK  status: ('A' for Active; 'I' for Inactive)
REMARK    1  A    between atoms: C_4  and  N_5 
REMARK    2  A    between atoms: N_8  and  C_10 
REMARK    3  A    between atoms: C_10  and  C_11 
REMARK    4  A    between atoms: C_11  and  C_12 
REMARK    5  A    between atoms: C_12  and  N_13 
REMARK       I    between atoms: N_13  and  C_14 
REMARK    6  A    between atoms: C_14  and  C_15 
REMARK    7  A    between atoms: C_21  and  C_22 
ROOT
HETATM    1  N   UNL     1      39.095 -10.484   7.206  1.00  0.00    -0.357 N 
HETATM    2  C   UNL     1      39.272  -9.145   7.493  1.00  0.00     0.251 C 
HETATM    3  O   UNL     1      39.106  -8.284   6.629  1.00  0.00    -0.268 OA
HETATM    4  H   UNL     1      39.140 -11.180   7.941  1.00  0.00     0.162 HD
ENDROOT
BRANCH   2   5
HETATM    5  C   UNL     1      39.535  -8.777   8.915  1.00  0.00     0.034 A 
HETATM    6  C   UNL     1      40.542  -9.371   9.687  1.00  0.00     0.048 A 
HETATM    7  C   UNL     1      40.678  -9.052  11.048  1.00  0.00     0.053 A 
HETATM    8  C   UNL     1      39.822  -8.129  11.645  1.00  0.00     0.032 A 
HETATM    9  N   UNL     1      41.679  -9.701  11.771  1.00  0.00    -0.321 N 
HETATM   10  S   UNL     1      39.875  -7.718  13.361  1.00  0.00    -0.083 SA
HETATM   11  C   UNL     1      38.840  -7.509  10.861  1.00  0.00     0.022 A 
HETATM   12  C   UNL     1      41.314  -8.494  13.914  1.00  0.00     0.074 C 
HETATM   13  C   UNL     1      41.848  -8.248  15.127  1.00  0.00     0.036 C 
HETATM   14  C   UNL     1      42.024  -9.515  13.078  1.00  0.00     0.263 C 
HETATM   15  O   UNL     1      42.946 -10.200  13.524  1.00  0.00    -0.267 OA
HETATM   16  C   UNL     1      38.698  -7.826   9.508  1.00  0.00     0.018 A 
HETATM   17  H   UNL     1      42.266 -10.388  11.315  1.00  0.00     0.169 HD
BRANCH  13  18
HETATM   18  C   UNL     1      41.335  -7.293  16.117  1.00  0.00    -0.035 A 
HETATM   19  C   UNL     1      41.640  -5.933  16.001  1.00  0.00     0.011 A 
HETATM   20  C   UNL     1      41.166  -5.026  16.951  1.00  0.00     0.001 A 
HETATM   21  C   UNL     1      40.385  -5.473  18.015  1.00  0.00     0.000 A 
HETATM   22  C   UNL     1      40.073  -6.827  18.131  1.00  0.00     0.001 A 
HETATM   23  C   UNL     1      40.546  -7.736  17.183  1.00  0.00     0.011 A 
ENDBRANCH  13  18
ENDBRANCH   2   5
BRANCH   1  24
HETATM   24  C   UNL     1      38.742 -10.944   5.879  1.00  0.00     0.124 C 
BRANCH  24  25
HETATM   25  C   UNL     1      39.700 -12.012   5.353  1.00  0.00     0.047 C 
BRANCH  25  26
HETATM   26  C   UNL     1      41.056 -12.118   6.053  1.00  0.00     0.236 C 
BRANCH  26  27
HETATM   27  N   UNL     1      41.549 -13.535   6.218  1.00  0.00    -0.068 N 
HETATM   28  C   UNL     1      40.599 -14.566   5.608  1.00  0.00     0.254 C 
HETATM   29  C   UNL     1      41.187 -15.993   5.587  1.00  0.00     0.150 C 
HETATM   30  N   UNL     1      42.516 -15.960   4.962  1.00  0.00    -0.377 N 
HETATM   31  C   UNL     1      43.472 -15.131   5.718  1.00  0.00     0.150 C 
HETATM   32  C   UNL     1      42.980 -13.669   5.667  1.00  0.00     0.254 C 
HETATM   33  H   UNL     1      41.664 -13.706   7.238  1.00  0.00     0.280 HD
BRANCH  30  34
HETATM   34  C   UNL     1      43.026 -17.124   4.374  1.00  0.00     0.036 A 
HETATM   35  C   UNL     1      43.447 -18.220   5.152  1.00  0.00     0.036 A 
HETATM   36  C   UNL     1      43.917 -19.413   4.578  1.00  0.00    -0.060 A 
HETATM   37  C   UNL     1      44.286 -20.591   5.432  1.00  0.00     0.048 C 
HETATM   38  C   UNL     1      43.980 -19.517   3.190  1.00  0.00     0.007 A 
HETATM   39  C   UNL     1      43.573 -18.452   2.394  1.00  0.00     0.009 A 
HETATM   40  C   UNL     1      43.070 -17.268   2.966  1.00  0.00    -0.035 A 
HETATM   41  C   UNL     1      42.577 -16.212   2.012  1.00  0.00     0.050 C 
ENDBRANCH  30  34
ENDBRANCH  26  27
ENDBRANCH  25  26
ENDBRANCH  24  25
ENDBRANCH   1  24
TORSDOF 7
ENDMDL
MODEL 10
REMARK VINA RESULT:      -9.1      3.294      9.670
REMARK  7 active torsions:
REMARK  status: ('A' for Active; 'I' for Inactive)
REMARK    1  A    between atoms: C_4  and  N_5 
REMARK    2  A    between atoms: N_8  and  C_10 
REMARK    3  A    between atoms: C_10  and  C_11 
REMARK    4  A    between atoms: C_11  and  C_12 
REMARK    5  A    between atoms: C_12  and  N_13 
REMARK       I    between atoms: N_13  and  C_14 
REMARK    6  A    between atoms: C_14  and  C_15 
REMARK    7  A    between atoms: C_21  and  C_22 
ROOT
HETATM    1  N   UNL     1      38.224  -9.668   4.384  1.00  0.00    -0.357 N 
HETATM    2  C   UNL     1      38.502 -10.553   5.407  1.00  0.00     0.251 C 
HETATM    3  O   UNL     1      38.047 -10.379   6.538  1.00  0.00    -0.268 OA
HETATM    4  H   UNL     1      38.522  -9.864   3.436  1.00  0.00     0.162 HD
ENDROOT
BRANCH   2   5
HETATM    5  C   UNL     1      39.256 -11.792   5.056  1.00  0.00     0.034 A 
HETATM    6  C   UNL     1      39.578 -12.146   3.739  1.00  0.00     0.048 A 
HETATM    7  C   UNL     1      40.205 -13.372   3.465  1.00  0.00     0.053 A 
HETATM    8  C   UNL     1      40.528 -14.247   4.500  1.00  0.00     0.032 A 
HETATM    9  N   UNL     1      40.469 -13.683   2.130  1.00  0.00    -0.321 N 
HETATM   10  S   UNL     1      41.253 -15.836   4.244  1.00  0.00    -0.083 SA
HETATM   11  C   UNL     1      40.240 -13.872   5.818  1.00  0.00     0.022 A 
HETATM   12  C   UNL     1      41.647 -15.829   2.564  1.00  0.00     0.074 C 
HETATM   13  C   UNL     1      42.425 -16.775   1.999  1.00  0.00     0.036 C 
HETATM   14  C   UNL     1      41.108 -14.782   1.637  1.00  0.00     0.263 C 
HETATM   15  O   UNL     1      41.236 -14.863   0.414  1.00  0.00    -0.267 OA
HETATM   16  C   UNL     1      39.612 -12.655   6.097  1.00  0.00     0.018 A 
HETATM   17  H   UNL     1      40.195 -13.039   1.398  1.00  0.00     0.169 HD
BRANCH  13  18
HETATM   18  C   UNL     1      43.067 -17.894   2.700  1.00  0.00    -0.035 A 
HETATM   19  C   UNL     1      43.760 -17.667   3.893  1.00  0.00     0.011 A 
HETATM   20  C   UNL     1      44.383 -18.728   4.553  1.00  0.00     0.001 A 
HETATM   21  C   UNL     1      44.315 -20.017   4.024  1.00  0.00     0.000 A 
HETATM   22  C   UNL     1      43.620 -20.248   2.838  1.00  0.00     0.001 A 
HETATM   23  C   UNL     1      42.996 -19.189   2.177  1.00  0.00     0.011 A 
ENDBRANCH  13  18
ENDBRANCH   2   5
BRANCH   1  24
HETATM   24  C   UNL     1      37.419  -8.482   4.594  1.00  0.00     0.124 C 
BRANCH  24  25
HETATM   25  C   UNL     1      38.264  -7.222   4.777  1.00  0.00     0.047 C 
BRANCH  25  26
HETATM   26  C   UNL     1      38.256  -6.592   6.171  1.00  0.00     0.236 C 
BRANCH  26  27
HETATM   27  N   UNL     1      39.542  -6.788   6.937  1.00  0.00    -0.068 N 
HETATM   28  C   UNL     1      39.471  -7.953   7.923  1.00  0.00     0.254 C 
HETATM   29  C   UNL     1      40.836  -8.293   8.559  1.00  0.00     0.150 C 
HETATM   30  N   UNL     1      41.834  -8.469   7.496  1.00  0.00    -0.377 N 
HETATM   31  C   UNL     1      42.040  -7.239   6.710  1.00  0.00     0.150 C 
HETATM   32  C   UNL     1      40.727  -6.925   5.963  1.00  0.00     0.254 C 
HETATM   33  H   UNL     1      39.742  -5.898   7.439  1.00  0.00     0.280 HD
BRANCH  30  34
HETATM   34  C   UNL     1      42.970  -9.249   7.744  1.00  0.00     0.036 A 
HETATM   35  C   UNL     1      43.720  -9.106   8.928  1.00  0.00     0.036 A 
HETATM   36  C   UNL     1      44.833  -9.912   9.216  1.00  0.00    -0.060 A 
HETATM   37  C   UNL     1      45.564  -9.787  10.520  1.00  0.00     0.048 C 
HETATM   38  C   UNL     1      45.220 -10.884   8.295  1.00  0.00     0.007 A 
HETATM   39  C   UNL     1      44.502 -11.050   7.116  1.00  0.00     0.009 A 
HETATM   40  C   UNL     1      43.365 -10.266   6.841  1.00  0.00    -0.035 A 
HETATM   41  C   UNL     1      42.611 -10.587   5.577  1.00  0.00     0.050 C 
ENDBRANCH  30  34
ENDBRANCH  26  27
ENDBRANCH  25  26
ENDBRANCH  24  25
ENDBRANCH   1  24
TORSDOF 7
ENDMDL
