MODEL 1
REMARK VINA RESULT:      -7.7      0.000      0.000
REMARK  5 active torsions:
REMARK  status: ('A' for Active; 'I' for Inactive)
REMARK    1  A    between atoms: C_2  and  C_3 
REMARK    2  A    between atoms: C_3  and  N_4 
REMARK    3  A    between atoms: C_7  and  C_8 
REMARK    4  A    between atoms: C_8  and  O_9 
REMARK    5  A    between atoms: N_13  and  C_15 
ROOT
HETATM    1  N   UNL     1      41.775 -15.940   1.911  1.00  0.00    -0.067 N 
HETATM    2  H   UNL     1      41.245 -16.617   1.343  1.00  0.00     0.280 HD
HETATM    3  C   UNL     1      41.165 -16.024   3.286  1.00  0.00     0.242 C 
HETATM    4  C   UNL     1      41.679 -14.893   4.210  1.00  0.00     0.044 C 
HETATM    5  C   UNL     1      41.451 -13.449   3.612  1.00  0.00    -0.029 C 
HETATM    6  C   UNL     1      39.950 -13.035   3.502  1.00  0.00     0.037 C 
HETATM    7  C   UNL     1      39.344 -12.353   4.732  1.00  0.00     0.236 C 
HETATM    8  N   UNL     1      40.178 -11.171   5.164  1.00  0.00    -0.067 N 
HETATM    9  H   UNL     1      39.747 -10.843   6.041  1.00  0.00     0.280 HD
HETATM   10  C   UNL     1      41.545 -11.676   5.571  1.00  0.00     0.236 C 
HETATM   11  C   UNL     1      42.250 -12.354   4.396  1.00  0.00     0.037 C 
HETATM   12  C   UNL     1      42.074 -13.486   2.169  1.00  0.00     0.037 C 
HETATM   13  C   UNL     1      41.564 -14.606   1.267  1.00  0.00     0.236 C 
ENDROOT
BRANCH   4  14
HETATM   14  C   UNL     1      41.131 -15.151   5.620  1.00  0.00     0.171 C 
BRANCH  14  15
HETATM   15  O   UNL     1      40.012 -16.013   5.500  1.00  0.00    -0.400 OA
HETATM   16  H   UNL     1      39.204 -15.475   5.380  1.00  0.00     0.209 HD
ENDBRANCH  14  15
ENDBRANCH   4  14
BRANCH   1  17
HETATM   17  C   UNL     1      43.203 -16.463   1.809  1.00  0.00     0.273 C 
BRANCH  17  18
HETATM   18  C   UNL     1      43.455 -17.663   2.686  1.00  0.00    -0.033 A 
HETATM   19  C   UNL     1      43.948 -17.504   3.992  1.00  0.00     0.010 A 
HETATM   20  C   UNL     1      44.235 -18.622   4.780  1.00  0.00     0.024 A 
HETATM   21  C   UNL     1      44.030 -19.903   4.273  1.00  0.00     0.034 A 
HETATM   22  C   UNL     1      43.529 -20.076   2.985  1.00  0.00     0.024 A 
HETATM   23 CL   UNL     1      44.401 -21.275   5.238  1.00  0.00    -0.084 Cl
HETATM   24  C   UNL     1      43.242 -18.961   2.193  1.00  0.00     0.010 A 
ENDBRANCH  17  18
ENDBRANCH   1  17
BRANCH   8  25
HETATM   25  C   UNL     1      40.163  -9.936   4.220  1.00  0.00     0.192 C 
HETATM   26  C   UNL     1      38.730  -9.511   3.866  1.00  0.00     0.059 C 
HETATM   27  C   UNL     1      38.017  -8.887   5.055  1.00  0.00     0.169 C 
HETATM   28  O   UNL     1      38.774  -7.797   5.562  1.00  0.00    -0.391 OA
HETATM   29  C   UNL     1      40.084  -8.134   5.997  1.00  0.00     0.169 C 
HETATM   30  C   UNL     1      40.881  -8.732   4.848  1.00  0.00     0.059 C 
ENDBRANCH   8  25
TORSDOF 5
ENDMDL
MODEL 2
REMARK VINA RESULT:      -7.6      3.092      3.962
REMARK  5 active torsions:
REMARK  status: ('A' for Active; 'I' for Inactive)
REMARK    1  A    between atoms: C_2  and  C_3 
REMARK    2  A    between atoms: C_3  and  N_4 
REMARK    3  A    between atoms: C_7  and  C_8 
REMARK    4  A    between atoms: C_8  and  O_9 
REMARK    5  A    between atoms: N_13  and  C_15 
ROOT
HETATM    1  N   UNL     1      41.539 -15.638   2.753  1.00  0.00    -0.067 N 
HETATM    2  H   UNL     1      41.430 -16.184   3.619  1.00  0.00     0.280 HD
HETATM    3  C   UNL     1      41.917 -14.254   3.211  1.00  0.00     0.242 C 
HETATM    4  C   UNL     1      41.881 -13.235   2.045  1.00  0.00     0.044 C 
HETATM    5  C   UNL     1      40.488 -13.189   1.302  1.00  0.00    -0.029 C 
HETATM    6  C   UNL     1      39.320 -12.631   2.173  1.00  0.00     0.037 C 
HETATM    7  C   UNL     1      39.111 -11.115   2.136  1.00  0.00     0.236 C 
HETATM    8  N   UNL     1      38.983 -10.619   0.716  1.00  0.00    -0.067 N 
HETATM    9  H   UNL     1      38.941  -9.592   0.791  1.00  0.00     0.280 HD
HETATM   10  C   UNL     1      40.281 -10.902  -0.007  1.00  0.00     0.236 C 
HETATM   11  C   UNL     1      40.568 -12.402  -0.049  1.00  0.00     0.037 C 
HETATM   12  C   UNL     1      40.167 -14.679   0.915  1.00  0.00     0.037 C 
HETATM   13  C   UNL     1      40.208 -15.676   2.070  1.00  0.00     0.236 C 
ENDROOT
BRANCH   4  14
HETATM   14  C   UNL     1      42.429 -11.901   2.570  1.00  0.00     0.171 C 
BRANCH  14  15
HETATM   15  O   UNL     1      43.689 -12.153   3.168  1.00  0.00    -0.400 OA
HETATM   16  H   UNL     1      43.705 -11.757   4.062  1.00  0.00     0.209 HD
ENDBRANCH  14  15
ENDBRANCH   4  14
BRANCH   1  17
HETATM   17  C   UNL     1      42.640 -16.393   2.017  1.00  0.00     0.273 C 
BRANCH  17  18
HETATM   18  C   UNL     1      43.188 -17.553   2.807  1.00  0.00    -0.033 A 
HETATM   19  C   UNL     1      43.207 -18.847   2.260  1.00  0.00     0.010 A 
HETATM   20  C   UNL     1      43.663 -19.929   3.019  1.00  0.00     0.024 A 
HETATM   21  C   UNL     1      44.105 -19.728   4.323  1.00  0.00     0.034 A 
HETATM   22  C   UNL     1      44.104 -18.449   4.875  1.00  0.00     0.024 A 
HETATM   23 CL   UNL     1      44.647 -21.062   5.259  1.00  0.00    -0.084 Cl
HETATM   24  C   UNL     1      43.648 -17.365   4.121  1.00  0.00     0.010 A 
ENDBRANCH  17  18
ENDBRANCH   1  17
BRANCH   8  25
HETATM   25  C   UNL     1      37.684 -11.020  -0.038  1.00  0.00     0.192 C 
HETATM   26  C   UNL     1      36.427 -10.538   0.702  1.00  0.00     0.059 C 
HETATM   27  C   UNL     1      36.270  -9.027   0.621  1.00  0.00     0.169 C 
HETATM   28  O   UNL     1      36.269  -8.608  -0.736  1.00  0.00    -0.391 OA
HETATM   29  C   UNL     1      37.444  -8.940  -1.461  1.00  0.00     0.169 C 
HETATM   30  C   UNL     1      37.653 -10.446  -1.463  1.00  0.00     0.059 C 
ENDBRANCH   8  25
TORSDOF 5
ENDMDL
MODEL 3
REMARK VINA RESULT:      -7.4      1.729      2.966
REMARK  5 active torsions:
REMARK  status: ('A' for Active; 'I' for Inactive)
REMARK    1  A    between atoms: C_2  and  C_3 
REMARK    2  A    between atoms: C_3  and  N_4 
REMARK    3  A    between atoms: C_7  and  C_8 
REMARK    4  A    between atoms: C_8  and  O_9 
REMARK    5  A    between atoms: N_13  and  C_15 
ROOT
HETATM    1  N   UNL     1      42.710 -14.231   4.319  1.00  0.00    -0.067 N 
HETATM    2  H   UNL     1      43.502 -14.461   3.702  1.00  0.00     0.280 HD
HETATM    3  C   UNL     1      41.626 -13.741   3.396  1.00  0.00     0.242 C 
HETATM    4  C   UNL     1      40.444 -13.119   4.179  1.00  0.00     0.044 C 
HETATM    5  C   UNL     1      40.886 -11.953   5.149  1.00  0.00    -0.029 C 
HETATM    6  C   UNL     1      41.413 -10.680   4.415  1.00  0.00     0.037 C 
HETATM    7  C   UNL     1      40.362  -9.633   4.036  1.00  0.00     0.236 C 
HETATM    8  N   UNL     1      39.533  -9.237   5.234  1.00  0.00    -0.067 N 
HETATM    9  H   UNL     1      38.805  -8.609   4.862  1.00  0.00     0.280 HD
HETATM   10  C   UNL     1      38.782 -10.457   5.719  1.00  0.00     0.236 C 
HETATM   11  C   UNL     1      39.749 -11.559   6.151  1.00  0.00     0.037 C 
HETATM   12  C   UNL     1      42.046 -12.551   6.026  1.00  0.00     0.037 C 
HETATM   13  C   UNL     1      43.204 -13.165   5.245  1.00  0.00     0.236 C 
ENDROOT
BRANCH   4  14
HETATM   14  C   UNL     1      39.330 -12.796   3.173  1.00  0.00     0.171 C 
BRANCH  14  15
HETATM   15  O   UNL     1      38.730 -14.019   2.783  1.00  0.00    -0.400 OA
HETATM   16  H   UNL     1      39.409 -14.597   2.379  1.00  0.00     0.209 HD
ENDBRANCH  14  15
ENDBRANCH   4  14
BRANCH   1  17
HETATM   17  C   UNL     1      42.419 -15.563   5.001  1.00  0.00     0.273 C 
BRANCH  17  18
HETATM   18  C   UNL     1      42.871 -16.751   4.190  1.00  0.00    -0.033 A 
HETATM   19  C   UNL     1      42.272 -17.042   2.952  1.00  0.00     0.010 A 
HETATM   20  C   UNL     1      42.653 -18.178   2.232  1.00  0.00     0.024 A 
HETATM   21  C   UNL     1      43.635 -19.026   2.738  1.00  0.00     0.034 A 
HETATM   22  C   UNL     1      44.247 -18.743   3.957  1.00  0.00     0.024 A 
HETATM   23 CL   UNL     1      44.089 -20.430   1.859  1.00  0.00    -0.084 Cl
HETATM   24  C   UNL     1      43.867 -17.611   4.681  1.00  0.00     0.010 A 
ENDBRANCH  17  18
ENDBRANCH   1  17
BRANCH   8  25
HETATM   25  C   UNL     1      40.259  -8.406   6.329  1.00  0.00     0.192 C 
HETATM   26  C   UNL     1      40.989  -7.194   5.730  1.00  0.00     0.059 C 
HETATM   27  C   UNL     1      40.015  -6.127   5.256  1.00  0.00     0.169 C 
HETATM   28  O   UNL     1      39.154  -5.744   6.319  1.00  0.00    -0.391 OA
HETATM   29  C   UNL     1      38.375  -6.801   6.863  1.00  0.00     0.169 C 
HETATM   30  C   UNL     1      39.282  -7.899   7.400  1.00  0.00     0.059 C 
ENDBRANCH   8  25
TORSDOF 5
ENDMDL
MODEL 4
REMARK VINA RESULT:      -7.4      3.474      4.660
REMARK  5 active torsions:
REMARK  status: ('A' for Active; 'I' for Inactive)
REMARK    1  A    between atoms: C_2  and  C_3 
REMARK    2  A    between atoms: C_3  and  N_4 
REMARK    3  A    between atoms: C_7  and  C_8 
REMARK    4  A    between atoms: C_8  and  O_9 
REMARK    5  A    between atoms: N_13  and  C_15 
ROOT
HETATM    1  N   UNL     1      41.513 -14.756   4.854  1.00  0.00    -0.067 N 
HETATM    2  H   UNL     1      41.047 -15.190   5.663  1.00  0.00     0.280 HD
HETATM    3  C   UNL     1      41.145 -13.298   4.928  1.00  0.00     0.242 C 
HETATM    4  C   UNL     1      41.562 -12.536   3.646  1.00  0.00     0.044 C 
HETATM    5  C   UNL     1      40.971 -13.170   2.326  1.00  0.00    -0.029 C 
HETATM    6  C   UNL     1      39.419 -13.056   2.204  1.00  0.00     0.037 C 
HETATM    7  C   UNL     1      38.883 -11.785   1.540  1.00  0.00     0.236 C 
HETATM    8  N   UNL     1      39.528 -11.562   0.193  1.00  0.00    -0.067 N 
HETATM    9  H   UNL     1      39.177 -10.647  -0.126  1.00  0.00     0.280 HD
HETATM   10  C   UNL     1      41.012 -11.356   0.403  1.00  0.00     0.236 C 
HETATM   11  C   UNL     1      41.651 -12.589   1.040  1.00  0.00     0.037 C 
HETATM   12  C   UNL     1      41.367 -14.691   2.374  1.00  0.00     0.037 C 
HETATM   13  C   UNL     1      40.954 -15.432   3.642  1.00  0.00     0.236 C 
ENDROOT
BRANCH   4  14
HETATM   14  C   UNL     1      41.292 -11.043   3.877  1.00  0.00     0.171 C 
BRANCH  14  15
HETATM   15  O   UNL     1      42.483 -10.334   3.579  1.00  0.00    -0.400 OA
HETATM   16  H   UNL     1      42.278  -9.382   3.495  1.00  0.00     0.209 HD
ENDBRANCH  14  15
ENDBRANCH   4  14
BRANCH   1  17
HETATM   17  C   UNL     1      42.985 -15.060   5.115  1.00  0.00     0.273 C 
BRANCH  17  18
HETATM   18  C   UNL     1      43.282 -16.537   5.162  1.00  0.00    -0.033 A 
HETATM   19  C   UNL     1      43.001 -17.286   6.317  1.00  0.00     0.010 A 
HETATM   20  C   UNL     1      43.334 -18.643   6.376  1.00  0.00     0.024 A 
HETATM   21  C   UNL     1      43.942 -19.260   5.287  1.00  0.00     0.034 A 
HETATM   22  C   UNL     1      44.214 -18.533   4.130  1.00  0.00     0.024 A 
HETATM   23 CL   UNL     1      44.364 -20.923   5.370  1.00  0.00    -0.084 Cl
HETATM   24  C   UNL     1      43.886 -17.176   4.067  1.00  0.00     0.010 A 
ENDBRANCH  17  18
ENDBRANCH   1  17
BRANCH   8  25
HETATM   25  C   UNL     1      39.132 -12.559  -0.932  1.00  0.00     0.192 C 
HETATM   26  C   UNL     1      37.666 -12.384  -1.355  1.00  0.00     0.059 C 
HETATM   27  C   UNL     1      37.452 -11.090  -2.125  1.00  0.00     0.169 C 
HETATM   28  O   UNL     1      38.327 -11.036  -3.242  1.00  0.00    -0.391 OA
HETATM   29  C   UNL     1      39.709 -11.099  -2.918  1.00  0.00     0.169 C 
HETATM   30  C   UNL     1      40.016 -12.392  -2.177  1.00  0.00     0.059 C 
ENDBRANCH   8  25
TORSDOF 5
ENDMDL
MODEL 5
REMARK VINA RESULT:      -7.3      7.813     10.486
REMARK  5 active torsions:
REMARK  status: ('A' for Active; 'I' for Inactive)
REMARK    1  A    between atoms: C_2  and  C_3 
REMARK    2  A    between atoms: C_3  and  N_4 
REMARK    3  A    between atoms: C_7  and  C_8 
REMARK    4  A    between atoms: C_8  and  O_9 
REMARK    5  A    between atoms: N_13  and  C_15 
ROOT
HETATM    1  N   UNL     1      42.558  -8.948   9.748  1.00  0.00    -0.067 N 
HETATM    2  H   UNL     1      42.384  -8.626   8.785  1.00  0.00     0.280 HD
HETATM    3  C   UNL     1      41.197  -9.287  10.296  1.00  0.00     0.242 C 
HETATM    4  C   UNL     1      41.245  -9.558  11.820  1.00  0.00     0.044 C 
HETATM    5  C   UNL     1      41.871  -8.365  12.644  1.00  0.00    -0.029 C 
HETATM    6  C   UNL     1      41.009  -7.064  12.637  1.00  0.00     0.037 C 
HETATM    7  C   UNL     1      39.953  -6.945  13.739  1.00  0.00     0.236 C 
HETATM    8  N   UNL     1      40.565  -7.156  15.103  1.00  0.00    -0.067 N 
HETATM    9  H   UNL     1      39.770  -7.150  15.759  1.00  0.00     0.280 HD
HETATM   10  C   UNL     1      41.112  -8.564  15.169  1.00  0.00     0.236 C 
HETATM   11  C   UNL     1      42.201  -8.778  14.119  1.00  0.00     0.037 C 
HETATM   12  C   UNL     1      43.255  -8.061  11.962  1.00  0.00     0.037 C 
HETATM   13  C   UNL     1      43.198  -7.799  10.460  1.00  0.00     0.236 C 
ENDROOT
BRANCH   4  14
HETATM   14  C   UNL     1      39.856 -10.044  12.256  1.00  0.00     0.171 C 
BRANCH  14  15
HETATM   15  O   UNL     1      40.026 -11.250  12.981  1.00  0.00    -0.400 OA
HETATM   16  H   UNL     1      39.727 -11.116  13.903  1.00  0.00     0.209 HD
ENDBRANCH  14  15
ENDBRANCH   4  14
BRANCH   1  17
HETATM   17  C   UNL     1      43.480 -10.144   9.538  1.00  0.00     0.273 C 
BRANCH  17  18
HETATM   18  C   UNL     1      43.663 -10.499   8.084  1.00  0.00    -0.033 A 
HETATM   19  C   UNL     1      42.674 -10.178   7.139  1.00  0.00     0.010 A 
HETATM   20  C   UNL     1      42.822 -10.562   5.803  1.00  0.00     0.024 A 
HETATM   21  C   UNL     1      43.956 -11.263   5.401  1.00  0.00     0.034 A 
HETATM   22  C   UNL     1      44.951 -11.576   6.324  1.00  0.00     0.024 A 
HETATM   23 CL   UNL     1      44.126 -11.748   3.762  1.00  0.00    -0.084 Cl
HETATM   24  C   UNL     1      44.807 -11.197   7.660  1.00  0.00     0.010 A 
ENDBRANCH  17  18
ENDBRANCH   1  17
BRANCH   8  25
HETATM   25  C   UNL     1      41.514  -6.034  15.612  1.00  0.00     0.192 C 
HETATM   26  C   UNL     1      40.813  -4.667  15.637  1.00  0.00     0.059 C 
HETATM   27  C   UNL     1      39.770  -4.589  16.741  1.00  0.00     0.169 C 
HETATM   28  O   UNL     1      40.362  -4.895  17.995  1.00  0.00    -0.391 OA
HETATM   29  C   UNL     1      40.951  -6.185  18.076  1.00  0.00     0.169 C 
HETATM   30  C   UNL     1      42.040  -6.332  17.024  1.00  0.00     0.059 C 
ENDBRANCH   8  25
TORSDOF 5
ENDMDL
MODEL 6
REMARK VINA RESULT:      -7.2      4.472      5.959
REMARK  5 active torsions:
REMARK  status: ('A' for Active; 'I' for Inactive)
REMARK    1  A    between atoms: C_2  and  C_3 
REMARK    2  A    between atoms: C_3  and  N_4 
REMARK    3  A    between atoms: C_7  and  C_8 
REMARK    4  A    between atoms: C_8  and  O_9 
REMARK    5  A    between atoms: N_13  and  C_15 
ROOT
HETATM    1  N   UNL     1      41.210 -12.102   2.291  1.00  0.00    -0.067 N 
HETATM    2  H   UNL     1      40.481 -11.677   1.702  1.00  0.00     0.280 HD
HETATM    3  C   UNL     1      40.495 -12.535   3.544  1.00  0.00     0.242 C 
HETATM    4  C   UNL     1      41.488 -12.975   4.648  1.00  0.00     0.044 C 
HETATM    5  C   UNL     1      42.558 -11.867   4.999  1.00  0.00    -0.029 C 
HETATM    6  C   UNL     1      41.960 -10.596   5.678  1.00  0.00     0.037 C 
HETATM    7  C   UNL     1      41.856 -10.629   7.205  1.00  0.00     0.236 C 
HETATM    8  N   UNL     1      43.184 -10.977   7.833  1.00  0.00    -0.067 N 
HETATM    9  H   UNL     1      42.990 -11.065   8.842  1.00  0.00     0.280 HD
HETATM   10  C   UNL     1      43.571 -12.370   7.389  1.00  0.00     0.236 C 
HETATM   11  C   UNL     1      43.729 -12.436   5.870  1.00  0.00     0.037 C 
HETATM   12  C   UNL     1      43.204 -11.454   3.626  1.00  0.00     0.037 C 
HETATM   13  C   UNL     1      42.217 -11.025   2.544  1.00  0.00     0.236 C 
ENDROOT
BRANCH   4  14
HETATM   14  C   UNL     1      40.671 -13.542   5.817  1.00  0.00     0.171 C 
BRANCH  14  15
HETATM   15  O   UNL     1      39.316 -13.177   5.618  1.00  0.00    -0.400 OA
HETATM   16  H   UNL     1      38.740 -13.919   5.889  1.00  0.00     0.209 HD
ENDBRANCH  14  15
ENDBRANCH   4  14
BRANCH   1  17
HETATM   17  C   UNL     1      41.722 -13.243   1.419  1.00  0.00     0.273 C 
BRANCH  17  18
HETATM   18  C   UNL     1      40.848 -13.506   0.220  1.00  0.00    -0.033 A 
HETATM   19  C   UNL     1      40.158 -14.723   0.091  1.00  0.00     0.010 A 
HETATM   20  C   UNL     1      39.395 -14.985  -1.051  1.00  0.00     0.024 A 
HETATM   21  C   UNL     1      39.314 -14.037  -2.067  1.00  0.00     0.034 A 
HETATM   22  C   UNL     1      39.982 -12.821  -1.948  1.00  0.00     0.024 A 
HETATM   23 CL   UNL     1      38.391 -14.370  -3.477  1.00  0.00    -0.084 Cl
HETATM   24  C   UNL     1      40.747 -12.555  -0.809  1.00  0.00     0.010 A 
ENDBRANCH  17  18
ENDBRANCH   1  17
BRANCH   8  25
HETATM   25  C   UNL     1      44.297  -9.897   7.730  1.00  0.00     0.192 C 
HETATM   26  C   UNL     1      43.809  -8.530   8.234  1.00  0.00     0.059 C 
HETATM   27  C   UNL     1      43.630  -8.517   9.744  1.00  0.00     0.169 C 
HETATM   28  O   UNL     1      44.837  -8.907  10.382  1.00  0.00    -0.391 OA
HETATM   29  C   UNL     1      45.301 -10.204  10.034  1.00  0.00     0.169 C 
HETATM   30  C   UNL     1      45.546 -10.289   8.535  1.00  0.00     0.059 C 
ENDBRANCH   8  25
TORSDOF 5
ENDMDL
MODEL 7
REMARK VINA RESULT:      -7.1      5.120      7.118
REMARK  5 active torsions:
REMARK  status: ('A' for Active; 'I' for Inactive)
REMARK    1  A    between atoms: C_2  and  C_3 
REMARK    2  A    between atoms: C_3  and  N_4 
REMARK    3  A    between atoms: C_7  and  C_8 
REMARK    4  A    between atoms: C_8  and  O_9 
REMARK    5  A    between atoms: N_13  and  C_15 
ROOT
HETATM    1  N   UNL     1      43.952 -12.149   5.582  1.00  0.00    -0.067 N 
HETATM    2  H   UNL     1      43.999 -13.160   5.391  1.00  0.00     0.280 HD
HETATM    3  C   UNL     1      45.125 -11.868   6.484  1.00  0.00     0.242 C 
HETATM    4  C   UNL     1      45.067 -10.436   7.070  1.00  0.00     0.044 C 
HETATM    5  C   UNL     1      43.720 -10.132   7.836  1.00  0.00    -0.029 C 
HETATM    6  C   UNL     1      43.532 -10.959   9.147  1.00  0.00     0.037 C 
HETATM    7  C   UNL     1      44.109 -10.344  10.424  1.00  0.00     0.236 C 
HETATM    8  N   UNL     1      43.609  -8.934  10.623  1.00  0.00    -0.067 N 
HETATM    9  H   UNL     1      44.120  -8.579  11.445  1.00  0.00     0.280 HD
HETATM   10  C   UNL     1      44.096  -8.087   9.468  1.00  0.00     0.236 C 
HETATM   11  C   UNL     1      43.548  -8.605   8.140  1.00  0.00     0.037 C 
HETATM   12  C   UNL     1      42.569 -10.504   6.831  1.00  0.00     0.037 C 
HETATM   13  C   UNL     1      42.637 -11.916   6.257  1.00  0.00     0.236 C 
ENDROOT
BRANCH   4  14
HETATM   14  C   UNL     1      46.371 -10.190   7.840  1.00  0.00     0.171 C 
BRANCH  14  15
HETATM   15  O   UNL     1      46.907  -8.953   7.404  1.00  0.00    -0.400 OA
HETATM   16  H   UNL     1      47.873  -9.045   7.283  1.00  0.00     0.209 HD
ENDBRANCH  14  15
ENDBRANCH   4  14
BRANCH   1  17
HETATM   17  C   UNL     1      44.054 -11.541   4.188  1.00  0.00     0.273 C 
BRANCH  17  18
HETATM   18  C   UNL     1      43.147 -12.207   3.186  1.00  0.00    -0.033 A 
HETATM   19  C   UNL     1      43.255 -13.584   2.928  1.00  0.00     0.010 A 
HETATM   20  C   UNL     1      42.451 -14.186   1.956  1.00  0.00     0.024 A 
HETATM   21  C   UNL     1      41.535 -13.422   1.238  1.00  0.00     0.034 A 
HETATM   22  C   UNL     1      41.408 -12.059   1.492  1.00  0.00     0.024 A 
HETATM   23 CL   UNL     1      40.562 -14.162   0.032  1.00  0.00    -0.084 Cl
HETATM   24  C   UNL     1      42.210 -11.452   2.461  1.00  0.00     0.010 A 
ENDBRANCH  17  18
ENDBRANCH   1  17
BRANCH   8  25
HETATM   25  C   UNL     1      42.105  -8.783  10.989  1.00  0.00     0.192 C 
HETATM   26  C   UNL     1      41.723  -9.662  12.189  1.00  0.00     0.059 C 
HETATM   27  C   UNL     1      42.318  -9.135  13.486  1.00  0.00     0.169 C 
HETATM   28  O   UNL     1      41.932  -7.783  13.686  1.00  0.00    -0.391 OA
HETATM   29  C   UNL     1      42.334  -6.891  12.656  1.00  0.00     0.169 C 
HETATM   30  C   UNL     1      41.744  -7.328  11.323  1.00  0.00     0.059 C 
ENDBRANCH   8  25
TORSDOF 5
ENDMDL
MODEL 8
REMARK VINA RESULT:      -7.1      1.782      2.339
REMARK  5 active torsions:
REMARK  status: ('A' for Active; 'I' for Inactive)
REMARK    1  A    between atoms: C_2  and  C_3 
REMARK    2  A    between atoms: C_3  and  N_4 
REMARK    3  A    between atoms: C_7  and  C_8 
REMARK    4  A    between atoms: C_8  and  O_9 
REMARK    5  A    between atoms: N_13  and  C_15 
ROOT
HETATM    1  N   UNL     1      42.053 -14.931   4.521  1.00  0.00    -0.067 N 
HETATM    2  H   UNL     1      41.711 -15.827   4.896  1.00  0.00     0.280 HD
HETATM    3  C   UNL     1      42.547 -14.170   5.724  1.00  0.00     0.242 C 
HETATM    4  C   UNL     1      42.873 -12.697   5.375  1.00  0.00     0.044 C 
HETATM    5  C   UNL     1      41.658 -11.929   4.719  1.00  0.00    -0.029 C 
HETATM    6  C   UNL     1      40.450 -11.709   5.682  1.00  0.00     0.037 C 
HETATM    7  C   UNL     1      40.480 -10.432   6.526  1.00  0.00     0.236 C 
HETATM    8  N   UNL     1      40.685  -9.212   5.660  1.00  0.00    -0.067 N 
HETATM    9  H   UNL     1      40.784  -8.427   6.320  1.00  0.00     0.280 HD
HETATM   10  C   UNL     1      42.034  -9.326   4.986  1.00  0.00     0.236 C 
HETATM   11  C   UNL     1      42.096 -10.563   4.091  1.00  0.00     0.037 C 
HETATM   12  C   UNL     1      41.192 -12.827   3.516  1.00  0.00     0.037 C 
HETATM   13  C   UNL     1      40.876 -14.278   3.869  1.00  0.00     0.236 C 
ENDROOT
BRANCH   4  14
HETATM   14  C   UNL     1      43.512 -12.051   6.613  1.00  0.00     0.171 C 
BRANCH  14  15
HETATM   15  O   UNL     1      43.440 -12.985   7.676  1.00  0.00    -0.400 OA
HETATM   16  H   UNL     1      44.256 -13.524   7.687  1.00  0.00     0.209 HD
ENDBRANCH  14  15
ENDBRANCH   4  14
BRANCH   1  17
HETATM   17  C   UNL     1      43.142 -15.369   3.549  1.00  0.00     0.273 C 
BRANCH  17  18
HETATM   18  C   UNL     1      43.331 -16.864   3.511  1.00  0.00    -0.033 A 
HETATM   19  C   UNL     1      43.910 -17.540   4.598  1.00  0.00     0.010 A 
HETATM   20  C   UNL     1      44.137 -18.918   4.534  1.00  0.00     0.024 A 
HETATM   21  C   UNL     1      43.785 -19.629   3.390  1.00  0.00     0.034 A 
HETATM   22  C   UNL     1      43.198 -18.975   2.309  1.00  0.00     0.024 A 
HETATM   23 CL   UNL     1      44.082 -21.319   3.308  1.00  0.00    -0.084 Cl
HETATM   24  C   UNL     1      42.972 -17.598   2.368  1.00  0.00     0.010 A 
ENDBRANCH  17  18
ENDBRANCH   1  17
BRANCH   8  25
HETATM   25  C   UNL     1      39.496  -8.816   4.740  1.00  0.00     0.192 C 
HETATM   26  C   UNL     1      38.229  -8.506   5.551  1.00  0.00     0.059 C 
HETATM   27  C   UNL     1      38.358  -7.198   6.318  1.00  0.00     0.169 C 
HETATM   28  O   UNL     1      38.679  -6.139   5.428  1.00  0.00    -0.391 OA
HETATM   29  C   UNL     1      39.891  -6.316   4.708  1.00  0.00     0.169 C 
HETATM   30  C   UNL     1      39.829  -7.589   3.878  1.00  0.00     0.059 C 
ENDBRANCH   8  25
TORSDOF 5
ENDMDL
MODEL 9
REMARK VINA RESULT:      -7.1      1.763      2.318
REMARK  5 active torsions:
REMARK  status: ('A' for Active; 'I' for Inactive)
REMARK    1  A    between atoms: C_2  and  C_3 
REMARK    2  A    between atoms: C_3  and  N_4 
REMARK    3  A    between atoms: C_7  and  C_8 
REMARK    4  A    between atoms: C_8  and  O_9 
REMARK    5  A    between atoms: N_13  and  C_15 
ROOT
HETATM    1  N   UNL     1      42.187 -14.332   3.379  1.00  0.00    -0.067 N 
HETATM    2  H   UNL     1      41.963 -15.008   2.635  1.00  0.00     0.280 HD
HETATM    3  C   UNL     1      40.876 -14.063   4.068  1.00  0.00     0.242 C 
HETATM    4  C   UNL     1      40.983 -12.879   5.060  1.00  0.00     0.044 C 
HETATM    5  C   UNL     1      41.516 -11.552   4.389  1.00  0.00    -0.029 C 
HETATM    6  C   UNL     1      40.539 -10.929   3.344  1.00  0.00     0.037 C 
HETATM    7  C   UNL     1      39.502  -9.944   3.889  1.00  0.00     0.236 C 
HETATM    8  N   UNL     1      40.161  -8.853   4.698  1.00  0.00    -0.067 N 
HETATM    9  H   UNL     1      39.384  -8.304   5.094  1.00  0.00     0.280 HD
HETATM   10  C   UNL     1      40.836  -9.487   5.894  1.00  0.00     0.236 C 
HETATM   11  C   UNL     1      41.916 -10.474   5.453  1.00  0.00     0.037 C 
HETATM   12  C   UNL     1      42.851 -11.954   3.661  1.00  0.00     0.037 C 
HETATM   13  C   UNL     1      42.736 -13.124   2.688  1.00  0.00     0.236 C 
ENDROOT
BRANCH   4  14
HETATM   14  C   UNL     1      39.655 -12.782   5.823  1.00  0.00     0.171 C 
BRANCH  14  15
HETATM   15  O   UNL     1      39.415 -14.035   6.440  1.00  0.00    -0.400 OA
HETATM   16  H   UNL     1      38.592 -13.984   6.964  1.00  0.00     0.209 HD
ENDBRANCH  14  15
ENDBRANCH   4  14
BRANCH   1  17
HETATM   17  C   UNL     1      43.210 -15.088   4.219  1.00  0.00     0.273 C 
BRANCH  17  18
HETATM   18  C   UNL     1      43.348 -16.535   3.820  1.00  0.00    -0.033 A 
HETATM   19  C   UNL     1      44.057 -17.437   4.631  1.00  0.00     0.010 A 
HETATM   20  C   UNL     1      44.232 -18.764   4.227  1.00  0.00     0.024 A 
HETATM   21  C   UNL     1      43.698 -19.200   3.017  1.00  0.00     0.034 A 
HETATM   22  C   UNL     1      42.982 -18.321   2.209  1.00  0.00     0.024 A 
HETATM   23 CL   UNL     1      43.930 -20.826   2.516  1.00  0.00    -0.084 Cl
HETATM   24  C   UNL     1      42.806 -16.993   2.607  1.00  0.00     0.010 A 
ENDBRANCH  17  18
ENDBRANCH   1  17
BRANCH   8  25
HETATM   25  C   UNL     1      41.015  -7.827   3.901  1.00  0.00     0.192 C 
HETATM   26  C   UNL     1      40.221  -7.209   2.740  1.00  0.00     0.059 C 
HETATM   27  C   UNL     1      39.143  -6.259   3.237  1.00  0.00     0.169 C 
HETATM   28  O   UNL     1      39.717  -5.259   4.065  1.00  0.00    -0.391 OA
HETATM   29  C   UNL     1      40.391  -5.753   5.214  1.00  0.00     0.169 C 
HETATM   30  C   UNL     1      41.518  -6.687   4.800  1.00  0.00     0.059 C 
ENDBRANCH   8  25
TORSDOF 5
ENDMDL
MODEL 10
REMARK VINA RESULT:      -7.1      5.235      6.404
REMARK  5 active torsions:
REMARK  status: ('A' for Active; 'I' for Inactive)
REMARK    1  A    between atoms: C_2  and  C_3 
REMARK    2  A    between atoms: C_3  and  N_4 
REMARK    3  A    between atoms: C_7  and  C_8 
REMARK    4  A    between atoms: C_8  and  O_9 
REMARK    5  A    between atoms: N_13  and  C_15 
ROOT
HETATM    1  N   UNL     1      40.647 -14.268  -0.235  1.00  0.00    -0.067 N 
HETATM    2  H   UNL     1      41.563 -14.699  -0.424  1.00  0.00     0.280 HD
HETATM    3  C   UNL     1      39.925 -14.293  -1.557  1.00  0.00     0.242 C 
HETATM    4  C   UNL     1      38.621 -13.460  -1.514  1.00  0.00     0.044 C 
HETATM    5  C   UNL     1      38.853 -11.965  -1.060  1.00  0.00    -0.029 C 
HETATM    6  C   UNL     1      39.674 -11.111  -2.076  1.00  0.00     0.037 C 
HETATM    7  C   UNL     1      38.871 -10.396  -3.166  1.00  0.00     0.236 C 
HETATM    8  N   UNL     1      37.761  -9.566  -2.567  1.00  0.00    -0.067 N 
HETATM    9  H   UNL     1      37.229  -9.206  -3.373  1.00  0.00     0.280 HD
HETATM   10  C   UNL     1      36.804 -10.493  -1.852  1.00  0.00     0.236 C 
HETATM   11  C   UNL     1      37.508 -11.239  -0.719  1.00  0.00     0.037 C 
HETATM   12  C   UNL     1      39.650 -12.053   0.292  1.00  0.00     0.037 C 
HETATM   13  C   UNL     1      40.933 -12.879   0.240  1.00  0.00     0.236 C 
ENDROOT
BRANCH   4  14
HETATM   14  C   UNL     1      37.882 -13.673  -2.842  1.00  0.00     0.171 C 
BRANCH  14  15
HETATM   15  O   UNL     1      38.845 -14.018  -3.824  1.00  0.00    -0.400 OA
HETATM   16  H   UNL     1      39.244 -14.881  -3.594  1.00  0.00     0.209 HD
ENDBRANCH  14  15
ENDBRANCH   4  14
BRANCH   1  17
HETATM   17  C   UNL     1      40.060 -15.184   0.833  1.00  0.00     0.273 C 
BRANCH  17  18
HETATM   18  C   UNL     1      41.090 -15.678   1.817  1.00  0.00    -0.033 A 
HETATM   19  C   UNL     1      42.404 -15.952   1.399  1.00  0.00     0.010 A 
HETATM   20  C   UNL     1      43.339 -16.465   2.303  1.00  0.00     0.024 A 
HETATM   21  C   UNL     1      42.973 -16.704   3.625  1.00  0.00     0.034 A 
HETATM   22  C   UNL     1      41.678 -16.424   4.055  1.00  0.00     0.024 A 
HETATM   23 CL   UNL     1      44.120 -17.351   4.727  1.00  0.00    -0.084 Cl
HETATM   24  C   UNL     1      40.739 -15.913   3.156  1.00  0.00     0.010 A 
ENDBRANCH  17  18
ENDBRANCH   1  17
BRANCH   8  25
HETATM   25  C   UNL     1      38.199  -8.301  -1.777  1.00  0.00     0.192 C 
HETATM   26  C   UNL     1      39.129  -7.406  -2.610  1.00  0.00     0.059 C 
HETATM   27  C   UNL     1      38.381  -6.712  -3.738  1.00  0.00     0.169 C 
HETATM   28  O   UNL     1      37.281  -5.979  -3.217  1.00  0.00    -0.391 OA
HETATM   29  C   UNL     1      36.328  -6.761  -2.510  1.00  0.00     0.169 C 
HETATM   30  C   UNL     1      36.992  -7.461  -1.333  1.00  0.00     0.059 C 
ENDBRANCH   8  25
TORSDOF 5
ENDMDL
