MODEL 1
REMARK VINA RESULT:      -9.0      0.000      0.000
REMARK  4 active torsions:
REMARK  status: ('A' for Active; 'I' for Inactive)
REMARK    1  A    between atoms: C_7  and  C_8 
REMARK    2  A    between atoms: C_8  and  N_9 
REMARK    3  A    between atoms: C_13  and  C_14 
REMARK    4  A    between atoms: C_16  and  C_17 
ROOT
HETATM    1  N   UNL     1      41.859 -15.183   3.347  1.00  0.00    -0.067 N 
HETATM    2  H   UNL     1      41.508 -15.528   4.247  1.00  0.00     0.280 HD
HETATM    3  C   UNL     1      41.755 -13.673   3.370  1.00  0.00     0.236 C 
HETATM    4  C   UNL     1      40.298 -13.224   3.377  1.00  0.00     0.040 C 
HETATM    5  C   UNL     1      39.484 -13.820   2.226  1.00  0.00     0.058 C 
HETATM    6  C   UNL     1      39.609 -15.345   2.253  1.00  0.00     0.040 C 
HETATM    7  C   UNL     1      41.055 -15.826   2.240  1.00  0.00     0.236 C 
ENDROOT
BRANCH   1   8
HETATM    8  C   UNL     1      43.307 -15.643   3.241  1.00  0.00     0.276 C 
BRANCH   8   9
HETATM    9  C   UNL     1      43.622 -16.849   4.040  1.00  0.00     0.003 A 
HETATM   10  C   UNL     1      43.615 -18.208   3.588  1.00  0.00     0.007 A 
HETATM   11  C   UNL     1      43.342 -18.867   2.372  1.00  0.00     0.015 A 
HETATM   12  C   UNL     1      43.993 -18.977   4.683  1.00  0.00     0.085 A 
HETATM   13  C   UNL     1      43.470 -20.262   2.319  1.00  0.00     0.001 A 
HETATM   14  C   UNL     1      43.856 -20.995   3.443  1.00  0.00     0.003 A 
HETATM   15  C   UNL     1      44.128 -20.362   4.660  1.00  0.00     0.038 A 
HETATM   16  O   UNL     1      44.212 -18.180   5.762  1.00  0.00    -0.321 OA
HETATM   17  C   UNL     1      43.972 -16.902   5.375  1.00  0.00     0.152 A 
ENDBRANCH   8   9
ENDBRANCH   1   8
BRANCH   5  18
HETATM   18  C   UNL     1      39.932 -13.258   0.910  1.00  0.00     0.108 A 
HETATM   19  N   UNL     1      39.692 -13.791  -0.269  1.00  0.00    -0.229 NA
HETATM   20  C   UNL     1      40.314 -12.976  -1.209  1.00  0.00     0.157 A 
HETATM   21  C   UNL     1      40.929 -11.927  -0.550  1.00  0.00     0.126 A 
HETATM   22  N   UNL     1      40.678 -12.113   0.783  1.00  0.00    -0.352 N 
HETATM   23  H   UNL     1      41.000 -11.516   1.536  1.00  0.00     0.166 HD
BRANCH  20  24
HETATM   24  C   UNL     1      40.282 -13.272  -2.685  1.00  0.00     0.436 C 
HETATM   25  F   UNL     1      40.049 -14.591  -2.933  1.00  0.00    -0.165 F 
HETATM   26  F   UNL     1      39.309 -12.573  -3.320  1.00  0.00    -0.165 F 
HETATM   27  F   UNL     1      41.459 -12.963  -3.287  1.00  0.00    -0.165 F 
ENDBRANCH  20  24
ENDBRANCH   5  18
TORSDOF 4
ENDMDL
MODEL 2
REMARK VINA RESULT:      -8.6      5.056      7.855
REMARK  4 active torsions:
REMARK  status: ('A' for Active; 'I' for Inactive)
REMARK    1  A    between atoms: C_7  and  C_8 
REMARK    2  A    between atoms: C_8  and  N_9 
REMARK    3  A    between atoms: C_13  and  C_14 
REMARK    4  A    between atoms: C_16  and  C_17 
ROOT
HETATM    1  N   UNL     1      41.997 -13.391   6.620  1.00  0.00    -0.067 N 
HETATM    2  H   UNL     1      41.481 -13.067   7.446  1.00  0.00     0.280 HD
HETATM    3  C   UNL     1      41.056 -14.260   5.813  1.00  0.00     0.236 C 
HETATM    4  C   UNL     1      40.728 -15.550   6.555  1.00  0.00     0.040 C 
HETATM    5  C   UNL     1      41.976 -16.329   6.980  1.00  0.00     0.058 C 
HETATM    6  C   UNL     1      42.886 -15.414   7.804  1.00  0.00     0.040 C 
HETATM    7  C   UNL     1      43.238 -14.117   7.086  1.00  0.00     0.236 C 
ENDROOT
BRANCH   1   8
HETATM    8  C   UNL     1      42.409 -12.144   5.850  1.00  0.00     0.276 C 
BRANCH   8   9
HETATM    9  C   UNL     1      42.786 -10.997   6.707  1.00  0.00     0.003 A 
HETATM   10  C   UNL     1      44.106 -10.634   7.130  1.00  0.00     0.007 A 
HETATM   11  C   UNL     1      45.405 -11.146   6.938  1.00  0.00     0.015 A 
HETATM   12  C   UNL     1      43.958  -9.483   7.896  1.00  0.00     0.085 A 
HETATM   13  C   UNL     1      46.487 -10.472   7.521  1.00  0.00     0.001 A 
HETATM   14  C   UNL     1      46.293  -9.317   8.281  1.00  0.00     0.003 A 
HETATM   15  C   UNL     1      45.012  -8.794   8.488  1.00  0.00     0.038 A 
HETATM   16  O   UNL     1      42.646  -9.139   7.975  1.00  0.00    -0.321 OA
HETATM   17  C   UNL     1      41.942 -10.060   7.272  1.00  0.00     0.152 A 
ENDBRANCH   8   9
ENDBRANCH   1   8
BRANCH   5  18
HETATM   18  C   UNL     1      42.693 -16.880   5.785  1.00  0.00     0.108 A 
HETATM   19  N   UNL     1      42.230 -16.885   4.552  1.00  0.00    -0.229 NA
HETATM   20  C   UNL     1      43.189 -17.519   3.769  1.00  0.00     0.157 A 
HETATM   21  C   UNL     1      44.250 -17.887   4.577  1.00  0.00     0.126 A 
HETATM   22  N   UNL     1      43.928 -17.476   5.843  1.00  0.00    -0.352 N 
HETATM   23  H   UNL     1      44.498 -17.603   6.671  1.00  0.00     0.166 HD
BRANCH  20  24
HETATM   24  C   UNL     1      43.011 -17.738   2.290  1.00  0.00     0.436 C 
HETATM   25  F   UNL     1      41.699 -17.714   1.929  1.00  0.00    -0.165 F 
HETATM   26  F   UNL     1      43.640 -16.784   1.559  1.00  0.00    -0.165 F 
HETATM   27  F   UNL     1      43.505 -18.939   1.896  1.00  0.00    -0.165 F 
ENDBRANCH  20  24
ENDBRANCH   5  18
TORSDOF 4
ENDMDL
MODEL 3
REMARK VINA RESULT:      -8.2      6.678      8.042
REMARK  4 active torsions:
REMARK  status: ('A' for Active; 'I' for Inactive)
REMARK    1  A    between atoms: C_7  and  C_8 
REMARK    2  A    between atoms: C_8  and  N_9 
REMARK    3  A    between atoms: C_13  and  C_14 
REMARK    4  A    between atoms: C_16  and  C_17 
ROOT
HETATM    1  N   UNL     1      42.501 -13.631   5.908  1.00  0.00    -0.067 N 
HETATM    2  H   UNL     1      42.618 -13.848   4.912  1.00  0.00     0.280 HD
HETATM    3  C   UNL     1      41.485 -12.513   6.012  1.00  0.00     0.236 C 
HETATM    4  C   UNL     1      42.036 -11.217   5.429  1.00  0.00     0.040 C 
HETATM    5  C   UNL     1      43.377 -10.807   6.043  1.00  0.00     0.058 C 
HETATM    6  C   UNL     1      44.372 -11.962   5.901  1.00  0.00     0.040 C 
HETATM    7  C   UNL     1      43.853 -13.272   6.481  1.00  0.00     0.236 C 
ENDROOT
BRANCH   1   8
HETATM    8  C   UNL     1      42.001 -14.907   6.574  1.00  0.00     0.276 C 
BRANCH   8   9
HETATM    9  C   UNL     1      42.694 -16.137   6.128  1.00  0.00     0.003 A 
HETATM   10  C   UNL     1      42.777 -16.642   4.790  1.00  0.00     0.007 A 
HETATM   11  C   UNL     1      42.300 -16.240   3.526  1.00  0.00     0.015 A 
HETATM   12  C   UNL     1      43.542 -17.801   4.867  1.00  0.00     0.085 A 
HETATM   13  C   UNL     1      42.622 -17.019   2.406  1.00  0.00     0.001 A 
HETATM   14  C   UNL     1      43.396 -18.175   2.529  1.00  0.00     0.003 A 
HETATM   15  C   UNL     1      43.876 -18.595   3.773  1.00  0.00     0.038 A 
HETATM   16  O   UNL     1      43.911 -18.035   6.154  1.00  0.00    -0.321 OA
HETATM   17  C   UNL     1      43.385 -17.040   6.912  1.00  0.00     0.152 A 
ENDBRANCH   8   9
ENDBRANCH   1   8
BRANCH   5  18
HETATM   18  C   UNL     1      43.205 -10.407   7.478  1.00  0.00     0.108 A 
HETATM   19  N   UNL     1      44.112 -10.545   8.422  1.00  0.00    -0.229 NA
HETATM   20  C   UNL     1      43.532 -10.086   9.600  1.00  0.00     0.157 A 
HETATM   21  C   UNL     1      42.247  -9.656   9.326  1.00  0.00     0.126 A 
HETATM   22  N   UNL     1      42.054  -9.859   7.985  1.00  0.00    -0.352 N 
HETATM   23  H   UNL     1      41.206  -9.652   7.470  1.00  0.00     0.166 HD
BRANCH  20  24
HETATM   24  C   UNL     1      44.259 -10.102  10.919  1.00  0.00     0.436 C 
HETATM   25  F   UNL     1      44.126  -8.922  11.586  1.00  0.00    -0.165 F 
HETATM   26  F   UNL     1      43.793 -11.074  11.741  1.00  0.00    -0.165 F 
HETATM   27  F   UNL     1      45.590 -10.313  10.758  1.00  0.00    -0.165 F 
ENDBRANCH  20  24
ENDBRANCH   5  18
TORSDOF 4
ENDMDL
MODEL 4
REMARK VINA RESULT:      -8.2      5.452      6.790
REMARK  4 active torsions:
REMARK  status: ('A' for Active; 'I' for Inactive)
REMARK    1  A    between atoms: C_7  and  C_8 
REMARK    2  A    between atoms: C_8  and  N_9 
REMARK    3  A    between atoms: C_13  and  C_14 
REMARK    4  A    between atoms: C_16  and  C_17 
ROOT
HETATM    1  N   UNL     1      42.328 -14.153   4.759  1.00  0.00    -0.067 N 
HETATM    2  H   UNL     1      41.662 -14.421   4.026  1.00  0.00     0.280 HD
HETATM    3  C   UNL     1      41.522 -13.773   5.984  1.00  0.00     0.236 C 
HETATM    4  C   UNL     1      40.727 -12.495   5.742  1.00  0.00     0.040 C 
HETATM    5  C   UNL     1      41.598 -11.330   5.267  1.00  0.00     0.058 C 
HETATM    6  C   UNL     1      42.380 -11.757   4.022  1.00  0.00     0.040 C 
HETATM    7  C   UNL     1      43.191 -13.029   4.233  1.00  0.00     0.236 C 
ENDROOT
BRANCH   1   8
HETATM    8  C   UNL     1      43.202 -15.372   5.019  1.00  0.00     0.276 C 
BRANCH   8   9
HETATM    9  C   UNL     1      43.196 -16.369   3.924  1.00  0.00     0.003 A 
HETATM   10  C   UNL     1      43.513 -17.762   4.025  1.00  0.00     0.007 A 
HETATM   11  C   UNL     1      43.909 -18.636   5.058  1.00  0.00     0.015 A 
HETATM   12  C   UNL     1      43.348 -18.285   2.748  1.00  0.00     0.085 A 
HETATM   13  C   UNL     1      44.112 -19.989   4.754  1.00  0.00     0.001 A 
HETATM   14  C   UNL     1      43.932 -20.473   3.457  1.00  0.00     0.003 A 
HETATM   15  C   UNL     1      43.543 -19.623   2.416  1.00  0.00     0.038 A 
HETATM   16  O   UNL     1      42.969 -17.305   1.886  1.00  0.00    -0.321 OA
HETATM   17  C   UNL     1      42.895 -16.151   2.594  1.00  0.00     0.152 A 
ENDBRANCH   8   9
ENDBRANCH   1   8
BRANCH   5  18
HETATM   18  C   UNL     1      42.518 -10.872   6.359  1.00  0.00     0.108 A 
HETATM   19  N   UNL     1      43.833 -10.895   6.309  1.00  0.00    -0.229 NA
HETATM   20  C   UNL     1      44.287 -10.422   7.536  1.00  0.00     0.157 A 
HETATM   21  C   UNL     1      43.193 -10.105   8.322  1.00  0.00     0.126 A 
HETATM   22  N   UNL     1      42.086 -10.389   7.569  1.00  0.00    -0.352 N 
HETATM   23  H   UNL     1      41.123 -10.273   7.862  1.00  0.00     0.166 HD
BRANCH  20  24
HETATM   24  C   UNL     1      45.751 -10.317   7.872  1.00  0.00     0.436 C 
HETATM   25  F   UNL     1      46.221  -9.051   7.700  1.00  0.00    -0.165 F 
HETATM   26  F   UNL     1      46.000 -10.660   9.160  1.00  0.00    -0.165 F 
HETATM   27  F   UNL     1      46.507 -11.127   7.086  1.00  0.00    -0.165 F 
ENDBRANCH  20  24
ENDBRANCH   5  18
TORSDOF 4
ENDMDL
MODEL 5
REMARK VINA RESULT:      -8.2      1.630      2.057
REMARK  4 active torsions:
REMARK  status: ('A' for Active; 'I' for Inactive)
REMARK    1  A    between atoms: C_7  and  C_8 
REMARK    2  A    between atoms: C_8  and  N_9 
REMARK    3  A    between atoms: C_13  and  C_14 
REMARK    4  A    between atoms: C_16  and  C_17 
ROOT
HETATM    1  N   UNL     1      41.762 -15.359   3.149  1.00  0.00    -0.067 N 
HETATM    2  H   UNL     1      41.279 -15.937   3.845  1.00  0.00     0.280 HD
HETATM    3  C   UNL     1      41.402 -13.916   3.430  1.00  0.00     0.236 C 
HETATM    4  C   UNL     1      39.927 -13.655   3.148  1.00  0.00     0.040 C 
HETATM    5  C   UNL     1      39.508 -14.066   1.734  1.00  0.00     0.058 C 
HETATM    6  C   UNL     1      39.879 -15.533   1.503  1.00  0.00     0.040 C 
HETATM    7  C   UNL     1      41.350 -15.826   1.771  1.00  0.00     0.236 C 
ENDROOT
BRANCH   1   8
HETATM    8  C   UNL     1      43.253 -15.611   3.334  1.00  0.00     0.276 C 
BRANCH   8   9
HETATM    9  C   UNL     1      43.571 -16.810   4.143  1.00  0.00     0.003 A 
HETATM   10  C   UNL     1      43.603 -18.170   3.693  1.00  0.00     0.007 A 
HETATM   11  C   UNL     1      43.375 -18.836   2.473  1.00  0.00     0.015 A 
HETATM   12  C   UNL     1      43.969 -18.929   4.799  1.00  0.00     0.085 A 
HETATM   13  C   UNL     1      43.533 -20.228   2.425  1.00  0.00     0.001 A 
HETATM   14  C   UNL     1      43.905 -20.951   3.561  1.00  0.00     0.003 A 
HETATM   15  C   UNL     1      44.131 -20.311   4.783  1.00  0.00     0.038 A 
HETATM   16  O   UNL     1      44.143 -18.126   5.882  1.00  0.00    -0.321 OA
HETATM   17  C   UNL     1      43.887 -16.854   5.487  1.00  0.00     0.152 A 
ENDBRANCH   8   9
ENDBRANCH   1   8
BRANCH   5  18
HETATM   18  C   UNL     1      40.141 -13.173   0.709  1.00  0.00     0.108 A 
HETATM   19  N   UNL     1      40.381 -11.888   0.860  1.00  0.00    -0.229 NA
HETATM   20  C   UNL     1      40.937 -11.443  -0.334  1.00  0.00     0.157 A 
HETATM   21  C   UNL     1      41.031 -12.513  -1.206  1.00  0.00     0.126 A 
HETATM   22  N   UNL     1      40.530 -13.597  -0.537  1.00  0.00    -0.352 N 
HETATM   23  H   UNL     1      40.453 -14.538  -0.905  1.00  0.00     0.166 HD
BRANCH  20  24
HETATM   24  C   UNL     1      41.332 -10.007  -0.559  1.00  0.00     0.436 C 
HETATM   25  F   UNL     1      42.121  -9.865  -1.659  1.00  0.00    -0.165 F 
HETATM   26  F   UNL     1      40.252  -9.208  -0.740  1.00  0.00    -0.165 F 
HETATM   27  F   UNL     1      42.031  -9.508   0.492  1.00  0.00    -0.165 F 
ENDBRANCH  20  24
ENDBRANCH   5  18
TORSDOF 4
ENDMDL
MODEL 6
REMARK VINA RESULT:      -8.1      1.309      2.334
REMARK  4 active torsions:
REMARK  status: ('A' for Active; 'I' for Inactive)
REMARK    1  A    between atoms: C_7  and  C_8 
REMARK    2  A    between atoms: C_8  and  N_9 
REMARK    3  A    between atoms: C_13  and  C_14 
REMARK    4  A    between atoms: C_16  and  C_17 
ROOT
HETATM    1  N   UNL     1      42.253 -15.757   2.548  1.00  0.00    -0.067 N 
HETATM    2  H   UNL     1      42.177 -15.866   3.565  1.00  0.00     0.280 HD
HETATM    3  C   UNL     1      42.450 -14.283   2.265  1.00  0.00     0.236 C 
HETATM    4  C   UNL     1      41.199 -13.485   2.615  1.00  0.00     0.040 C 
HETATM    5  C   UNL     1      39.939 -14.018   1.928  1.00  0.00     0.058 C 
HETATM    6  C   UNL     1      39.775 -15.505   2.255  1.00  0.00     0.040 C 
HETATM    7  C   UNL     1      41.008 -16.332   1.910  1.00  0.00     0.236 C 
ENDROOT
BRANCH   1   8
HETATM    8  C   UNL     1      43.459 -16.578   2.112  1.00  0.00     0.276 C 
BRANCH   8   9
HETATM    9  C   UNL     1      43.609 -17.866   2.827  1.00  0.00     0.003 A 
HETATM   10  C   UNL     1      43.573 -18.073   4.245  1.00  0.00     0.007 A 
HETATM   11  C   UNL     1      43.408 -17.257   5.382  1.00  0.00     0.015 A 
HETATM   12  C   UNL     1      43.736 -19.441   4.434  1.00  0.00     0.085 A 
HETATM   13  C   UNL     1      43.411 -17.858   6.648  1.00  0.00     0.001 A 
HETATM   14  C   UNL     1      43.575 -19.237   6.792  1.00  0.00     0.003 A 
HETATM   15  C   UNL     1      43.744 -20.065   5.678  1.00  0.00     0.038 A 
HETATM   16  O   UNL     1      43.883 -20.066   3.236  1.00  0.00    -0.321 OA
HETATM   17  C   UNL     1      43.821 -19.112   2.273  1.00  0.00     0.152 A 
ENDBRANCH   8   9
ENDBRANCH   1   8
BRANCH   5  18
HETATM   18  C   UNL     1      40.000 -13.788   0.448  1.00  0.00     0.108 A 
HETATM   19  N   UNL     1      40.615 -12.785  -0.143  1.00  0.00    -0.229 NA
HETATM   20  C   UNL     1      40.393 -12.931  -1.508  1.00  0.00     0.157 A 
HETATM   21  C   UNL     1      39.629 -14.065  -1.716  1.00  0.00     0.126 A 
HETATM   22  N   UNL     1      39.392 -14.598  -0.477  1.00  0.00    -0.352 N 
HETATM   23  H   UNL     1      38.852 -15.434  -0.284  1.00  0.00     0.166 HD
BRANCH  20  24
HETATM   24  C   UNL     1      40.926 -11.956  -2.524  1.00  0.00     0.436 C 
HETATM   25  F   UNL     1      41.748 -11.031  -1.956  1.00  0.00    -0.165 F 
HETATM   26  F   UNL     1      41.641 -12.577  -3.495  1.00  0.00    -0.165 F 
HETATM   27  F   UNL     1      39.927 -11.269  -3.135  1.00  0.00    -0.165 F 
ENDBRANCH  20  24
ENDBRANCH   5  18
TORSDOF 4
ENDMDL
MODEL 7
REMARK VINA RESULT:      -8.0      1.634      2.540
REMARK  4 active torsions:
REMARK  status: ('A' for Active; 'I' for Inactive)
REMARK    1  A    between atoms: C_7  and  C_8 
REMARK    2  A    between atoms: C_8  and  N_9 
REMARK    3  A    between atoms: C_13  and  C_14 
REMARK    4  A    between atoms: C_16  and  C_17 
ROOT
HETATM    1  N   UNL     1      41.792 -12.922   3.772  1.00  0.00    -0.067 N 
HETATM    2  H   UNL     1      41.692 -12.257   4.547  1.00  0.00     0.280 HD
HETATM    3  C   UNL     1      42.035 -12.117   2.513  1.00  0.00     0.236 C 
HETATM    4  C   UNL     1      40.798 -11.311   2.131  1.00  0.00     0.040 C 
HETATM    5  C   UNL     1      39.539 -12.172   2.005  1.00  0.00     0.058 C 
HETATM    6  C   UNL     1      39.329 -12.954   3.305  1.00  0.00     0.040 C 
HETATM    7  C   UNL     1      40.546 -13.776   3.711  1.00  0.00     0.236 C 
ENDROOT
BRANCH   1   8
HETATM    8  C   UNL     1      42.985 -13.806   4.111  1.00  0.00     0.276 C 
BRANCH   8   9
HETATM    9  C   UNL     1      43.114 -15.008   3.256  1.00  0.00     0.003 A 
HETATM   10  C   UNL     1      43.407 -16.343   3.685  1.00  0.00     0.007 A 
HETATM   11  C   UNL     1      43.662 -16.975   4.919  1.00  0.00     0.015 A 
HETATM   12  C   UNL     1      43.404 -17.123   2.534  1.00  0.00     0.085 A 
HETATM   13  C   UNL     1      43.894 -18.357   4.932  1.00  0.00     0.001 A 
HETATM   14  C   UNL     1      43.879 -19.103   3.752  1.00  0.00     0.003 A 
HETATM   15  C   UNL     1      43.632 -18.496   2.516  1.00  0.00     0.038 A 
HETATM   16  O   UNL     1      43.145 -16.351   1.446  1.00  0.00    -0.321 OA
HETATM   17  C   UNL     1      42.987 -15.077   1.882  1.00  0.00     0.152 A 
ENDBRANCH   8   9
ENDBRANCH   1   8
BRANCH   5  18
HETATM   18  C   UNL     1      39.638 -13.091   0.825  1.00  0.00     0.108 A 
HETATM   19  N   UNL     1      39.732 -12.711  -0.432  1.00  0.00    -0.229 NA
HETATM   20  C   UNL     1      39.762 -13.871  -1.198  1.00  0.00     0.157 A 
HETATM   21  C   UNL     1      39.691 -14.964  -0.353  1.00  0.00     0.126 A 
HETATM   22  N   UNL     1      39.617 -14.460   0.918  1.00  0.00    -0.352 N 
HETATM   23  H   UNL     1      39.547 -15.005   1.769  1.00  0.00     0.166 HD
BRANCH  20  24
HETATM   24  C   UNL     1      39.846 -13.847  -2.701  1.00  0.00     0.436 C 
HETATM   25  F   UNL     1      39.212 -12.763  -3.227  1.00  0.00    -0.165 F 
HETATM   26  F   UNL     1      41.130 -13.803  -3.135  1.00  0.00    -0.165 F 
HETATM   27  F   UNL     1      39.271 -14.945  -3.255  1.00  0.00    -0.165 F 
ENDBRANCH  20  24
ENDBRANCH   5  18
TORSDOF 4
ENDMDL
MODEL 8
REMARK VINA RESULT:      -8.0      9.437     11.678
REMARK  4 active torsions:
REMARK  status: ('A' for Active; 'I' for Inactive)
REMARK    1  A    between atoms: C_7  and  C_8 
REMARK    2  A    between atoms: C_8  and  N_9 
REMARK    3  A    between atoms: C_13  and  C_14 
REMARK    4  A    between atoms: C_16  and  C_17 
ROOT
HETATM    1  N   UNL     1      43.225  -9.072  10.298  1.00  0.00    -0.067 N 
HETATM    2  H   UNL     1      43.525  -8.387  11.000  1.00  0.00     0.280 HD
HETATM    3  C   UNL     1      44.002 -10.347  10.550  1.00  0.00     0.236 C 
HETATM    4  C   UNL     1      45.483 -10.155  10.248  1.00  0.00     0.040 C 
HETATM    5  C   UNL     1      45.741  -9.617   8.838  1.00  0.00     0.058 C 
HETATM    6  C   UNL     1      44.948  -8.323   8.637  1.00  0.00     0.040 C 
HETATM    7  C   UNL     1      43.460  -8.484   8.925  1.00  0.00     0.236 C 
ENDROOT
BRANCH   1   8
HETATM    8  C   UNL     1      41.730  -9.276  10.503  1.00  0.00     0.276 C 
BRANCH   8   9
HETATM    9  C   UNL     1      41.308  -9.293  11.922  1.00  0.00     0.003 A 
HETATM   10  C   UNL     1      41.846  -8.506  12.991  1.00  0.00     0.007 A 
HETATM   11  C   UNL     1      42.857  -7.533  13.119  1.00  0.00     0.015 A 
HETATM   12  C   UNL     1      41.119  -8.854  14.124  1.00  0.00     0.085 A 
HETATM   13  C   UNL     1      43.081  -6.955  14.377  1.00  0.00     0.001 A 
HETATM   14  C   UNL     1      42.325  -7.332  15.488  1.00  0.00     0.003 A 
HETATM   15  C   UNL     1      41.319  -8.299  15.385  1.00  0.00     0.038 A 
HETATM   16  O   UNL     1      40.195  -9.802  13.815  1.00  0.00    -0.321 OA
HETATM   17  C   UNL     1      40.323 -10.075  12.493  1.00  0.00     0.152 A 
ENDBRANCH   8   9
ENDBRANCH   1   8
BRANCH   5  18
HETATM   18  C   UNL     1      45.386 -10.642   7.803  1.00  0.00     0.108 A 
HETATM   19  N   UNL     1      44.616 -11.692   8.001  1.00  0.00    -0.229 NA
HETATM   20  C   UNL     1      44.580 -12.392   6.800  1.00  0.00     0.157 A 
HETATM   21  C   UNL     1      45.351 -11.718   5.869  1.00  0.00     0.126 A 
HETATM   22  N   UNL     1      45.849 -10.616   6.511  1.00  0.00    -0.352 N 
HETATM   23  H   UNL     1      46.460  -9.918   6.104  1.00  0.00     0.166 HD
BRANCH  20  24
HETATM   24  C   UNL     1      43.811 -13.675   6.634  1.00  0.00     0.436 C 
HETATM   25  F   UNL     1      43.062 -13.963   7.734  1.00  0.00    -0.165 F 
HETATM   26  F   UNL     1      42.960 -13.622   5.579  1.00  0.00    -0.165 F 
HETATM   27  F   UNL     1      44.636 -14.735   6.433  1.00  0.00    -0.165 F 
ENDBRANCH  20  24
ENDBRANCH   5  18
TORSDOF 4
ENDMDL
MODEL 9
REMARK VINA RESULT:      -8.0      2.251      3.138
REMARK  4 active torsions:
REMARK  status: ('A' for Active; 'I' for Inactive)
REMARK    1  A    between atoms: C_7  and  C_8 
REMARK    2  A    between atoms: C_8  and  N_9 
REMARK    3  A    between atoms: C_13  and  C_14 
REMARK    4  A    between atoms: C_16  and  C_17 
ROOT
HETATM    1  N   UNL     1      42.818 -15.383   6.378  1.00  0.00    -0.067 N 
HETATM    2  H   UNL     1      42.827 -15.403   7.404  1.00  0.00     0.280 HD
HETATM    3  C   UNL     1      42.900 -13.933   5.953  1.00  0.00     0.236 C 
HETATM    4  C   UNL     1      41.633 -13.177   6.334  1.00  0.00     0.040 C 
HETATM    5  C   UNL     1      40.359 -13.839   5.803  1.00  0.00     0.058 C 
HETATM    6  C   UNL     1      40.314 -15.296   6.270  1.00  0.00     0.040 C 
HETATM    7  C   UNL     1      41.566 -16.082   5.898  1.00  0.00     0.236 C 
ENDROOT
BRANCH   1   8
HETATM    8  C   UNL     1      44.036 -16.173   5.918  1.00  0.00     0.276 C 
BRANCH   8   9
HETATM    9  C   UNL     1      43.852 -17.642   5.940  1.00  0.00     0.003 A 
HETATM   10  C   UNL     1      43.865 -18.529   4.816  1.00  0.00     0.007 A 
HETATM   11  C   UNL     1      44.029 -18.392   3.422  1.00  0.00     0.015 A 
HETATM   12  C   UNL     1      43.673 -19.805   5.334  1.00  0.00     0.085 A 
HETATM   13  C   UNL     1      43.998 -19.544   2.624  1.00  0.00     0.001 A 
HETATM   14  C   UNL     1      43.806 -20.807   3.187  1.00  0.00     0.003 A 
HETATM   15  C   UNL     1      43.636 -20.966   4.567  1.00  0.00     0.038 A 
HETATM   16  O   UNL     1      43.531 -19.746   6.684  1.00  0.00    -0.321 OA
HETATM   17  C   UNL     1      43.624 -18.441   7.043  1.00  0.00     0.152 A 
ENDBRANCH   8   9
ENDBRANCH   1   8
BRANCH   5  18
HETATM   18  C   UNL     1      40.292 -13.742   4.308  1.00  0.00     0.108 A 
HETATM   19  N   UNL     1      40.440 -14.747   3.470  1.00  0.00    -0.229 NA
HETATM   20  C   UNL     1      40.343 -14.215   2.189  1.00  0.00     0.157 A 
HETATM   21  C   UNL     1      40.122 -12.853   2.288  1.00  0.00     0.126 A 
HETATM   22  N   UNL     1      40.088 -12.568   3.627  1.00  0.00    -0.352 N 
HETATM   23  H   UNL     1      39.949 -11.651   4.035  1.00  0.00     0.166 HD
BRANCH  20  24
HETATM   24  C   UNL     1      40.481 -15.059   0.950  1.00  0.00     0.436 C 
HETATM   25  F   UNL     1      40.189 -14.354  -0.178  1.00  0.00    -0.165 F 
HETATM   26  F   UNL     1      41.741 -15.538   0.802  1.00  0.00    -0.165 F 
HETATM   27  F   UNL     1      39.644 -16.127   0.972  1.00  0.00    -0.165 F 
ENDBRANCH  20  24
ENDBRANCH   5  18
TORSDOF 4
ENDMDL
MODEL 10
REMARK VINA RESULT:      -7.9      3.770      6.778
REMARK  4 active torsions:
REMARK  status: ('A' for Active; 'I' for Inactive)
REMARK    1  A    between atoms: C_7  and  C_8 
REMARK    2  A    between atoms: C_8  and  N_9 
REMARK    3  A    between atoms: C_13  and  C_14 
REMARK    4  A    between atoms: C_16  and  C_17 
ROOT
HETATM    1  N   UNL     1      41.752 -13.400   6.527  1.00  0.00    -0.067 N 
HETATM    2  H   UNL     1      41.320 -13.053   7.391  1.00  0.00     0.280 HD
HETATM    3  C   UNL     1      40.822 -14.441   5.942  1.00  0.00     0.236 C 
HETATM    4  C   UNL     1      40.758 -15.679   6.829  1.00  0.00     0.040 C 
HETATM    5  C   UNL     1      42.138 -16.272   7.127  1.00  0.00     0.058 C 
HETATM    6  C   UNL     1      43.035 -15.187   7.729  1.00  0.00     0.040 C 
HETATM    7  C   UNL     1      43.125 -13.938   6.862  1.00  0.00     0.236 C 
ENDROOT
BRANCH   1   8
HETATM    8  C   UNL     1      41.900 -12.198   5.603  1.00  0.00     0.276 C 
BRANCH   8   9
HETATM    9  C   UNL     1      40.914 -12.154   4.500  1.00  0.00     0.003 A 
HETATM   10  C   UNL     1      41.027 -12.782   3.218  1.00  0.00     0.007 A 
HETATM   11  C   UNL     1      41.986 -13.584   2.566  1.00  0.00     0.015 A 
HETATM   12  C   UNL     1      39.854 -12.476   2.538  1.00  0.00     0.085 A 
HETATM   13  C   UNL     1      41.713 -14.040   1.269  1.00  0.00     0.001 A 
HETATM   14  C   UNL     1      40.520 -13.710   0.624  1.00  0.00     0.003 A 
HETATM   15  C   UNL     1      39.556 -12.913   1.250  1.00  0.00     0.038 A 
HETATM   16  O   UNL     1      39.053 -11.698   3.313  1.00  0.00    -0.321 OA
HETATM   17  C   UNL     1      39.701 -11.493   4.486  1.00  0.00     0.152 A 
ENDBRANCH   8   9
ENDBRANCH   1   8
BRANCH   5  18
HETATM   18  C   UNL     1      42.745 -16.859   5.888  1.00  0.00     0.108 A 
HETATM   19  N   UNL     1      42.264 -16.732   4.669  1.00  0.00    -0.229 NA
HETATM   20  C   UNL     1      43.106 -17.457   3.832  1.00  0.00     0.157 A 
HETATM   21  C   UNL     1      44.116 -18.016   4.593  1.00  0.00     0.126 A 
HETATM   22  N   UNL     1      43.881 -17.629   5.885  1.00  0.00    -0.352 N 
HETATM   23  H   UNL     1      44.441 -17.880   6.691  1.00  0.00     0.166 HD
BRANCH  20  24
HETATM   24  C   UNL     1      42.871 -17.570   2.349  1.00  0.00     0.436 C 
HETATM   25  F   UNL     1      43.627 -16.682   1.647  1.00  0.00    -0.165 F 
HETATM   26  F   UNL     1      43.175 -18.806   1.881  1.00  0.00    -0.165 F 
HETATM   27  F   UNL     1      41.575 -17.324   2.024  1.00  0.00    -0.165 F 
ENDBRANCH  20  24
ENDBRANCH   5  18
TORSDOF 4
ENDMDL
