MODEL 1
REMARK VINA RESULT:      -8.8      0.000      0.000
REMARK  5 active torsions:
REMARK  status: ('A' for Active; 'I' for Inactive)
REMARK    1  A    between atoms: C_7  and  C_8 
REMARK    2  A    between atoms: N_9  and  C_10 
REMARK    3  A    between atoms: C_10  and  C_11 
REMARK       I    between atoms: C_11  and  N_12 
REMARK    4  A    between atoms: N_12  and  C_13 
REMARK    5  A    between atoms: C_13  and  C_14 
ROOT
HETATM    1  C   UNL     1      42.700 -13.771   2.656  1.00  0.00     0.158 C 
HETATM    2  N   UNL     1      42.768 -12.339   2.897  1.00  0.00    -0.326 N 
HETATM    3  C   UNL     1      42.064 -11.642   1.927  1.00  0.00     0.255 C 
HETATM    4  O   UNL     1      42.066 -10.441   1.730  1.00  0.00    -0.267 OA
HETATM    5  C   UNL     1      41.309 -12.623   1.138  1.00  0.00     0.040 A 
HETATM    6  C   UNL     1      41.667 -13.897   1.577  1.00  0.00    -0.015 A 
HETATM    7  C   UNL     1      40.412 -12.408   0.109  1.00  0.00     0.017 A 
HETATM    8  C   UNL     1      39.854 -13.534  -0.500  1.00  0.00     0.001 A 
HETATM    9  C   UNL     1      40.209 -14.827  -0.075  1.00  0.00     0.001 A 
HETATM   10  C   UNL     1      41.125 -15.017   0.966  1.00  0.00     0.011 A 
ENDROOT
BRANCH   1  11
HETATM   11  C   UNL     1      42.232 -14.560   3.841  1.00  0.00     0.004 A 
HETATM   12  C   UNL     1      41.128 -14.245   4.636  1.00  0.00     0.017 A 
HETATM   13  C   UNL     1      40.148 -13.126   4.509  1.00  0.00     0.069 C 
HETATM   14  N   UNL     1      41.068 -15.163   5.661  1.00  0.00    -0.354 N 
HETATM   15  C   UNL     1      40.111 -15.153   6.749  1.00  0.00     0.156 C 
HETATM   16  C   UNL     1      42.058 -16.112   5.518  1.00  0.00     0.045 A 
HETATM   17  C   UNL     1      42.807 -15.759   4.393  1.00  0.00     0.001 A 
HETATM   18  C   UNL     1      42.358 -17.249   6.291  1.00  0.00     0.030 A 
HETATM   19  C   UNL     1      43.904 -16.578   4.042  1.00  0.00     0.014 A 
HETATM   20  C   UNL     1      44.211 -17.709   4.805  1.00  0.00     0.001 A 
HETATM   21  C   UNL     1      43.446 -18.039   5.915  1.00  0.00     0.002 A 
ENDBRANCH   1  11
BRANCH   2  22
HETATM   22  C   UNL     1      43.900 -11.767   3.613  1.00  0.00     0.229 C 
BRANCH  22  23
HETATM   23  C   UNL     1      43.650 -11.368   5.074  1.00  0.00     0.235 C 
HETATM   24  N   UNL     1      44.363 -12.071   6.018  1.00  0.00    -0.357 N 
HETATM   25  H   UNL     1      44.904 -12.879   5.704  1.00  0.00     0.162 HD
HETATM   26  O   UNL     1      42.747 -10.587   5.380  1.00  0.00    -0.272 OA
BRANCH  24  27
HETATM   27  C   UNL     1      44.072 -11.956   7.436  1.00  0.00     0.154 C 
BRANCH  27  28
HETATM   28  C   UNL     1      45.029 -11.005   8.169  1.00  0.00     0.139 C 
HETATM   29  O   UNL     1      46.056 -10.526   7.279  1.00  0.00    -0.384 OA
HETATM   30  C   UNL     1      46.556  -9.323   7.869  1.00  0.00     0.168 C 
HETATM   31  C   UNL     1      45.358  -8.642   8.493  1.00  0.00     0.029 C 
HETATM   32  C   UNL     1      44.340  -9.748   8.686  1.00  0.00     0.035 C 
ENDBRANCH  27  28
ENDBRANCH  24  27
ENDBRANCH  22  23
ENDBRANCH   2  22
TORSDOF 5
ENDMDL
MODEL 2
REMARK VINA RESULT:      -8.8      2.822      5.733
REMARK  5 active torsions:
REMARK  status: ('A' for Active; 'I' for Inactive)
REMARK    1  A    between atoms: C_7  and  C_8 
REMARK    2  A    between atoms: N_9  and  C_10 
REMARK    3  A    between atoms: C_10  and  C_11 
REMARK       I    between atoms: C_11  and  N_12 
REMARK    4  A    between atoms: N_12  and  C_13 
REMARK    5  A    between atoms: C_13  and  C_14 
ROOT
HETATM    1  C   UNL     1      40.359 -14.343   3.625  1.00  0.00     0.158 C 
HETATM    2  N   UNL     1      40.887 -14.800   2.351  1.00  0.00    -0.326 N 
HETATM    3  C   UNL     1      40.561 -13.915   1.335  1.00  0.00     0.255 C 
HETATM    4  O   UNL     1      40.690 -14.083   0.136  1.00  0.00    -0.267 OA
HETATM    5  C   UNL     1      39.994 -12.714   1.960  1.00  0.00     0.040 A 
HETATM    6  C   UNL     1      39.886 -12.951   3.330  1.00  0.00    -0.015 A 
HETATM    7  C   UNL     1      39.586 -11.534   1.368  1.00  0.00     0.017 A 
HETATM    8  C   UNL     1      39.045 -10.553   2.201  1.00  0.00     0.001 A 
HETATM    9  C   UNL     1      38.922 -10.777   3.585  1.00  0.00     0.001 A 
HETATM   10  C   UNL     1      39.337 -11.983   4.158  1.00  0.00     0.011 A 
ENDROOT
BRANCH   1  11
HETATM   11  C   UNL     1      41.387 -14.262   4.712  1.00  0.00     0.004 A 
HETATM   12  C   UNL     1      41.466 -15.117   5.813  1.00  0.00     0.017 A 
HETATM   13  C   UNL     1      40.624 -16.297   6.169  1.00  0.00     0.069 C 
HETATM   14  N   UNL     1      42.493 -14.676   6.618  1.00  0.00    -0.354 N 
HETATM   15  C   UNL     1      42.866 -15.245   7.898  1.00  0.00     0.156 C 
HETATM   16  C   UNL     1      43.136 -13.603   6.038  1.00  0.00     0.045 A 
HETATM   17  C   UNL     1      42.463 -13.315   4.848  1.00  0.00     0.001 A 
HETATM   18  C   UNL     1      44.250 -12.859   6.467  1.00  0.00     0.030 A 
HETATM   19  C   UNL     1      42.926 -12.231   4.069  1.00  0.00     0.014 A 
HETATM   20  C   UNL     1      44.032 -11.484   4.488  1.00  0.00     0.001 A 
HETATM   21  C   UNL     1      44.685 -11.797   5.673  1.00  0.00     0.002 A 
ENDBRANCH   1  11
BRANCH   2  22
HETATM   22  C   UNL     1      41.116 -16.219   2.117  1.00  0.00     0.229 C 
BRANCH  22  23
HETATM   23  C   UNL     1      42.579 -16.683   2.124  1.00  0.00     0.235 C 
HETATM   24  N   UNL     1      42.791 -17.995   2.484  1.00  0.00    -0.357 N 
HETATM   25  H   UNL     1      41.993 -18.527   2.837  1.00  0.00     0.162 HD
HETATM   26  O   UNL     1      43.506 -15.884   1.980  1.00  0.00    -0.272 OA
BRANCH  24  27
HETATM   27  C   UNL     1      44.123 -18.509   2.745  1.00  0.00     0.154 C 
BRANCH  27  28
HETATM   28  C   UNL     1      44.395 -18.737   4.239  1.00  0.00     0.139 C 
HETATM   29  O   UNL     1      43.492 -17.958   5.048  1.00  0.00    -0.384 OA
HETATM   30  C   UNL     1      43.473 -18.589   6.332  1.00  0.00     0.168 C 
HETATM   31  C   UNL     1      43.567 -20.075   6.061  1.00  0.00     0.029 C 
HETATM   32  C   UNL     1      44.168 -20.179   4.674  1.00  0.00     0.035 C 
ENDBRANCH  27  28
ENDBRANCH  24  27
ENDBRANCH  22  23
ENDBRANCH   2  22
TORSDOF 5
ENDMDL
MODEL 3
REMARK VINA RESULT:      -8.7      2.853      6.101
REMARK  5 active torsions:
REMARK  status: ('A' for Active; 'I' for Inactive)
REMARK    1  A    between atoms: C_7  and  C_8 
REMARK    2  A    between atoms: N_9  and  C_10 
REMARK    3  A    between atoms: C_10  and  C_11 
REMARK       I    between atoms: C_11  and  N_12 
REMARK    4  A    between atoms: N_12  and  C_13 
REMARK    5  A    between atoms: C_13  and  C_14 
ROOT
HETATM    1  C   UNL     1      40.343 -13.723   3.930  1.00  0.00     0.158 C 
HETATM    2  N   UNL     1      40.863 -13.753   2.573  1.00  0.00    -0.326 N 
HETATM    3  C   UNL     1      40.448 -12.638   1.860  1.00  0.00     0.255 C 
HETATM    4  O   UNL     1      40.552 -12.442   0.664  1.00  0.00    -0.267 OA
HETATM    5  C   UNL     1      39.820 -11.713   2.813  1.00  0.00     0.040 A 
HETATM    6  C   UNL     1      39.769 -12.343   4.055  1.00  0.00    -0.015 A 
HETATM    7  C   UNL     1      39.315 -10.446   2.592  1.00  0.00     0.017 A 
HETATM    8  C   UNL     1      38.735  -9.790   3.680  1.00  0.00     0.001 A 
HETATM    9  C   UNL     1      38.668 -10.413   4.939  1.00  0.00     0.001 A 
HETATM   10  C   UNL     1      39.181 -11.699   5.134  1.00  0.00     0.011 A 
ENDROOT
BRANCH   1  11
HETATM   11  C   UNL     1      41.396 -13.884   4.984  1.00  0.00     0.004 A 
HETATM   12  C   UNL     1      41.427 -14.897   5.944  1.00  0.00     0.017 A 
HETATM   13  C   UNL     1      40.500 -16.049   6.148  1.00  0.00     0.069 C 
HETATM   14  N   UNL     1      42.502 -14.663   6.772  1.00  0.00    -0.354 N 
HETATM   15  C   UNL     1      42.853 -15.442   7.943  1.00  0.00     0.156 C 
HETATM   16  C   UNL     1      43.218 -13.567   6.337  1.00  0.00     0.045 A 
HETATM   17  C   UNL     1      42.547 -13.054   5.225  1.00  0.00     0.001 A 
HETATM   18  C   UNL     1      44.396 -12.984   6.836  1.00  0.00     0.030 A 
HETATM   19  C   UNL     1      43.081 -11.904   4.600  1.00  0.00     0.014 A 
HETATM   20  C   UNL     1      44.251 -11.315   5.089  1.00  0.00     0.001 A 
HETATM   21  C   UNL     1      44.900 -11.850   6.194  1.00  0.00     0.002 A 
ENDBRANCH   1  11
BRANCH   2  22
HETATM   22  C   UNL     1      41.180 -15.022   1.935  1.00  0.00     0.229 C 
BRANCH  22  23
HETATM   23  C   UNL     1      42.521 -15.662   2.320  1.00  0.00     0.235 C 
HETATM   24  N   UNL     1      42.452 -16.714   3.205  1.00  0.00    -0.357 N 
HETATM   25  H   UNL     1      41.548 -16.917   3.636  1.00  0.00     0.162 HD
HETATM   26  O   UNL     1      43.593 -15.154   1.988  1.00  0.00    -0.272 OA
BRANCH  24  27
HETATM   27  C   UNL     1      43.641 -17.272   3.824  1.00  0.00     0.154 C 
BRANCH  27  28
HETATM   28  C   UNL     1      44.075 -18.604   3.196  1.00  0.00     0.139 C 
HETATM   29  O   UNL     1      43.964 -19.679   4.149  1.00  0.00    -0.384 OA
HETATM   30  C   UNL     1      43.894 -20.881   3.377  1.00  0.00     0.168 C 
HETATM   31  C   UNL     1      43.089 -20.533   2.144  1.00  0.00     0.029 C 
HETATM   32  C   UNL     1      43.197 -19.025   2.025  1.00  0.00     0.035 C 
ENDBRANCH  27  28
ENDBRANCH  24  27
ENDBRANCH  22  23
ENDBRANCH   2  22
TORSDOF 5
ENDMDL
MODEL 4
REMARK VINA RESULT:      -8.7      3.016      7.381
REMARK  5 active torsions:
REMARK  status: ('A' for Active; 'I' for Inactive)
REMARK    1  A    between atoms: C_7  and  C_8 
REMARK    2  A    between atoms: N_9  and  C_10 
REMARK    3  A    between atoms: C_10  and  C_11 
REMARK       I    between atoms: C_11  and  N_12 
REMARK    4  A    between atoms: N_12  and  C_13 
REMARK    5  A    between atoms: C_13  and  C_14 
ROOT
HETATM    1  C   UNL     1      41.894 -13.493   3.935  1.00  0.00     0.158 C 
HETATM    2  N   UNL     1      41.280 -14.492   4.793  1.00  0.00    -0.326 N 
HETATM    3  C   UNL     1      41.962 -14.595   5.996  1.00  0.00     0.255 C 
HETATM    4  O   UNL     1      41.825 -15.446   6.855  1.00  0.00    -0.267 OA
HETATM    5  C   UNL     1      42.924 -13.487   6.055  1.00  0.00     0.040 A 
HETATM    6  C   UNL     1      42.878 -12.811   4.837  1.00  0.00    -0.015 A 
HETATM    7  C   UNL     1      43.779 -13.130   7.081  1.00  0.00     0.017 A 
HETATM    8  C   UNL     1      44.623 -12.040   6.859  1.00  0.00     0.001 A 
HETATM    9  C   UNL     1      44.596 -11.350   5.633  1.00  0.00     0.001 A 
HETATM   10  C   UNL     1      43.725 -11.737   4.610  1.00  0.00     0.011 A 
ENDROOT
BRANCH   1  11
HETATM   11  C   UNL     1      40.935 -12.459   3.429  1.00  0.00     0.004 A 
HETATM   12  C   UNL     1      40.714 -12.152   2.085  1.00  0.00     0.017 A 
HETATM   13  C   UNL     1      41.306 -12.758   0.857  1.00  0.00     0.069 C 
HETATM   14  N   UNL     1      39.821 -11.104   2.032  1.00  0.00    -0.354 N 
HETATM   15  C   UNL     1      39.376 -10.434   0.826  1.00  0.00     0.156 C 
HETATM   16  C   UNL     1      39.395 -10.766   3.300  1.00  0.00     0.045 A 
HETATM   17  C   UNL     1      40.079 -11.591   4.196  1.00  0.00     0.001 A 
HETATM   18  C   UNL     1      38.469  -9.799   3.729  1.00  0.00     0.030 A 
HETATM   19  C   UNL     1      39.826 -11.425   5.576  1.00  0.00     0.014 A 
HETATM   20  C   UNL     1      38.908 -10.464   6.014  1.00  0.00     0.001 A 
HETATM   21  C   UNL     1      38.239  -9.662   5.099  1.00  0.00     0.002 A 
ENDBRANCH   1  11
BRANCH   2  22
HETATM   22  C   UNL     1      40.530 -15.599   4.215  1.00  0.00     0.229 C 
BRANCH  22  23
HETATM   23  C   UNL     1      41.215 -16.361   3.073  1.00  0.00     0.235 C 
HETATM   24  N   UNL     1      42.319 -17.104   3.424  1.00  0.00    -0.357 N 
HETATM   25  H   UNL     1      42.680 -17.002   4.374  1.00  0.00     0.162 HD
HETATM   26  O   UNL     1      40.892 -16.179   1.897  1.00  0.00    -0.272 OA
BRANCH  24  27
HETATM   27  C   UNL     1      43.190 -17.696   2.424  1.00  0.00     0.154 C 
BRANCH  27  28
HETATM   28  C   UNL     1      44.067 -18.824   2.987  1.00  0.00     0.139 C 
HETATM   29  O   UNL     1      43.982 -18.869   4.424  1.00  0.00    -0.384 OA
HETATM   30  C   UNL     1      44.390 -20.188   4.800  1.00  0.00     0.168 C 
HETATM   31  C   UNL     1      43.853 -21.106   3.723  1.00  0.00     0.029 C 
HETATM   32  C   UNL     1      43.629 -20.207   2.524  1.00  0.00     0.035 C 
ENDBRANCH  27  28
ENDBRANCH  24  27
ENDBRANCH  22  23
ENDBRANCH   2  22
TORSDOF 5
ENDMDL
MODEL 5
REMARK VINA RESULT:      -8.7      3.110      6.478
REMARK  5 active torsions:
REMARK  status: ('A' for Active; 'I' for Inactive)
REMARK    1  A    between atoms: C_7  and  C_8 
REMARK    2  A    between atoms: N_9  and  C_10 
REMARK    3  A    between atoms: C_10  and  C_11 
REMARK       I    between atoms: C_11  and  N_12 
REMARK    4  A    between atoms: N_12  and  C_13 
REMARK    5  A    between atoms: C_13  and  C_14 
ROOT
HETATM    1  C   UNL     1      39.999 -13.924   3.851  1.00  0.00     0.158 C 
HETATM    2  N   UNL     1      40.618 -15.237   3.779  1.00  0.00    -0.326 N 
HETATM    3  C   UNL     1      40.619 -15.711   2.476  1.00  0.00     0.255 C 
HETATM    4  O   UNL     1      40.892 -16.834   2.096  1.00  0.00    -0.267 OA
HETATM    5  C   UNL     1      40.199 -14.607   1.604  1.00  0.00     0.040 A 
HETATM    6  C   UNL     1      39.845 -13.529   2.413  1.00  0.00    -0.015 A 
HETATM    7  C   UNL     1      40.111 -14.571   0.225  1.00  0.00     0.017 A 
HETATM    8  C   UNL     1      39.645 -13.391  -0.356  1.00  0.00     0.001 A 
HETATM    9  C   UNL     1      39.276 -12.295   0.445  1.00  0.00     0.001 A 
HETATM   10  C   UNL     1      39.368 -12.359   1.839  1.00  0.00     0.011 A 
ENDROOT
BRANCH   1  11
HETATM   11  C   UNL     1      40.850 -12.891   4.526  1.00  0.00     0.004 A 
HETATM   12  C   UNL     1      42.221 -12.718   4.325  1.00  0.00     0.017 A 
HETATM   13  C   UNL     1      43.151 -13.442   3.409  1.00  0.00     0.069 C 
HETATM   14  N   UNL     1      42.652 -11.724   5.175  1.00  0.00    -0.354 N 
HETATM   15  C   UNL     1      44.023 -11.281   5.332  1.00  0.00     0.156 C 
HETATM   16  C   UNL     1      41.589 -11.192   5.875  1.00  0.00     0.045 A 
HETATM   17  C   UNL     1      40.449 -11.906   5.497  1.00  0.00     0.001 A 
HETATM   18  C   UNL     1      41.540 -10.145   6.813  1.00  0.00     0.030 A 
HETATM   19  C   UNL     1      39.218 -11.556   6.095  1.00  0.00     0.014 A 
HETATM   20  C   UNL     1      39.159 -10.518   7.031  1.00  0.00     0.001 A 
HETATM   21  C   UNL     1      40.307  -9.822   7.384  1.00  0.00     0.002 A 
ENDBRANCH   1  11
BRANCH   2  22
HETATM   22  C   UNL     1      40.611 -16.118   4.938  1.00  0.00     0.229 C 
BRANCH  22  23
HETATM   23  C   UNL     1      41.983 -16.537   5.484  1.00  0.00     0.235 C 
HETATM   24  N   UNL     1      42.864 -17.050   4.561  1.00  0.00    -0.357 N 
HETATM   25  H   UNL     1      42.516 -17.234   3.618  1.00  0.00     0.162 HD
HETATM   26  O   UNL     1      42.209 -16.565   6.696  1.00  0.00    -0.272 OA
BRANCH  24  27
HETATM   27  C   UNL     1      44.107 -17.686   4.963  1.00  0.00     0.154 C 
BRANCH  27  28
HETATM   28  C   UNL     1      44.472 -18.894   4.089  1.00  0.00     0.139 C 
HETATM   29  O   UNL     1      43.992 -20.117   4.681  1.00  0.00    -0.384 OA
HETATM   30  C   UNL     1      43.923 -21.068   3.614  1.00  0.00     0.168 C 
HETATM   31  C   UNL     1      43.478 -20.288   2.396  1.00  0.00     0.029 C 
HETATM   32  C   UNL     1      43.830 -18.847   2.708  1.00  0.00     0.035 C 
ENDBRANCH  27  28
ENDBRANCH  24  27
ENDBRANCH  22  23
ENDBRANCH   2  22
TORSDOF 5
ENDMDL
MODEL 6
REMARK VINA RESULT:      -8.4      2.164      2.986
REMARK  5 active torsions:
REMARK  status: ('A' for Active; 'I' for Inactive)
REMARK    1  A    between atoms: C_7  and  C_8 
REMARK    2  A    between atoms: N_9  and  C_10 
REMARK    3  A    between atoms: C_10  and  C_11 
REMARK       I    between atoms: C_11  and  N_12 
REMARK    4  A    between atoms: N_12  and  C_13 
REMARK    5  A    between atoms: C_13  and  C_14 
ROOT
HETATM    1  C   UNL     1      42.110 -12.145   3.433  1.00  0.00     0.158 C 
HETATM    2  N   UNL     1      42.573 -11.311   4.530  1.00  0.00    -0.326 N 
HETATM    3  C   UNL     1      41.742 -10.214   4.700  1.00  0.00     0.255 C 
HETATM    4  O   UNL     1      41.938  -9.237   5.399  1.00  0.00    -0.267 OA
HETATM    5  C   UNL     1      40.559 -10.420   3.855  1.00  0.00     0.040 A 
HETATM    6  C   UNL     1      40.760 -11.580   3.108  1.00  0.00    -0.015 A 
HETATM    7  C   UNL     1      39.426  -9.638   3.737  1.00  0.00     0.017 A 
HETATM    8  C   UNL     1      38.455 -10.051   2.822  1.00  0.00     0.001 A 
HETATM    9  C   UNL     1      38.644 -11.215   2.055  1.00  0.00     0.001 A 
HETATM   10  C   UNL     1      39.804 -11.986   2.189  1.00  0.00     0.011 A 
ENDROOT
BRANCH   1  11
HETATM   11  C   UNL     1      41.932 -13.585   3.804  1.00  0.00     0.004 A 
HETATM   12  C   UNL     1      41.260 -14.050   4.937  1.00  0.00     0.017 A 
HETATM   13  C   UNL     1      40.544 -13.289   6.002  1.00  0.00     0.069 C 
HETATM   14  N   UNL     1      41.376 -15.422   4.964  1.00  0.00    -0.354 N 
HETATM   15  C   UNL     1      40.877 -16.291   6.012  1.00  0.00     0.156 C 
HETATM   16  C   UNL     1      42.042 -15.874   3.844  1.00  0.00     0.045 A 
HETATM   17  C   UNL     1      42.409 -14.749   3.103  1.00  0.00     0.001 A 
HETATM   18  C   UNL     1      42.355 -17.181   3.428  1.00  0.00     0.030 A 
HETATM   19  C   UNL     1      43.128 -14.951   1.903  1.00  0.00     0.014 A 
HETATM   20  C   UNL     1      43.445 -16.246   1.481  1.00  0.00     0.001 A 
HETATM   21  C   UNL     1      43.062 -17.346   2.236  1.00  0.00     0.002 A 
ENDBRANCH   1  11
BRANCH   2  22
HETATM   22  C   UNL     1      43.982 -11.297   4.899  1.00  0.00     0.229 C 
BRANCH  22  23
HETATM   23  C   UNL     1      44.303 -11.596   6.370  1.00  0.00     0.235 C 
HETATM   24  N   UNL     1      44.365 -10.503   7.205  1.00  0.00    -0.357 N 
HETATM   25  H   UNL     1      44.320  -9.575   6.780  1.00  0.00     0.162 HD
HETATM   26  O   UNL     1      44.647 -12.721   6.735  1.00  0.00    -0.272 OA
BRANCH  24  27
HETATM   27  C   UNL     1      44.869 -10.607   8.562  1.00  0.00     0.154 C 
BRANCH  27  28
HETATM   28  C   UNL     1      43.816 -10.251   9.621  1.00  0.00     0.139 C 
HETATM   29  O   UNL     1      43.895 -11.151  10.744  1.00  0.00    -0.384 OA
HETATM   30  C   UNL     1      43.272 -10.469  11.837  1.00  0.00     0.168 C 
HETATM   31  C   UNL     1      43.644  -9.011  11.678  1.00  0.00     0.029 C 
HETATM   32  C   UNL     1      44.014  -8.863  10.216  1.00  0.00     0.035 C 
ENDBRANCH  27  28
ENDBRANCH  24  27
ENDBRANCH  22  23
ENDBRANCH   2  22
TORSDOF 5
ENDMDL
MODEL 7
REMARK VINA RESULT:      -8.4      2.408      4.384
REMARK  5 active torsions:
REMARK  status: ('A' for Active; 'I' for Inactive)
REMARK    1  A    between atoms: C_7  and  C_8 
REMARK    2  A    between atoms: N_9  and  C_10 
REMARK    3  A    between atoms: C_10  and  C_11 
REMARK       I    between atoms: C_11  and  N_12 
REMARK    4  A    between atoms: N_12  and  C_13 
REMARK    5  A    between atoms: C_13  and  C_14 
ROOT
HETATM    1  C   UNL     1      42.097 -11.977   3.868  1.00  0.00     0.158 C 
HETATM    2  N   UNL     1      42.434 -11.411   5.163  1.00  0.00    -0.326 N 
HETATM    3  C   UNL     1      41.677 -10.277   5.418  1.00  0.00     0.255 C 
HETATM    4  O   UNL     1      41.831  -9.469   6.316  1.00  0.00    -0.267 OA
HETATM    5  C   UNL     1      40.641 -10.195   4.381  1.00  0.00     0.040 A 
HETATM    6  C   UNL     1      40.871 -11.217   3.461  1.00  0.00    -0.015 A 
HETATM    7  C   UNL     1      39.611  -9.283   4.249  1.00  0.00     0.017 A 
HETATM    8  C   UNL     1      38.778  -9.415   3.136  1.00  0.00     0.001 A 
HETATM    9  C   UNL     1      38.999 -10.435   2.194  1.00  0.00     0.001 A 
HETATM   10  C   UNL     1      40.053 -11.342   2.347  1.00  0.00     0.011 A 
ENDROOT
BRANCH   1  11
HETATM   11  C   UNL     1      41.743 -13.432   3.920  1.00  0.00     0.004 A 
HETATM   12  C   UNL     1      40.814 -14.007   4.790  1.00  0.00     0.017 A 
HETATM   13  C   UNL     1      39.943 -13.364   5.818  1.00  0.00     0.069 C 
HETATM   14  N   UNL     1      40.825 -15.368   4.582  1.00  0.00    -0.354 N 
HETATM   15  C   UNL     1      40.055 -16.343   5.329  1.00  0.00     0.156 C 
HETATM   16  C   UNL     1      41.680 -15.693   3.550  1.00  0.00     0.045 A 
HETATM   17  C   UNL     1      42.275 -14.505   3.120  1.00  0.00     0.001 A 
HETATM   18  C   UNL     1      41.981 -16.936   2.965  1.00  0.00     0.030 A 
HETATM   19  C   UNL     1      43.216 -14.577   2.068  1.00  0.00     0.014 A 
HETATM   20  C   UNL     1      43.524 -15.808   1.481  1.00  0.00     0.001 A 
HETATM   21  C   UNL     1      42.912 -16.973   1.925  1.00  0.00     0.002 A 
ENDBRANCH   1  11
BRANCH   2  22
HETATM   22  C   UNL     1      43.757 -11.620   5.736  1.00  0.00     0.229 C 
BRANCH  22  23
HETATM   23  C   UNL     1      43.841 -12.599   6.915  1.00  0.00     0.235 C 
HETATM   24  N   UNL     1      43.470 -13.896   6.645  1.00  0.00    -0.357 N 
HETATM   25  H   UNL     1      43.051 -14.093   5.734  1.00  0.00     0.162 HD
HETATM   26  O   UNL     1      44.065 -12.205   8.060  1.00  0.00    -0.272 OA
BRANCH  24  27
HETATM   27  C   UNL     1      43.290 -14.875   7.702  1.00  0.00     0.154 C 
BRANCH  27  28
HETATM   28  C   UNL     1      43.844 -16.260   7.337  1.00  0.00     0.139 C 
HETATM   29  O   UNL     1      42.774 -17.178   7.043  1.00  0.00    -0.384 OA
HETATM   30  C   UNL     1      43.358 -18.223   6.260  1.00  0.00     0.168 C 
HETATM   31  C   UNL     1      44.387 -17.550   5.378  1.00  0.00     0.029 C 
HETATM   32  C   UNL     1      44.706 -16.245   6.081  1.00  0.00     0.035 C 
ENDBRANCH  27  28
ENDBRANCH  24  27
ENDBRANCH  22  23
ENDBRANCH   2  22
TORSDOF 5
ENDMDL
MODEL 8
REMARK VINA RESULT:      -8.2      2.134      7.230
REMARK  5 active torsions:
REMARK  status: ('A' for Active; 'I' for Inactive)
REMARK    1  A    between atoms: C_7  and  C_8 
REMARK    2  A    between atoms: N_9  and  C_10 
REMARK    3  A    between atoms: C_10  and  C_11 
REMARK       I    between atoms: C_11  and  N_12 
REMARK    4  A    between atoms: N_12  and  C_13 
REMARK    5  A    between atoms: C_13  and  C_14 
ROOT
HETATM    1  C   UNL     1      43.383 -12.874   5.202  1.00  0.00     0.158 C 
HETATM    2  N   UNL     1      42.554 -12.881   4.008  1.00  0.00    -0.326 N 
HETATM    3  C   UNL     1      41.852 -14.072   3.901  1.00  0.00     0.255 C 
HETATM    4  O   UNL     1      41.216 -14.474   2.944  1.00  0.00    -0.267 OA
HETATM    5  C   UNL     1      42.027 -14.803   5.162  1.00  0.00     0.040 A 
HETATM    6  C   UNL     1      42.924 -14.087   5.954  1.00  0.00    -0.015 A 
HETATM    7  C   UNL     1      41.468 -16.003   5.558  1.00  0.00     0.017 A 
HETATM    8  C   UNL     1      41.834 -16.497   6.812  1.00  0.00     0.001 A 
HETATM    9  C   UNL     1      42.743 -15.792   7.621  1.00  0.00     0.001 A 
HETATM   10  C   UNL     1      43.300 -14.583   7.194  1.00  0.00     0.011 A 
ENDROOT
BRANCH   1  11
HETATM   11  C   UNL     1      43.169 -11.678   6.078  1.00  0.00     0.004 A 
HETATM   12  C   UNL     1      41.938 -11.062   6.318  1.00  0.00     0.017 A 
HETATM   13  C   UNL     1      40.576 -11.428   5.829  1.00  0.00     0.069 C 
HETATM   14  N   UNL     1      42.164  -9.959   7.111  1.00  0.00    -0.354 N 
HETATM   15  C   UNL     1      41.160  -9.004   7.535  1.00  0.00     0.156 C 
HETATM   16  C   UNL     1      43.497  -9.876   7.457  1.00  0.00     0.045 A 
HETATM   17  C   UNL     1      44.153 -10.933   6.821  1.00  0.00     0.001 A 
HETATM   18  C   UNL     1      44.178  -8.955   8.272  1.00  0.00     0.030 A 
HETATM   19  C   UNL     1      45.548 -11.057   7.007  1.00  0.00     0.014 A 
HETATM   20  C   UNL     1      46.234 -10.144   7.815  1.00  0.00     0.001 A 
HETATM   21  C   UNL     1      45.555  -9.107   8.440  1.00  0.00     0.002 A 
ENDBRANCH   1  11
BRANCH   2  22
HETATM   22  C   UNL     1      42.925 -12.078   2.851  1.00  0.00     0.229 C 
BRANCH  22  23
HETATM   23  C   UNL     1      41.773 -11.418   2.082  1.00  0.00     0.235 C 
HETATM   24  N   UNL     1      41.263 -12.141   1.028  1.00  0.00    -0.357 N 
HETATM   25  H   UNL     1      41.754 -12.993   0.751  1.00  0.00     0.162 HD
HETATM   26  O   UNL     1      41.448 -10.248   2.295  1.00  0.00    -0.272 OA
BRANCH  24  27
HETATM   27  C   UNL     1      40.328 -11.557   0.082  1.00  0.00     0.154 C 
BRANCH  27  28
HETATM   28  C   UNL     1      39.271 -12.555  -0.409  1.00  0.00     0.139 C 
HETATM   29  O   UNL     1      38.849 -12.236  -1.749  1.00  0.00    -0.384 OA
HETATM   30  C   UNL     1      38.289 -13.440  -2.281  1.00  0.00     0.168 C 
HETATM   31  C   UNL     1      39.132 -14.567  -1.724  1.00  0.00     0.029 C 
HETATM   32  C   UNL     1      39.791 -13.984  -0.490  1.00  0.00     0.035 C 
ENDBRANCH  27  28
ENDBRANCH  24  27
ENDBRANCH  22  23
ENDBRANCH   2  22
TORSDOF 5
ENDMDL
MODEL 9
REMARK VINA RESULT:      -8.0      2.359      3.540
REMARK  5 active torsions:
REMARK  status: ('A' for Active; 'I' for Inactive)
REMARK    1  A    between atoms: C_7  and  C_8 
REMARK    2  A    between atoms: N_9  and  C_10 
REMARK    3  A    between atoms: C_10  and  C_11 
REMARK       I    between atoms: C_11  and  N_12 
REMARK    4  A    between atoms: N_12  and  C_13 
REMARK    5  A    between atoms: C_13  and  C_14 
ROOT
HETATM    1  C   UNL     1      43.118 -13.371   4.954  1.00  0.00     0.158 C 
HETATM    2  N   UNL     1      43.520 -12.776   6.218  1.00  0.00    -0.326 N 
HETATM    3  C   UNL     1      42.602 -11.820   6.626  1.00  0.00     0.255 C 
HETATM    4  O   UNL     1      42.722 -11.016   7.532  1.00  0.00    -0.267 OA
HETATM    5  C   UNL     1      41.433 -11.923   5.743  1.00  0.00     0.040 A 
HETATM    6  C   UNL     1      41.723 -12.860   4.752  1.00  0.00    -0.015 A 
HETATM    7  C   UNL     1      40.238 -11.231   5.795  1.00  0.00     0.017 A 
HETATM    8  C   UNL     1      39.298 -11.502   4.799  1.00  0.00     0.001 A 
HETATM    9  C   UNL     1      39.576 -12.439   3.787  1.00  0.00     0.001 A 
HETATM   10  C   UNL     1      40.796 -13.121   3.754  1.00  0.00     0.011 A 
ENDROOT
BRANCH   1  11
HETATM   11  C   UNL     1      43.063 -14.868   4.983  1.00  0.00     0.004 A 
HETATM   12  C   UNL     1      42.962 -15.650   6.135  1.00  0.00     0.017 A 
HETATM   13  C   UNL     1      42.848 -15.235   7.564  1.00  0.00     0.069 C 
HETATM   14  N   UNL     1      43.014 -16.973   5.755  1.00  0.00    -0.354 N 
HETATM   15  C   UNL     1      43.010 -18.110   6.653  1.00  0.00     0.156 C 
HETATM   16  C   UNL     1      43.073 -17.080   4.381  1.00  0.00     0.045 A 
HETATM   17  C   UNL     1      43.112 -15.780   3.870  1.00  0.00     0.001 A 
HETATM   18  C   UNL     1      43.100 -18.213   3.550  1.00  0.00     0.030 A 
HETATM   19  C   UNL     1      43.192 -15.622   2.468  1.00  0.00     0.014 A 
HETATM   20  C   UNL     1      43.222 -16.743   1.632  1.00  0.00     0.001 A 
HETATM   21  C   UNL     1      43.176 -18.022   2.168  1.00  0.00     0.002 A 
ENDBRANCH   1  11
BRANCH   2  22
HETATM   22  C   UNL     1      44.925 -12.731   6.596  1.00  0.00     0.229 C 
BRANCH  22  23
HETATM   23  C   UNL     1      45.604 -11.356   6.533  1.00  0.00     0.235 C 
HETATM   24  N   UNL     1      45.892 -10.773   7.745  1.00  0.00    -0.357 N 
HETATM   25  H   UNL     1      45.531 -11.222   8.589  1.00  0.00     0.162 HD
HETATM   26  O   UNL     1      45.724 -10.749   5.467  1.00  0.00    -0.272 OA
BRANCH  24  27
HETATM   27  C   UNL     1      46.330  -9.392   7.844  1.00  0.00     0.154 C 
BRANCH  27  28
HETATM   28  C   UNL     1      45.594  -8.607   8.939  1.00  0.00     0.139 C 
HETATM   29  O   UNL     1      44.422  -7.962   8.406  1.00  0.00    -0.384 OA
HETATM   30  C   UNL     1      43.572  -7.704   9.528  1.00  0.00     0.168 C 
HETATM   31  C   UNL     1      43.745  -8.887  10.455  1.00  0.00     0.029 C 
HETATM   32  C   UNL     1      45.078  -9.494  10.064  1.00  0.00     0.035 C 
ENDBRANCH  27  28
ENDBRANCH  24  27
ENDBRANCH  22  23
ENDBRANCH   2  22
TORSDOF 5
ENDMDL
MODEL 10
REMARK VINA RESULT:      -8.0      1.988      5.046
REMARK  5 active torsions:
REMARK  status: ('A' for Active; 'I' for Inactive)
REMARK    1  A    between atoms: C_7  and  C_8 
REMARK    2  A    between atoms: N_9  and  C_10 
REMARK    3  A    between atoms: C_10  and  C_11 
REMARK       I    between atoms: C_11  and  N_12 
REMARK    4  A    between atoms: N_12  and  C_13 
REMARK    5  A    between atoms: C_13  and  C_14 
ROOT
HETATM    1  C   UNL     1      41.043 -16.018   3.993  1.00  0.00     0.158 C 
HETATM    2  N   UNL     1      41.270 -15.352   5.265  1.00  0.00    -0.326 N 
HETATM    3  C   UNL     1      42.389 -15.868   5.900  1.00  0.00     0.255 C 
HETATM    4  O   UNL     1      42.752 -15.665   7.044  1.00  0.00    -0.267 OA
HETATM    5  C   UNL     1      43.074 -16.747   4.943  1.00  0.00     0.040 A 
HETATM    6  C   UNL     1      42.289 -16.829   3.795  1.00  0.00    -0.015 A 
HETATM    7  C   UNL     1      44.266 -17.431   5.089  1.00  0.00     0.017 A 
HETATM    8  C   UNL     1      44.678 -18.233   4.023  1.00  0.00     0.001 A 
HETATM    9  C   UNL     1      43.895 -18.334   2.858  1.00  0.00     0.001 A 
HETATM   10  C   UNL     1      42.689 -17.635   2.739  1.00  0.00     0.011 A 
ENDROOT
BRANCH   1  11
HETATM   11  C   UNL     1      40.912 -15.079   2.834  1.00  0.00     0.004 A 
HETATM   12  C   UNL     1      40.235 -15.355   1.644  1.00  0.00     0.017 A 
HETATM   13  C   UNL     1      39.471 -16.572   1.240  1.00  0.00     0.069 C 
HETATM   14  N   UNL     1      40.402 -14.277   0.803  1.00  0.00    -0.354 N 
HETATM   15  C   UNL     1      39.916 -14.187  -0.560  1.00  0.00     0.156 C 
HETATM   16  C   UNL     1      41.106 -13.274   1.435  1.00  0.00     0.045 A 
HETATM   17  C   UNL     1      41.445 -13.747   2.704  1.00  0.00     0.001 A 
HETATM   18  C   UNL     1      41.475 -11.992   0.990  1.00  0.00     0.030 A 
HETATM   19  C   UNL     1      42.193 -12.899   3.551  1.00  0.00     0.014 A 
HETATM   20  C   UNL     1      42.567 -11.623   3.118  1.00  0.00     0.001 A 
HETATM   21  C   UNL     1      42.211 -11.176   1.852  1.00  0.00     0.002 A 
ENDBRANCH   1  11
BRANCH   2  22
HETATM   22  C   UNL     1      40.158 -14.754   5.990  1.00  0.00     0.229 C 
BRANCH  22  23
HETATM   23  C   UNL     1      40.161 -13.223   6.100  1.00  0.00     0.235 C 
HETATM   24  N   UNL     1      41.355 -12.651   6.474  1.00  0.00    -0.357 N 
HETATM   25  H   UNL     1      42.111 -13.272   6.770  1.00  0.00     0.162 HD
HETATM   26  O   UNL     1      39.117 -12.573   6.023  1.00  0.00    -0.272 OA
BRANCH  24  27
HETATM   27  C   UNL     1      41.451 -11.246   6.829  1.00  0.00     0.154 C 
BRANCH  27  28
HETATM   28  C   UNL     1      42.885 -10.705   6.748  1.00  0.00     0.139 C 
HETATM   29  O   UNL     1      43.170  -9.842   7.867  1.00  0.00    -0.384 OA
HETATM   30  C   UNL     1      44.596  -9.804   7.979  1.00  0.00     0.168 C 
HETATM   31  C   UNL     1      45.073 -11.196   7.625  1.00  0.00     0.029 C 
HETATM   32  C   UNL     1      43.942 -11.800   6.818  1.00  0.00     0.035 C 
ENDBRANCH  27  28
ENDBRANCH  24  27
ENDBRANCH  22  23
ENDBRANCH   2  22
TORSDOF 5
ENDMDL
