MODEL 1
REMARK VINA RESULT:      -7.9      0.000      0.000
REMARK  4 active torsions:
REMARK  status: ('A' for Active; 'I' for Inactive)
REMARK    1  A    between atoms: C_5  and  N_6 
REMARK    2  A    between atoms: N_9  and  C_11 
REMARK    3  A    between atoms: C_11  and  C_12 
REMARK    4  A    between atoms: C_13  and  O_14 
ROOT
HETATM    1  N   UNL     1      41.942 -15.981   5.226  1.00  0.00    -0.363 N 
HETATM    2  C   UNL     1      41.612 -14.744   4.504  1.00  0.00     0.152 C 
HETATM    3  C   UNL     1      42.803 -13.775   4.366  1.00  0.00     0.255 C 
HETATM    4  N   UNL     1      43.103 -13.122   5.712  1.00  0.00    -0.066 N 
HETATM    5  H   UNL     1      42.201 -13.053   6.216  1.00  0.00     0.280 HD
HETATM    6  C   UNL     1      44.053 -13.866   6.601  1.00  0.00     0.237 C 
HETATM    7  C   UNL     1      43.871 -15.378   6.652  1.00  0.00     0.047 C 
HETATM    8  C   UNL     1      42.430 -15.876   6.603  1.00  0.00     0.126 C 
ENDROOT
BRANCH   4   9
HETATM    9  C   UNL     1      43.501 -11.666   5.574  1.00  0.00     0.276 C 
BRANCH   9  10
HETATM   10  C   UNL     1      44.253 -11.118   6.760  1.00  0.00     0.002 A 
HETATM   11  C   UNL     1      45.621 -10.815   6.695  1.00  0.00     0.073 A 
HETATM   12  C   UNL     1      46.301 -10.285   7.790  1.00  0.00     0.038 A 
HETATM   13  C   UNL     1      45.609 -10.035   8.975  1.00  0.00     0.022 A 
HETATM   14  C   UNL     1      44.246 -10.314   9.051  1.00  0.00     0.011 A 
HETATM   15 BR   UNL     1      43.306  -9.966  10.653  1.00  0.00    -0.051 Br
HETATM   16  C   UNL     1      43.567 -10.846   7.954  1.00  0.00     0.030 A 
BRANCH  11  17
HETATM   17  O   UNL     1      46.292 -11.075   5.528  1.00  0.00    -0.360 OA
HETATM   18  H   UNL     1      47.250 -11.095   5.736  1.00  0.00     0.217 HD
ENDBRANCH  11  17
ENDBRANCH   9  10
ENDBRANCH   4   9
BRANCH   1  19
HETATM   19  C   UNL     1      42.501 -16.980   4.411  1.00  0.00     0.147 A 
HETATM   20  N   UNL     1      42.101 -17.092   3.125  1.00  0.00    -0.132 NA
HETATM   21  N   UNL     1      42.601 -18.066   2.294  1.00  0.00    -0.153 NA
HETATM   22  C   UNL     1      43.503 -18.949   2.761  1.00  0.00     0.053 A 
HETATM   23  C   UNL     1      43.995 -20.011   1.831  1.00  0.00     0.072 C 
HETATM   24  C   UNL     1      43.958 -18.869   4.065  1.00  0.00     0.032 A 
HETATM   25  C   UNL     1      43.448 -17.872   4.897  1.00  0.00     0.054 A 
ENDBRANCH   1  19
TORSDOF 4
ENDMDL
MODEL 2
REMARK VINA RESULT:      -7.7      5.225      7.202
REMARK  4 active torsions:
REMARK  status: ('A' for Active; 'I' for Inactive)
REMARK    1  A    between atoms: C_5  and  N_6 
REMARK    2  A    between atoms: N_9  and  C_11 
REMARK    3  A    between atoms: C_11  and  C_12 
REMARK    4  A    between atoms: C_13  and  O_14 
ROOT
HETATM    1  N   UNL     1      42.231 -15.618   3.905  1.00  0.00    -0.363 N 
HETATM    2  C   UNL     1      40.767 -15.534   3.803  1.00  0.00     0.152 C 
HETATM    3  C   UNL     1      40.266 -15.219   2.380  1.00  0.00     0.255 C 
HETATM    4  N   UNL     1      40.553 -13.760   2.038  1.00  0.00    -0.066 N 
HETATM    5  H   UNL     1      40.507 -13.232   2.928  1.00  0.00     0.280 HD
HETATM    6  C   UNL     1      41.892 -13.484   1.426  1.00  0.00     0.237 C 
HETATM    7  C   UNL     1      43.069 -14.241   2.029  1.00  0.00     0.047 C 
HETATM    8  C   UNL     1      43.024 -14.442   3.541  1.00  0.00     0.126 C 
ENDROOT
BRANCH   4   9
HETATM    9  C   UNL     1      39.436 -13.123   1.235  1.00  0.00     0.276 C 
BRANCH   9  10
HETATM   10  C   UNL     1      39.725 -13.012  -0.241  1.00  0.00     0.002 A 
HETATM   11  C   UNL     1      39.577 -14.104  -1.109  1.00  0.00     0.073 A 
HETATM   12  C   UNL     1      39.822 -13.984  -2.476  1.00  0.00     0.038 A 
HETATM   13  C   UNL     1      40.210 -12.751  -3.000  1.00  0.00     0.022 A 
HETATM   14  C   UNL     1      40.345 -11.653  -2.155  1.00  0.00     0.011 A 
HETATM   15 BR   UNL     1      40.860  -9.979  -2.866  1.00  0.00    -0.051 Br
HETATM   16  C   UNL     1      40.101 -11.774  -0.786  1.00  0.00     0.030 A 
BRANCH  11  17
HETATM   17  O   UNL     1      39.205 -15.313  -0.579  1.00  0.00    -0.360 OA
HETATM   18  H   UNL     1      39.053 -15.928  -1.327  1.00  0.00     0.217 HD
ENDBRANCH  11  17
ENDBRANCH   9  10
ENDBRANCH   4   9
BRANCH   1  19
HETATM   19  C   UNL     1      42.751 -16.881   3.575  1.00  0.00     0.147 A 
HETATM   20  N   UNL     1      42.288 -17.527   2.481  1.00  0.00    -0.132 NA
HETATM   21  N   UNL     1      42.748 -18.773   2.128  1.00  0.00    -0.153 NA
HETATM   22  C   UNL     1      43.673 -19.388   2.889  1.00  0.00     0.053 A 
HETATM   23  C   UNL     1      44.119 -20.757   2.484  1.00  0.00     0.072 C 
HETATM   24  C   UNL     1      44.191 -18.765   4.010  1.00  0.00     0.032 A 
HETATM   25  C   UNL     1      43.721 -17.498   4.354  1.00  0.00     0.054 A 
ENDBRANCH   1  19
TORSDOF 4
ENDMDL
MODEL 3
REMARK VINA RESULT:      -7.5      3.274      4.067
REMARK  4 active torsions:
REMARK  status: ('A' for Active; 'I' for Inactive)
REMARK    1  A    between atoms: C_5  and  N_6 
REMARK    2  A    between atoms: N_9  and  C_11 
REMARK    3  A    between atoms: C_11  and  C_12 
REMARK    4  A    between atoms: C_13  and  O_14 
ROOT
HETATM    1  N   UNL     1      43.183 -15.756   2.883  1.00  0.00    -0.363 N 
HETATM    2  C   UNL     1      42.998 -14.700   3.888  1.00  0.00     0.152 C 
HETATM    3  C   UNL     1      41.554 -14.600   4.420  1.00  0.00     0.255 C 
HETATM    4  N   UNL     1      40.647 -13.994   3.353  1.00  0.00    -0.066 N 
HETATM    5  H   UNL     1      41.234 -13.345   2.799  1.00  0.00     0.280 HD
HETATM    6  C   UNL     1      40.028 -14.964   2.394  1.00  0.00     0.237 C 
HETATM    7  C   UNL     1      40.938 -16.081   1.896  1.00  0.00     0.047 C 
HETATM    8  C   UNL     1      42.393 -15.693   1.652  1.00  0.00     0.126 C 
ENDROOT
BRANCH   4   9
HETATM    9  C   UNL     1      39.609 -13.059   3.940  1.00  0.00     0.276 C 
BRANCH   9  10
HETATM   10  C   UNL     1      40.186 -11.820   4.579  1.00  0.00     0.002 A 
HETATM   11  C   UNL     1      41.147 -11.031   3.930  1.00  0.00     0.073 A 
HETATM   12  C   UNL     1      41.654  -9.874   4.519  1.00  0.00     0.038 A 
HETATM   13  C   UNL     1      41.191  -9.480   5.774  1.00  0.00     0.022 A 
HETATM   14  C   UNL     1      40.224 -10.243   6.425  1.00  0.00     0.011 A 
HETATM   15 BR   UNL     1      39.589  -9.705   8.121  1.00  0.00    -0.051 Br
HETATM   16  C   UNL     1      39.718 -11.403   5.835  1.00  0.00     0.030 A 
BRANCH  11  17
HETATM   17  O   UNL     1      41.600 -11.435   2.701  1.00  0.00    -0.360 OA
HETATM   18  H   UNL     1      40.819 -11.545   2.120  1.00  0.00     0.217 HD
ENDBRANCH  11  17
ENDBRANCH   9  10
ENDBRANCH   4   9
BRANCH   1  19
HETATM   19  C   UNL     1      43.429 -17.025   3.434  1.00  0.00     0.147 A 
HETATM   20  N   UNL     1      43.545 -17.159   4.774  1.00  0.00    -0.132 NA
HETATM   21  N   UNL     1      43.808 -18.374   5.360  1.00  0.00    -0.153 NA
HETATM   22  C   UNL     1      43.972 -19.468   4.593  1.00  0.00     0.053 A 
HETATM   23  C   UNL     1      44.289 -20.762   5.272  1.00  0.00     0.072 C 
HETATM   24  C   UNL     1      43.848 -19.390   3.218  1.00  0.00     0.032 A 
HETATM   25  C   UNL     1      43.574 -18.151   2.635  1.00  0.00     0.054 A 
ENDBRANCH   1  19
TORSDOF 4
ENDMDL
MODEL 4
REMARK VINA RESULT:      -7.4      4.570      5.698
REMARK  4 active torsions:
REMARK  status: ('A' for Active; 'I' for Inactive)
REMARK    1  A    between atoms: C_5  and  N_6 
REMARK    2  A    between atoms: N_9  and  C_11 
REMARK    3  A    between atoms: C_11  and  C_12 
REMARK    4  A    between atoms: C_13  and  O_14 
ROOT
HETATM    1  N   UNL     1      43.199 -15.734   2.843  1.00  0.00    -0.363 N 
HETATM    2  C   UNL     1      42.980 -14.676   3.839  1.00  0.00     0.152 C 
HETATM    3  C   UNL     1      41.524 -14.592   4.339  1.00  0.00     0.255 C 
HETATM    4  N   UNL     1      40.633 -14.001   3.250  1.00  0.00    -0.066 N 
HETATM    5  H   UNL     1      41.224 -13.347   2.706  1.00  0.00     0.280 HD
HETATM    6  C   UNL     1      40.046 -14.982   2.282  1.00  0.00     0.237 C 
HETATM    7  C   UNL     1      40.980 -16.091   1.810  1.00  0.00     0.047 C 
HETATM    8  C   UNL     1      42.435 -15.686   1.594  1.00  0.00     0.126 C 
ENDROOT
BRANCH   4   9
HETATM    9  C   UNL     1      39.571 -13.076   3.811  1.00  0.00     0.276 C 
BRANCH   9  10
HETATM   10  C   UNL     1      39.426 -11.777   3.059  1.00  0.00     0.002 A 
HETATM   11  C   UNL     1      40.427 -10.794   3.078  1.00  0.00     0.073 A 
HETATM   12  C   UNL     1      40.295  -9.608   2.358  1.00  0.00     0.038 A 
HETATM   13  C   UNL     1      39.150  -9.393   1.590  1.00  0.00     0.022 A 
HETATM   14  C   UNL     1      38.155 -10.366   1.547  1.00  0.00     0.011 A 
HETATM   15 BR   UNL     1      36.609 -10.079   0.498  1.00  0.00    -0.051 Br
HETATM   16  C   UNL     1      38.288 -11.553   2.269  1.00  0.00     0.030 A 
BRANCH  11  17
HETATM   17  O   UNL     1      41.542 -11.014   3.845  1.00  0.00    -0.360 OA
HETATM   18  H   UNL     1      41.577 -11.972   4.048  1.00  0.00     0.217 HD
ENDBRANCH  11  17
ENDBRANCH   9  10
ENDBRANCH   4   9
BRANCH   1  19
HETATM   19  C   UNL     1      43.449 -16.998   3.405  1.00  0.00     0.147 A 
HETATM   20  N   UNL     1      43.592 -17.116   4.743  1.00  0.00    -0.132 NA
HETATM   21  N   UNL     1      43.859 -18.326   5.339  1.00  0.00    -0.153 NA
HETATM   22  C   UNL     1      43.999 -19.430   4.582  1.00  0.00     0.053 A 
HETATM   23  C   UNL     1      44.322 -20.718   5.271  1.00  0.00     0.072 C 
HETATM   24  C   UNL     1      43.847 -19.368   3.209  1.00  0.00     0.032 A 
HETATM   25  C   UNL     1      43.569 -18.135   2.617  1.00  0.00     0.054 A 
ENDBRANCH   1  19
TORSDOF 4
ENDMDL
MODEL 5
REMARK VINA RESULT:      -7.4      5.799      7.631
REMARK  4 active torsions:
REMARK  status: ('A' for Active; 'I' for Inactive)
REMARK    1  A    between atoms: C_5  and  N_6 
REMARK    2  A    between atoms: N_9  and  C_11 
REMARK    3  A    between atoms: C_11  and  C_12 
REMARK    4  A    between atoms: C_13  and  O_14 
ROOT
HETATM    1  N   UNL     1      40.650 -15.079   3.149  1.00  0.00    -0.363 N 
HETATM    2  C   UNL     1      39.656 -15.613   2.207  1.00  0.00     0.152 C 
HETATM    3  C   UNL     1      40.087 -15.506   0.730  1.00  0.00     0.255 C 
HETATM    4  N   UNL     1      40.007 -14.054   0.269  1.00  0.00    -0.066 N 
HETATM    5  H   UNL     1      39.240 -13.613   0.807  1.00  0.00     0.280 HD
HETATM    6  C   UNL     1      41.239 -13.230   0.493  1.00  0.00     0.237 C 
HETATM    7  C   UNL     1      41.945 -13.437   1.827  1.00  0.00     0.047 C 
HETATM    8  C   UNL     1      41.036 -13.671   3.030  1.00  0.00     0.126 C 
ENDROOT
BRANCH   4   9
HETATM    9  C   UNL     1      39.509 -13.926  -1.157  1.00  0.00     0.276 C 
BRANCH   9  10
HETATM   10  C   UNL     1      39.738 -12.568  -1.770  1.00  0.00     0.002 A 
HETATM   11  C   UNL     1      40.651 -12.371  -2.817  1.00  0.00     0.073 A 
HETATM   12  C   UNL     1      40.836 -11.116  -3.394  1.00  0.00     0.038 A 
HETATM   13  C   UNL     1      40.090 -10.030  -2.933  1.00  0.00     0.022 A 
HETATM   14  C   UNL     1      39.167 -10.211  -1.906  1.00  0.00     0.011 A 
HETATM   15 BR   UNL     1      38.150  -8.743  -1.289  1.00  0.00    -0.051 Br
HETATM   16  C   UNL     1      38.984 -11.469  -1.328  1.00  0.00     0.030 A 
BRANCH  11  17
HETATM   17  O   UNL     1      41.384 -13.444  -3.253  1.00  0.00    -0.360 OA
HETATM   18  H   UNL     1      42.117 -13.097  -3.803  1.00  0.00     0.217 HD
ENDBRANCH  11  17
ENDBRANCH   9  10
ENDBRANCH   4   9
BRANCH   1  19
HETATM   19  C   UNL     1      41.650 -16.001   3.501  1.00  0.00     0.147 A 
HETATM   20  N   UNL     1      42.054 -16.923   2.599  1.00  0.00    -0.132 NA
HETATM   21  N   UNL     1      43.013 -17.860   2.903  1.00  0.00    -0.153 NA
HETATM   22  C   UNL     1      43.564 -17.884   4.131  1.00  0.00     0.053 A 
HETATM   23  C   UNL     1      44.579 -18.942   4.426  1.00  0.00     0.072 C 
HETATM   24  C   UNL     1      43.198 -16.953   5.085  1.00  0.00     0.032 A 
HETATM   25  C   UNL     1      42.229 -16.002   4.764  1.00  0.00     0.054 A 
ENDBRANCH   1  19
TORSDOF 4
ENDMDL
MODEL 6
REMARK VINA RESULT:      -7.3      4.301      5.340
REMARK  4 active torsions:
REMARK  status: ('A' for Active; 'I' for Inactive)
REMARK    1  A    between atoms: C_5  and  N_6 
REMARK    2  A    between atoms: N_9  and  C_11 
REMARK    3  A    between atoms: C_11  and  C_12 
REMARK    4  A    between atoms: C_13  and  O_14 
ROOT
HETATM    1  N   UNL     1      43.047 -15.650   2.730  1.00  0.00    -0.363 N 
HETATM    2  C   UNL     1      42.916 -14.587   3.735  1.00  0.00     0.152 C 
HETATM    3  C   UNL     1      41.514 -14.511   4.374  1.00  0.00     0.255 C 
HETATM    4  N   UNL     1      40.517 -13.936   3.373  1.00  0.00    -0.066 N 
HETATM    5  H   UNL     1      41.046 -13.282   2.769  1.00  0.00     0.280 HD
HETATM    6  C   UNL     1      39.848 -14.930   2.472  1.00  0.00     0.237 C 
HETATM    7  C   UNL     1      40.742 -16.034   1.919  1.00  0.00     0.047 C 
HETATM    8  C   UNL     1      42.166 -15.618   1.561  1.00  0.00     0.126 C 
ENDROOT
BRANCH   4   9
HETATM    9  C   UNL     1      39.505 -13.016   4.027  1.00  0.00     0.276 C 
BRANCH   9  10
HETATM   10  C   UNL     1      39.493 -11.616   3.467  1.00  0.00     0.002 A 
HETATM   11  C   UNL     1      38.729 -11.274   2.342  1.00  0.00     0.073 A 
HETATM   12  C   UNL     1      38.705  -9.971   1.848  1.00  0.00     0.038 A 
HETATM   13  C   UNL     1      39.444  -8.978   2.490  1.00  0.00     0.022 A 
HETATM   14  C   UNL     1      40.195  -9.297   3.619  1.00  0.00     0.011 A 
HETATM   15 BR   UNL     1      41.189  -7.949   4.496  1.00  0.00    -0.051 Br
HETATM   16  C   UNL     1      40.219 -10.603   4.112  1.00  0.00     0.030 A 
BRANCH  11  17
HETATM   17  O   UNL     1      38.015 -12.262   1.714  1.00  0.00    -0.360 OA
HETATM   18  H   UNL     1      37.071 -11.996   1.725  1.00  0.00     0.217 HD
ENDBRANCH  11  17
ENDBRANCH   9  10
ENDBRANCH   4   9
BRANCH   1  19
HETATM   19  C   UNL     1      43.362 -16.908   3.273  1.00  0.00     0.147 A 
HETATM   20  N   UNL     1      43.641 -17.013   4.592  1.00  0.00    -0.132 NA
HETATM   21  N   UNL     1      43.976 -18.216   5.166  1.00  0.00    -0.153 NA
HETATM   22  C   UNL     1      44.047 -19.326   4.408  1.00  0.00     0.053 A 
HETATM   23  C   UNL     1      44.447 -20.606   5.070  1.00  0.00     0.072 C 
HETATM   24  C   UNL     1      43.755 -19.276   3.057  1.00  0.00     0.032 A 
HETATM   25  C   UNL     1      43.410 -18.051   2.486  1.00  0.00     0.054 A 
ENDBRANCH   1  19
TORSDOF 4
ENDMDL
MODEL 7
REMARK VINA RESULT:      -7.3      2.746      3.287
REMARK  4 active torsions:
REMARK  status: ('A' for Active; 'I' for Inactive)
REMARK    1  A    between atoms: C_5  and  N_6 
REMARK    2  A    between atoms: N_9  and  C_11 
REMARK    3  A    between atoms: C_11  and  C_12 
REMARK    4  A    between atoms: C_13  and  O_14 
ROOT
HETATM    1  N   UNL     1      40.865 -13.918   5.909  1.00  0.00    -0.363 N 
HETATM    2  C   UNL     1      40.603 -12.484   6.100  1.00  0.00     0.152 C 
HETATM    3  C   UNL     1      41.804 -11.586   5.743  1.00  0.00     0.255 C 
HETATM    4  N   UNL     1      42.886 -11.715   6.811  1.00  0.00    -0.066 N 
HETATM    5  H   UNL     1      42.399 -11.909   7.704  1.00  0.00     0.280 HD
HETATM    6  C   UNL     1      43.884 -12.813   6.601  1.00  0.00     0.237 C 
HETATM    7  C   UNL     1      43.321 -14.138   6.101  1.00  0.00     0.047 C 
HETATM    8  C   UNL     1      41.959 -14.534   6.663  1.00  0.00     0.126 C 
ENDROOT
BRANCH   4   9
HETATM    9  C   UNL     1      43.571 -10.394   7.104  1.00  0.00     0.276 C 
BRANCH   9  10
HETATM   10  C   UNL     1      43.595 -10.023   8.565  1.00  0.00     0.002 A 
HETATM   11  C   UNL     1      44.730 -10.229   9.364  1.00  0.00     0.073 A 
HETATM   12  C   UNL     1      44.750  -9.859  10.707  1.00  0.00     0.038 A 
HETATM   13  C   UNL     1      43.625  -9.258  11.273  1.00  0.00     0.022 A 
HETATM   14  C   UNL     1      42.496  -9.030  10.489  1.00  0.00     0.011 A 
HETATM   15 BR   UNL     1      40.976  -8.207  11.252  1.00  0.00    -0.051 Br
HETATM   16  C   UNL     1      42.477  -9.403   9.144  1.00  0.00     0.030 A 
BRANCH  11  17
HETATM   17  O   UNL     1      45.825 -10.830   8.798  1.00  0.00    -0.360 OA
HETATM   18  H   UNL     1      46.394 -11.153   9.528  1.00  0.00     0.217 HD
ENDBRANCH  11  17
ENDBRANCH   9  10
ENDBRANCH   4   9
BRANCH   1  19
HETATM   19  C   UNL     1      40.650 -14.363   4.593  1.00  0.00     0.147 A 
HETATM   20  N   UNL     1      40.144 -13.509   3.675  1.00  0.00    -0.132 NA
HETATM   21  N   UNL     1      39.895 -13.902   2.381  1.00  0.00    -0.153 NA
HETATM   22  C   UNL     1      40.141 -15.171   2.006  1.00  0.00     0.053 A 
HETATM   23  C   UNL     1      39.824 -15.561   0.597  1.00  0.00     0.072 C 
HETATM   24  C   UNL     1      40.673 -16.080   2.901  1.00  0.00     0.032 A 
HETATM   25  C   UNL     1      40.928 -15.668   4.210  1.00  0.00     0.054 A 
ENDBRANCH   1  19
TORSDOF 4
ENDMDL
MODEL 8
REMARK VINA RESULT:      -7.2      3.709      4.320
REMARK  4 active torsions:
REMARK  status: ('A' for Active; 'I' for Inactive)
REMARK    1  A    between atoms: C_5  and  N_6 
REMARK    2  A    between atoms: N_9  and  C_11 
REMARK    3  A    between atoms: C_11  and  C_12 
REMARK    4  A    between atoms: C_13  and  O_14 
ROOT
HETATM    1  N   UNL     1      42.484 -16.015   5.126  1.00  0.00    -0.363 N 
HETATM    2  C   UNL     1      41.028 -15.893   5.277  1.00  0.00     0.152 C 
HETATM    3  C   UNL     1      40.355 -15.096   4.141  1.00  0.00     0.255 C 
HETATM    4  N   UNL     1      40.675 -13.612   4.286  1.00  0.00    -0.066 N 
HETATM    5  H   UNL     1      40.782 -13.429   5.299  1.00  0.00     0.280 HD
HETATM    6  C   UNL     1      41.932 -13.146   3.615  1.00  0.00     0.237 C 
HETATM    7  C   UNL     1      43.135 -14.073   3.739  1.00  0.00     0.047 C 
HETATM    8  C   UNL     1      43.286 -14.790   5.077  1.00  0.00     0.126 C 
ENDROOT
BRANCH   4   9
HETATM    9  C   UNL     1      39.497 -12.728   3.926  1.00  0.00     0.276 C 
BRANCH   9  10
HETATM   10  C   UNL     1      39.345 -11.515   4.810  1.00  0.00     0.002 A 
HETATM   11  C   UNL     1      39.451 -11.597   6.206  1.00  0.00     0.073 A 
HETATM   12  C   UNL     1      39.335 -10.466   7.012  1.00  0.00     0.038 A 
HETATM   13  C   UNL     1      39.121  -9.220   6.422  1.00  0.00     0.022 A 
HETATM   14  C   UNL     1      39.030  -9.118   5.036  1.00  0.00     0.011 A 
HETATM   15 BR   UNL     1      38.751  -7.429   4.236  1.00  0.00    -0.051 Br
HETATM   16  C   UNL     1      39.146 -10.252   4.230  1.00  0.00     0.030 A 
BRANCH  11  17
HETATM   17  O   UNL     1      39.651 -12.829   6.774  1.00  0.00    -0.360 OA
HETATM   18  H   UNL     1      38.860 -13.375   6.581  1.00  0.00     0.217 HD
ENDBRANCH  11  17
ENDBRANCH   9  10
ENDBRANCH   4   9
BRANCH   1  19
HETATM   19  C   UNL     1      42.881 -17.086   4.306  1.00  0.00     0.147 A 
HETATM   20  N   UNL     1      42.281 -17.266   3.109  1.00  0.00    -0.132 NA
HETATM   21  N   UNL     1      42.617 -18.311   2.281  1.00  0.00    -0.153 NA
HETATM   22  C   UNL     1      43.558 -19.195   2.663  1.00  0.00     0.053 A 
HETATM   23  C   UNL     1      43.868 -20.333   1.744  1.00  0.00     0.072 C 
HETATM   24  C   UNL     1      44.215 -19.047   3.871  1.00  0.00     0.032 A 
HETATM   25  C   UNL     1      43.869 -17.979   4.700  1.00  0.00     0.054 A 
ENDBRANCH   1  19
TORSDOF 4
ENDMDL
MODEL 9
REMARK VINA RESULT:      -7.2      5.413     10.020
REMARK  4 active torsions:
REMARK  status: ('A' for Active; 'I' for Inactive)
REMARK    1  A    between atoms: C_5  and  N_6 
REMARK    2  A    between atoms: N_9  and  C_11 
REMARK    3  A    between atoms: C_11  and  C_12 
REMARK    4  A    between atoms: C_13  and  O_14 
ROOT
HETATM    1  N   UNL     1      41.762  -9.979  12.385  1.00  0.00    -0.363 N 
HETATM    2  C   UNL     1      43.014 -10.239  11.661  1.00  0.00     0.152 C 
HETATM    3  C   UNL     1      43.287  -9.236  10.523  1.00  0.00     0.255 C 
HETATM    4  N   UNL     1      42.344  -9.505   9.353  1.00  0.00    -0.066 N 
HETATM    5  H   UNL     1      42.151 -10.522   9.357  1.00  0.00     0.280 HD
HETATM    6  C   UNL     1      41.023  -8.801   9.405  1.00  0.00     0.237 C 
HETATM    7  C   UNL     1      40.347  -8.751  10.770  1.00  0.00     0.047 C 
HETATM    8  C   UNL     1      40.505  -9.999  11.634  1.00  0.00     0.126 C 
ENDROOT
BRANCH   4   9
HETATM    9  C   UNL     1      43.020  -9.315   8.010  1.00  0.00     0.276 C 
BRANCH   9  10
HETATM   10  C   UNL     1      43.160 -10.584   7.206  1.00  0.00     0.002 A 
HETATM   11  C   UNL     1      44.152 -11.534   7.489  1.00  0.00     0.073 A 
HETATM   12  C   UNL     1      44.256 -12.716   6.757  1.00  0.00     0.038 A 
HETATM   13  C   UNL     1      43.350 -12.969   5.727  1.00  0.00     0.022 A 
HETATM   14  C   UNL     1      42.349 -12.044   5.444  1.00  0.00     0.011 A 
HETATM   15 BR   UNL     1      41.115 -12.392   4.056  1.00  0.00    -0.051 Br
HETATM   16  C   UNL     1      42.246 -10.860   6.178  1.00  0.00     0.030 A 
BRANCH  11  17
HETATM   17  O   UNL     1      45.042 -11.268   8.497  1.00  0.00    -0.360 OA
HETATM   18  H   UNL     1      44.654 -10.561   9.055  1.00  0.00     0.217 HD
ENDBRANCH  11  17
ENDBRANCH   9  10
ENDBRANCH   4   9
BRANCH   1  19
HETATM   19  C   UNL     1      41.890  -9.033  13.416  1.00  0.00     0.147 A 
HETATM   20  N   UNL     1      40.993  -9.024  14.427  1.00  0.00    -0.132 NA
HETATM   21  N   UNL     1      41.062  -8.105  15.447  1.00  0.00    -0.153 NA
HETATM   22  C   UNL     1      42.033  -7.173  15.447  1.00  0.00     0.053 A 
HETATM   23  C   UNL     1      42.049  -6.173  16.559  1.00  0.00     0.072 C 
HETATM   24  C   UNL     1      42.986  -7.148  14.445  1.00  0.00     0.032 A 
HETATM   25  C   UNL     1      42.909  -8.090  13.419  1.00  0.00     0.054 A 
ENDBRANCH   1  19
TORSDOF 4
ENDMDL
MODEL 10
REMARK VINA RESULT:      -7.1      2.924      3.528
REMARK  4 active torsions:
REMARK  status: ('A' for Active; 'I' for Inactive)
REMARK    1  A    between atoms: C_5  and  N_6 
REMARK    2  A    between atoms: N_9  and  C_11 
REMARK    3  A    between atoms: C_11  and  C_12 
REMARK    4  A    between atoms: C_13  and  O_14 
ROOT
HETATM    1  N   UNL     1      42.081 -15.160   6.662  1.00  0.00    -0.363 N 
HETATM    2  C   UNL     1      40.816 -14.491   6.329  1.00  0.00     0.152 C 
HETATM    3  C   UNL     1      40.997 -13.220   5.476  1.00  0.00     0.255 C 
HETATM    4  N   UNL     1      41.573 -12.096   6.332  1.00  0.00    -0.066 N 
HETATM    5  H   UNL     1      41.224 -12.248   7.295  1.00  0.00     0.280 HD
HETATM    6  C   UNL     1      43.069 -12.033   6.407  1.00  0.00     0.237 C 
HETATM    7  C   UNL     1      43.786 -13.371   6.544  1.00  0.00     0.047 C 
HETATM    8  C   UNL     1      43.089 -14.411   7.416  1.00  0.00     0.126 C 
ENDROOT
BRANCH   4   9
HETATM    9  C   UNL     1      40.980 -10.744   5.989  1.00  0.00     0.276 C 
BRANCH   9  10
HETATM   10  C   UNL     1      40.688  -9.877   7.188  1.00  0.00     0.002 A 
HETATM   11  C   UNL     1      39.658 -10.182   8.090  1.00  0.00     0.073 A 
HETATM   12  C   UNL     1      39.413  -9.388   9.209  1.00  0.00     0.038 A 
HETATM   13  C   UNL     1      40.215  -8.272   9.450  1.00  0.00     0.022 A 
HETATM   14  C   UNL     1      41.253  -7.965   8.574  1.00  0.00     0.011 A 
HETATM   15 BR   UNL     1      42.346  -6.460   8.905  1.00  0.00    -0.051 Br
HETATM   16  C   UNL     1      41.496  -8.760   7.452  1.00  0.00     0.030 A 
BRANCH  11  17
HETATM   17  O   UNL     1      38.871 -11.275   7.836  1.00  0.00    -0.360 OA
HETATM   18  H   UNL     1      38.905 -11.446   6.871  1.00  0.00     0.217 HD
ENDBRANCH  11  17
ENDBRANCH   9  10
ENDBRANCH   4   9
BRANCH   1  19
HETATM   19  C   UNL     1      42.536 -16.041   5.667  1.00  0.00     0.147 A 
HETATM   20  N   UNL     1      41.870 -16.122   4.493  1.00  0.00    -0.132 NA
HETATM   21  N   UNL     1      42.261 -16.984   3.497  1.00  0.00    -0.153 NA
HETATM   22  C   UNL     1      43.325 -17.787   3.683  1.00  0.00     0.053 A 
HETATM   23  C   UNL     1      43.694 -18.732   2.584  1.00  0.00     0.072 C 
HETATM   24  C   UNL     1      44.051 -17.733   4.859  1.00  0.00     0.032 A 
HETATM   25  C   UNL     1      43.648 -16.849   5.860  1.00  0.00     0.054 A 
ENDBRANCH   1  19
TORSDOF 4
ENDMDL
