MODEL 1
REMARK VINA RESULT:      -9.1      0.000      0.000
REMARK  7 active torsions:
REMARK  status: ('A' for Active; 'I' for Inactive)
REMARK    1  A    between atoms: C_5  and  C_6 
REMARK       I    between atoms: C_6  and  N_7 
REMARK    2  A    between atoms: N_10  and  C_11 
REMARK    3  A    between atoms: C_14  and  N_15 
REMARK    4  A    between atoms: N_15  and  C_16 
REMARK    5  A    between atoms: C_16  and  N_17 
REMARK       I    between atoms: N_17  and  C_18 
REMARK    6  A    between atoms: C_18  and  C_19 
REMARK    7  A    between atoms: C_22  and  O_23 
ROOT
HETATM    1  C   UNL     1      43.454  -9.976   8.582  1.00  0.00     0.030 A 
HETATM    2  C   UNL     1      42.995  -8.680   8.869  1.00  0.00     0.031 A 
HETATM    3  C   UNL     1      43.019  -8.146  10.169  1.00  0.00     0.032 A 
HETATM    4  C   UNL     1      43.525  -8.888  11.233  1.00  0.00     0.034 A 
HETATM    5  C   UNL     1      43.996 -10.171  10.979  1.00  0.00     0.032 A 
HETATM    6  C   UNL     1      43.945 -10.702   9.681  1.00  0.00     0.031 A 
ENDROOT
BRANCH   4   7
HETATM    7  N   UNL     1      43.433  -8.333  12.533  1.00  0.00    -0.333 N 
HETATM    8  H   UNL     1      43.913  -7.442  12.630  1.00  0.00     0.168 HD
BRANCH   7   9
HETATM    9  C   UNL     1      42.447  -8.544  13.445  1.00  0.00     0.179 C 
HETATM   10  S   UNL     1      42.146  -7.405  14.628  1.00  0.00    -0.040 SA
BRANCH   9  11
HETATM   11  N   UNL     1      41.734  -9.717  13.441  1.00  0.00    -0.299 N 
HETATM   12  C   UNL     1      40.445 -10.021  13.019  1.00  0.00     0.257 C 
HETATM   13  O   UNL     1      39.782 -10.881  13.592  1.00  0.00    -0.267 OA
HETATM   14  H   UNL     1      42.175 -10.475  13.947  1.00  0.00     0.171 HD
BRANCH  12  15
HETATM   15  C   UNL     1      39.894  -9.314  11.831  1.00  0.00     0.032 A 
HETATM   16  C   UNL     1      39.874  -9.920  10.571  1.00  0.00     0.020 A 
HETATM   17  C   UNL     1      39.325  -9.242   9.480  1.00  0.00     0.038 A 
HETATM   18  C   UNL     1      38.774  -7.969   9.637  1.00  0.00     0.068 A 
HETATM   19  C   UNL     1      38.771  -7.374  10.900  1.00  0.00     0.038 A 
HETATM   20  C   UNL     1      39.323  -8.048  11.997  1.00  0.00     0.020 A 
BRANCH  18  21
HETATM   21  O   UNL     1      38.274  -7.423   8.487  1.00  0.00    -0.356 OA
HETATM   22  C   UNL     1      39.174  -7.284   7.395  1.00  0.00     0.210 C 
ENDBRANCH  18  21
ENDBRANCH  12  15
ENDBRANCH   9  11
ENDBRANCH   7   9
ENDBRANCH   4   7
BRANCH   1  23
HETATM   23  N   UNL     1      43.356 -10.564   7.313  1.00  0.00    -0.378 N 
HETATM   24  C   UNL     1      42.196 -10.167   6.476  1.00  0.00     0.143 C 
HETATM   25  C   UNL     1      42.447 -10.509   4.999  1.00  0.00     0.146 C 
HETATM   26  N   UNL     1      42.800 -11.914   4.803  1.00  0.00    -0.345 N 
HETATM   27  C   UNL     1      42.646 -12.410   3.505  1.00  0.00     0.253 C 
HETATM   28  C   UNL     1      43.907 -12.362   5.658  1.00  0.00     0.146 C 
HETATM   29  O   UNL     1      42.312 -11.707   2.553  1.00  0.00    -0.267 OA
HETATM   30  C   UNL     1      43.717 -11.991   7.145  1.00  0.00     0.143 C 
BRANCH  27  31
HETATM   31  C   UNL     1      42.816 -13.865   3.267  1.00  0.00     0.032 A 
HETATM   32  C   UNL     1      42.291 -14.802   4.164  1.00  0.00     0.017 A 
HETATM   33  C   UNL     1      42.370 -16.166   3.872  1.00  0.00     0.007 A 
HETATM   34  C   UNL     1      42.968 -16.604   2.682  1.00  0.00    -0.062 A 
HETATM   35  C   UNL     1      42.983 -18.064   2.334  1.00  0.00     0.048 C 
HETATM   36  C   UNL     1      43.470 -15.658   1.779  1.00  0.00     0.007 A 
HETATM   37  C   UNL     1      43.393 -14.293   2.068  1.00  0.00     0.017 A 
ENDBRANCH  27  31
ENDBRANCH   1  23
TORSDOF 7
ENDMDL
MODEL 2
REMARK VINA RESULT:      -8.9      4.200     10.129
REMARK  7 active torsions:
REMARK  status: ('A' for Active; 'I' for Inactive)
REMARK    1  A    between atoms: C_5  and  C_6 
REMARK       I    between atoms: C_6  and  N_7 
REMARK    2  A    between atoms: N_10  and  C_11 
REMARK    3  A    between atoms: C_14  and  N_15 
REMARK    4  A    between atoms: N_15  and  C_16 
REMARK    5  A    between atoms: C_16  and  N_17 
REMARK       I    between atoms: N_17  and  C_18 
REMARK    6  A    between atoms: C_18  and  C_19 
REMARK    7  A    between atoms: C_22  and  O_23 
ROOT
HETATM    1  C   UNL     1      41.987 -11.153   4.711  1.00  0.00     0.030 A 
HETATM    2  C   UNL     1      40.586 -11.190   4.624  1.00  0.00     0.031 A 
HETATM    3  C   UNL     1      39.915 -11.381   3.404  1.00  0.00     0.032 A 
HETATM    4  C   UNL     1      40.627 -11.565   2.221  1.00  0.00     0.034 A 
HETATM    5  C   UNL     1      42.017 -11.544   2.277  1.00  0.00     0.032 A 
HETATM    6  C   UNL     1      42.675 -11.328   3.498  1.00  0.00     0.031 A 
ENDROOT
BRANCH   4   7
HETATM    7  N   UNL     1      39.896 -11.656   1.012  1.00  0.00    -0.333 N 
HETATM    8  H   UNL     1      39.519 -10.766   0.697  1.00  0.00     0.168 HD
BRANCH   7   9
HETATM    9  C   UNL     1      40.050 -12.582   0.029  1.00  0.00     0.179 C 
HETATM   10  S   UNL     1      40.917 -12.204  -1.345  1.00  0.00    -0.040 SA
BRANCH   9  11
HETATM   11  N   UNL     1      39.444 -13.810   0.129  1.00  0.00    -0.299 N 
HETATM   12  C   UNL     1      39.898 -15.035   0.605  1.00  0.00     0.257 C 
HETATM   13  O   UNL     1      39.507 -16.087   0.107  1.00  0.00    -0.267 OA
HETATM   14  H   UNL     1      38.548 -13.872  -0.337  1.00  0.00     0.171 HD
BRANCH  12  15
HETATM   15  C   UNL     1      40.839 -15.053   1.757  1.00  0.00     0.032 A 
HETATM   16  C   UNL     1      40.371 -15.044   3.075  1.00  0.00     0.020 A 
HETATM   17  C   UNL     1      41.278 -15.090   4.137  1.00  0.00     0.038 A 
HETATM   18  C   UNL     1      42.652 -15.166   3.897  1.00  0.00     0.068 A 
HETATM   19  C   UNL     1      43.117 -15.201   2.581  1.00  0.00     0.038 A 
HETATM   20  C   UNL     1      42.213 -15.152   1.513  1.00  0.00     0.020 A 
BRANCH  18  21
HETATM   21  O   UNL     1      43.422 -15.203   5.027  1.00  0.00    -0.356 OA
HETATM   22  C   UNL     1      43.884 -16.478   5.451  1.00  0.00     0.210 C 
ENDBRANCH  18  21
ENDBRANCH  12  15
ENDBRANCH   9  11
ENDBRANCH   7   9
ENDBRANCH   4   7
BRANCH   1  23
HETATM   23  N   UNL     1      42.677 -10.873   5.898  1.00  0.00    -0.378 N 
HETATM   24  C   UNL     1      43.671 -11.878   6.352  1.00  0.00     0.143 C 
HETATM   25  C   UNL     1      44.648 -11.261   7.366  1.00  0.00     0.146 C 
HETATM   26  N   UNL     1      43.960 -10.633   8.493  1.00  0.00    -0.345 N 
HETATM   27  C   UNL     1      44.732 -10.416   9.638  1.00  0.00     0.253 C 
HETATM   28  C   UNL     1      42.926  -9.673   8.084  1.00  0.00     0.146 C 
HETATM   29  O   UNL     1      45.937 -10.656   9.692  1.00  0.00    -0.267 OA
HETATM   30  C   UNL     1      41.955 -10.239   7.026  1.00  0.00     0.143 C 
BRANCH  27  31
HETATM   31  C   UNL     1      44.063  -9.946  10.876  1.00  0.00     0.032 A 
HETATM   32  C   UNL     1      44.020  -8.584  11.193  1.00  0.00     0.017 A 
HETATM   33  C   UNL     1      43.298  -8.150  12.308  1.00  0.00     0.007 A 
HETATM   34  C   UNL     1      42.609  -9.070  13.110  1.00  0.00    -0.062 A 
HETATM   35  C   UNL     1      41.771  -8.595  14.261  1.00  0.00     0.048 C 
HETATM   36  C   UNL     1      42.638 -10.430  12.772  1.00  0.00     0.007 A 
HETATM   37  C   UNL     1      43.359 -10.867  11.658  1.00  0.00     0.017 A 
ENDBRANCH  27  31
ENDBRANCH   1  23
TORSDOF 7
ENDMDL
MODEL 3
REMARK VINA RESULT:      -8.8      3.235      5.050
REMARK  7 active torsions:
REMARK  status: ('A' for Active; 'I' for Inactive)
REMARK    1  A    between atoms: C_5  and  C_6 
REMARK       I    between atoms: C_6  and  N_7 
REMARK    2  A    between atoms: N_10  and  C_11 
REMARK    3  A    between atoms: C_14  and  N_15 
REMARK    4  A    between atoms: N_15  and  C_16 
REMARK    5  A    between atoms: C_16  and  N_17 
REMARK       I    between atoms: N_17  and  C_18 
REMARK    6  A    between atoms: C_18  and  C_19 
REMARK    7  A    between atoms: C_22  and  O_23 
ROOT
HETATM    1  C   UNL     1      40.790 -11.594   5.900  1.00  0.00     0.030 A 
HETATM    2  C   UNL     1      39.559 -11.441   6.558  1.00  0.00     0.031 A 
HETATM    3  C   UNL     1      38.894 -10.205   6.627  1.00  0.00     0.032 A 
HETATM    4  C   UNL     1      39.430  -9.073   6.018  1.00  0.00     0.034 A 
HETATM    5  C   UNL     1      40.644  -9.195   5.350  1.00  0.00     0.032 A 
HETATM    6  C   UNL     1      41.310 -10.430   5.308  1.00  0.00     0.031 A 
ENDROOT
BRANCH   4   7
HETATM    7  N   UNL     1      38.763  -7.839   6.206  1.00  0.00    -0.333 N 
HETATM    8  H   UNL     1      37.777  -7.868   5.959  1.00  0.00     0.168 HD
BRANCH   7   9
HETATM    9  C   UNL     1      39.095  -6.852   7.080  1.00  0.00     0.179 C 
HETATM   10  S   UNL     1      39.733  -5.417   6.515  1.00  0.00    -0.040 SA
BRANCH   9  11
HETATM   11  N   UNL     1      38.970  -7.049   8.433  1.00  0.00    -0.299 N 
HETATM   12  C   UNL     1      39.747  -7.752   9.347  1.00  0.00     0.257 C 
HETATM   13  O   UNL     1      39.232  -8.311  10.310  1.00  0.00    -0.267 OA
HETATM   14  H   UNL     1      38.091  -6.731   8.821  1.00  0.00     0.171 HD
BRANCH  12  15
HETATM   15  C   UNL     1      41.222  -7.782   9.159  1.00  0.00     0.032 A 
HETATM   16  C   UNL     1      41.874  -8.940   8.722  1.00  0.00     0.020 A 
HETATM   17  C   UNL     1      43.257  -8.931   8.528  1.00  0.00     0.038 A 
HETATM   18  C   UNL     1      43.999  -7.768   8.747  1.00  0.00     0.068 A 
HETATM   19  C   UNL     1      43.345  -6.605   9.159  1.00  0.00     0.038 A 
HETATM   20  C   UNL     1      41.958  -6.610   9.357  1.00  0.00     0.020 A 
BRANCH  18  21
HETATM   21  O   UNL     1      45.341  -7.901   8.520  1.00  0.00    -0.356 OA
HETATM   22  C   UNL     1      45.814  -9.202   8.195  1.00  0.00     0.210 C 
ENDBRANCH  18  21
ENDBRANCH  12  15
ENDBRANCH   9  11
ENDBRANCH   7   9
ENDBRANCH   4   7
BRANCH   1  23
HETATM   23  N   UNL     1      41.517 -12.793   5.895  1.00  0.00    -0.378 N 
HETATM   24  C   UNL     1      42.992 -12.685   6.033  1.00  0.00     0.143 C 
HETATM   25  C   UNL     1      43.599 -14.030   6.465  1.00  0.00     0.146 C 
HETATM   26  N   UNL     1      43.217 -15.126   5.575  1.00  0.00    -0.345 N 
HETATM   27  C   UNL     1      44.020 -16.269   5.632  1.00  0.00     0.253 C 
HETATM   28  C   UNL     1      41.767 -15.229   5.366  1.00  0.00     0.146 C 
HETATM   29  O   UNL     1      44.947 -16.400   6.428  1.00  0.00    -0.267 OA
HETATM   30  C   UNL     1      41.110 -13.885   4.981  1.00  0.00     0.143 C 
BRANCH  27  31
HETATM   31  C   UNL     1      43.801 -17.349   4.639  1.00  0.00     0.032 A 
HETATM   32  C   UNL     1      43.402 -17.049   3.332  1.00  0.00     0.017 A 
HETATM   33  C   UNL     1      43.302 -18.069   2.382  1.00  0.00     0.007 A 
HETATM   34  C   UNL     1      43.602 -19.394   2.728  1.00  0.00    -0.062 A 
HETATM   35  C   UNL     1      43.568 -20.476   1.688  1.00  0.00     0.048 C 
HETATM   36  C   UNL     1      44.023 -19.682   4.033  1.00  0.00     0.007 A 
HETATM   37  C   UNL     1      44.125 -18.664   4.985  1.00  0.00     0.017 A 
ENDBRANCH  27  31
ENDBRANCH   1  23
TORSDOF 7
ENDMDL
MODEL 4
REMARK VINA RESULT:      -8.5      2.333      3.904
REMARK  7 active torsions:
REMARK  status: ('A' for Active; 'I' for Inactive)
REMARK    1  A    between atoms: C_5  and  C_6 
REMARK       I    between atoms: C_6  and  N_7 
REMARK    2  A    between atoms: N_10  and  C_11 
REMARK    3  A    between atoms: C_14  and  N_15 
REMARK    4  A    between atoms: N_15  and  C_16 
REMARK    5  A    between atoms: C_16  and  N_17 
REMARK       I    between atoms: N_17  and  C_18 
REMARK    6  A    between atoms: C_18  and  C_19 
REMARK    7  A    between atoms: C_22  and  O_23 
ROOT
HETATM    1  C   UNL     1      40.168 -10.339   7.151  1.00  0.00     0.030 A 
HETATM    2  C   UNL     1      39.075 -10.765   7.924  1.00  0.00     0.031 A 
HETATM    3  C   UNL     1      38.773 -10.197   9.173  1.00  0.00     0.032 A 
HETATM    4  C   UNL     1      39.548  -9.161   9.690  1.00  0.00     0.034 A 
HETATM    5  C   UNL     1      40.631  -8.711   8.943  1.00  0.00     0.032 A 
HETATM    6  C   UNL     1      40.936  -9.302   7.707  1.00  0.00     0.031 A 
ENDROOT
BRANCH   4   7
HETATM    7  N   UNL     1      39.252  -8.697  10.994  1.00  0.00    -0.333 N 
HETATM    8  H   UNL     1      38.290  -8.386  11.108  1.00  0.00     0.168 HD
BRANCH   7   9
HETATM    9  C   UNL     1      39.866  -9.060  12.152  1.00  0.00     0.179 C 
HETATM   10  S   UNL     1      39.483 -10.512  12.880  1.00  0.00    -0.040 SA
BRANCH   9  11
HETATM   11  N   UNL     1      40.757  -8.212  12.762  1.00  0.00    -0.299 N 
HETATM   12  C   UNL     1      42.124  -8.310  12.993  1.00  0.00     0.257 C 
HETATM   13  O   UNL     1      42.628  -7.820  14.000  1.00  0.00    -0.267 OA
HETATM   14  H   UNL     1      40.328  -7.430  13.241  1.00  0.00     0.171 HD
BRANCH  12  15
HETATM   15  C   UNL     1      42.977  -8.984  11.977  1.00  0.00     0.032 A 
HETATM   16  C   UNL     1      43.582  -8.262  10.944  1.00  0.00     0.020 A 
HETATM   17  C   UNL     1      44.400  -8.918  10.021  1.00  0.00     0.038 A 
HETATM   18  C   UNL     1      44.639 -10.290  10.130  1.00  0.00     0.068 A 
HETATM   19  C   UNL     1      44.055 -11.006  11.177  1.00  0.00     0.038 A 
HETATM   20  C   UNL     1      43.231 -10.354  12.103  1.00  0.00     0.020 A 
BRANCH  18  21
HETATM   21  O   UNL     1      45.456 -10.801   9.160  1.00  0.00    -0.356 OA
HETATM   22  C   UNL     1      45.757  -9.955   8.058  1.00  0.00     0.210 C 
ENDBRANCH  18  21
ENDBRANCH  12  15
ENDBRANCH   9  11
ENDBRANCH   7   9
ENDBRANCH   4   7
BRANCH   1  23
HETATM   23  N   UNL     1      40.544 -10.951   5.947  1.00  0.00    -0.378 N 
HETATM   24  C   UNL     1      39.636 -10.766   4.787  1.00  0.00     0.143 C 
HETATM   25  C   UNL     1      40.363 -11.078   3.469  1.00  0.00     0.146 C 
HETATM   26  N   UNL     1      40.975 -12.406   3.471  1.00  0.00    -0.345 N 
HETATM   27  C   UNL     1      41.292 -12.936   2.217  1.00  0.00     0.253 C 
HETATM   28  C   UNL     1      41.837 -12.650   4.635  1.00  0.00     0.146 C 
HETATM   29  O   UNL     1      41.148 -12.312   1.168  1.00  0.00    -0.267 OA
HETATM   30  C   UNL     1      41.159 -12.298   5.978  1.00  0.00     0.143 C 
BRANCH  27  31
HETATM   31  C   UNL     1      41.753 -14.344   2.129  1.00  0.00     0.032 A 
HETATM   32  C   UNL     1      43.087 -14.643   1.833  1.00  0.00     0.017 A 
HETATM   33  C   UNL     1      43.526 -15.969   1.856  1.00  0.00     0.007 A 
HETATM   34  C   UNL     1      42.640 -17.005   2.178  1.00  0.00    -0.062 A 
HETATM   35  C   UNL     1      43.131 -18.420   2.277  1.00  0.00     0.048 C 
HETATM   36  C   UNL     1      41.311 -16.695   2.496  1.00  0.00     0.007 A 
HETATM   37  C   UNL     1      40.868 -15.370   2.474  1.00  0.00     0.017 A 
ENDBRANCH  27  31
ENDBRANCH   1  23
TORSDOF 7
ENDMDL
MODEL 5
REMARK VINA RESULT:      -8.4      4.165      9.650
REMARK  7 active torsions:
REMARK  status: ('A' for Active; 'I' for Inactive)
REMARK    1  A    between atoms: C_5  and  C_6 
REMARK       I    between atoms: C_6  and  N_7 
REMARK    2  A    between atoms: N_10  and  C_11 
REMARK    3  A    between atoms: C_14  and  N_15 
REMARK    4  A    between atoms: N_15  and  C_16 
REMARK    5  A    between atoms: C_16  and  N_17 
REMARK       I    between atoms: N_17  and  C_18 
REMARK    6  A    between atoms: C_18  and  C_19 
REMARK    7  A    between atoms: C_22  and  O_23 
ROOT
HETATM    1  C   UNL     1      42.704 -10.500   5.098  1.00  0.00     0.030 A 
HETATM    2  C   UNL     1      41.786  -9.631   4.485  1.00  0.00     0.031 A 
HETATM    3  C   UNL     1      41.452  -9.732   3.124  1.00  0.00     0.032 A 
HETATM    4  C   UNL     1      42.012 -10.726   2.325  1.00  0.00     0.034 A 
HETATM    5  C   UNL     1      42.917 -11.607   2.906  1.00  0.00     0.032 A 
HETATM    6  C   UNL     1      43.261 -11.482   4.261  1.00  0.00     0.031 A 
ENDROOT
BRANCH   4   7
HETATM    7  N   UNL     1      41.710 -10.715   0.942  1.00  0.00    -0.333 N 
HETATM    8  H   UNL     1      42.532 -10.701   0.345  1.00  0.00     0.168 HD
BRANCH   7   9
HETATM    9  C   UNL     1      40.589 -11.202   0.345  1.00  0.00     0.179 C 
HETATM   10  S   UNL     1      40.692 -11.936  -1.150  1.00  0.00    -0.040 SA
BRANCH   9  11
HETATM   11  N   UNL     1      39.360 -11.040   0.934  1.00  0.00    -0.299 N 
HETATM   12  C   UNL     1      38.575 -11.895   1.699  1.00  0.00     0.257 C 
HETATM   13  O   UNL     1      37.350 -11.846   1.639  1.00  0.00    -0.267 OA
HETATM   14  H   UNL     1      38.878 -10.191   0.667  1.00  0.00     0.171 HD
BRANCH  12  15
HETATM   15  C   UNL     1      39.245 -12.847   2.625  1.00  0.00     0.032 A 
HETATM   16  C   UNL     1      39.787 -14.050   2.160  1.00  0.00     0.020 A 
HETATM   17  C   UNL     1      40.435 -14.912   3.049  1.00  0.00     0.038 A 
HETATM   18  C   UNL     1      40.569 -14.576   4.397  1.00  0.00     0.068 A 
HETATM   19  C   UNL     1      40.050 -13.363   4.856  1.00  0.00     0.038 A 
HETATM   20  C   UNL     1      39.396 -12.497   3.970  1.00  0.00     0.020 A 
BRANCH  18  21
HETATM   21  O   UNL     1      41.223 -15.510   5.152  1.00  0.00    -0.356 OA
HETATM   22  C   UNL     1      40.856 -15.604   6.522  1.00  0.00     0.210 C 
ENDBRANCH  18  21
ENDBRANCH  12  15
ENDBRANCH   9  11
ENDBRANCH   7   9
ENDBRANCH   4   7
BRANCH   1  23
HETATM   23  N   UNL     1      43.123 -10.363   6.429  1.00  0.00    -0.378 N 
HETATM   24  C   UNL     1      43.713 -11.563   7.075  1.00  0.00     0.143 C 
HETATM   25  C   UNL     1      44.523 -11.170   8.320  1.00  0.00     0.146 C 
HETATM   26  N   UNL     1      43.741 -10.374   9.267  1.00  0.00    -0.345 N 
HETATM   27  C   UNL     1      44.233 -10.319  10.574  1.00  0.00     0.253 C 
HETATM   28  C   UNL     1      43.092  -9.208   8.652  1.00  0.00     0.146 C 
HETATM   29  O   UNL     1      45.297 -10.833  10.913  1.00  0.00    -0.267 OA
HETATM   30  C   UNL     1      42.310  -9.554   7.367  1.00  0.00     0.143 C 
BRANCH  27  31
HETATM   31  C   UNL     1      43.405  -9.680  11.626  1.00  0.00     0.032 A 
HETATM   32  C   UNL     1      42.329 -10.363  12.203  1.00  0.00     0.017 A 
HETATM   33  C   UNL     1      41.625  -9.786  13.264  1.00  0.00     0.007 A 
HETATM   34  C   UNL     1      41.992  -8.527  13.758  1.00  0.00    -0.062 A 
HETATM   35  C   UNL     1      41.285  -7.944  14.946  1.00  0.00     0.048 C 
HETATM   36  C   UNL     1      43.085  -7.860  13.190  1.00  0.00     0.007 A 
HETATM   37  C   UNL     1      43.791  -8.434  12.129  1.00  0.00     0.017 A 
ENDBRANCH  27  31
ENDBRANCH   1  23
TORSDOF 7
ENDMDL
MODEL 6
REMARK VINA RESULT:      -8.3      2.755      4.549
REMARK  7 active torsions:
REMARK  status: ('A' for Active; 'I' for Inactive)
REMARK    1  A    between atoms: C_5  and  C_6 
REMARK       I    between atoms: C_6  and  N_7 
REMARK    2  A    between atoms: N_10  and  C_11 
REMARK    3  A    between atoms: C_14  and  N_15 
REMARK    4  A    between atoms: N_15  and  C_16 
REMARK    5  A    between atoms: C_16  and  N_17 
REMARK       I    between atoms: N_17  and  C_18 
REMARK    6  A    between atoms: C_18  and  C_19 
REMARK    7  A    between atoms: C_22  and  O_23 
ROOT
HETATM    1  C   UNL     1      42.131  -7.232   9.978  1.00  0.00     0.030 A 
HETATM    2  C   UNL     1      40.834  -7.335  10.504  1.00  0.00     0.031 A 
HETATM    3  C   UNL     1      40.271  -6.334  11.315  1.00  0.00     0.032 A 
HETATM    4  C   UNL     1      40.984  -5.176  11.614  1.00  0.00     0.034 A 
HETATM    5  C   UNL     1      42.269  -5.041  11.099  1.00  0.00     0.032 A 
HETATM    6  C   UNL     1      42.829  -6.058  10.310  1.00  0.00     0.031 A 
ENDROOT
BRANCH   4   7
HETATM    7  N   UNL     1      40.402  -4.251  12.513  1.00  0.00    -0.333 N 
HETATM    8  H   UNL     1      39.904  -3.494  12.053  1.00  0.00     0.168 HD
BRANCH   7   9
HETATM    9  C   UNL     1      40.005  -4.490  13.791  1.00  0.00     0.179 C 
HETATM   10  S   UNL     1      38.381  -4.644  14.146  1.00  0.00    -0.040 SA
BRANCH   9  11
HETATM   11  N   UNL     1      40.926  -4.545  14.808  1.00  0.00    -0.299 N 
HETATM   12  C   UNL     1      41.491  -5.614  15.494  1.00  0.00     0.257 C 
HETATM   13  O   UNL     1      41.796  -5.510  16.678  1.00  0.00    -0.267 OA
HETATM   14  H   UNL     1      41.146  -3.647  15.220  1.00  0.00     0.171 HD
BRANCH  12  15
HETATM   15  C   UNL     1      41.760  -6.877  14.756  1.00  0.00     0.032 A 
HETATM   16  C   UNL     1      40.805  -7.897  14.694  1.00  0.00     0.020 A 
HETATM   17  C   UNL     1      41.075  -9.062  13.970  1.00  0.00     0.038 A 
HETATM   18  C   UNL     1      42.283  -9.212  13.287  1.00  0.00     0.068 A 
HETATM   19  C   UNL     1      43.226  -8.182  13.328  1.00  0.00     0.038 A 
HETATM   20  C   UNL     1      42.962  -7.014  14.055  1.00  0.00     0.020 A 
BRANCH  18  21
HETATM   21  O   UNL     1      42.415 -10.400  12.622  1.00  0.00    -0.356 OA
HETATM   22  C   UNL     1      43.512 -10.519  11.726  1.00  0.00     0.210 C 
ENDBRANCH  18  21
ENDBRANCH  12  15
ENDBRANCH   9  11
ENDBRANCH   7   9
ENDBRANCH   4   7
BRANCH   1  23
HETATM   23  N   UNL     1      42.748  -8.255   9.244  1.00  0.00    -0.378 N 
HETATM   24  C   UNL     1      44.098  -7.969   8.695  1.00  0.00     0.143 C 
HETATM   25  C   UNL     1      44.826  -9.273   8.329  1.00  0.00     0.146 C 
HETATM   26  N   UNL     1      44.041 -10.115   7.427  1.00  0.00    -0.345 N 
HETATM   27  C   UNL     1      44.755 -11.091   6.726  1.00  0.00     0.253 C 
HETATM   28  C   UNL     1      42.678 -10.373   7.907  1.00  0.00     0.146 C 
HETATM   29  O   UNL     1      45.954 -11.302   6.899  1.00  0.00    -0.267 OA
HETATM   30  C   UNL     1      41.930  -9.091   8.335  1.00  0.00     0.143 C 
BRANCH  27  31
HETATM   31  C   UNL     1      44.061 -11.865   5.666  1.00  0.00     0.032 A 
HETATM   32  C   UNL     1      44.028 -11.400   4.347  1.00  0.00     0.017 A 
HETATM   33  C   UNL     1      43.461 -12.190   3.344  1.00  0.00     0.007 A 
HETATM   34  C   UNL     1      42.928 -13.450   3.648  1.00  0.00    -0.062 A 
HETATM   35  C   UNL     1      42.389 -14.329   2.557  1.00  0.00     0.048 C 
HETATM   36  C   UNL     1      42.987 -13.918   4.967  1.00  0.00     0.007 A 
HETATM   37  C   UNL     1      43.553 -13.130   5.973  1.00  0.00     0.017 A 
ENDBRANCH  27  31
ENDBRANCH   1  23
TORSDOF 7
ENDMDL
MODEL 7
REMARK VINA RESULT:      -8.3      2.440      4.117
REMARK  7 active torsions:
REMARK  status: ('A' for Active; 'I' for Inactive)
REMARK    1  A    between atoms: C_5  and  C_6 
REMARK       I    between atoms: C_6  and  N_7 
REMARK    2  A    between atoms: N_10  and  C_11 
REMARK    3  A    between atoms: C_14  and  N_15 
REMARK    4  A    between atoms: N_15  and  C_16 
REMARK    5  A    between atoms: C_16  and  N_17 
REMARK       I    between atoms: N_17  and  C_18 
REMARK    6  A    between atoms: C_18  and  C_19 
REMARK    7  A    between atoms: C_22  and  O_23 
ROOT
HETATM    1  C   UNL     1      40.745 -10.195   6.765  1.00  0.00     0.030 A 
HETATM    2  C   UNL     1      39.798 -10.133   7.800  1.00  0.00     0.031 A 
HETATM    3  C   UNL     1      39.843  -9.146   8.799  1.00  0.00     0.032 A 
HETATM    4  C   UNL     1      40.833  -8.167   8.788  1.00  0.00     0.034 A 
HETATM    5  C   UNL     1      41.779  -8.196   7.770  1.00  0.00     0.032 A 
HETATM    6  C   UNL     1      41.738  -9.200   6.791  1.00  0.00     0.031 A 
ENDROOT
BRANCH   4   7
HETATM    7  N   UNL     1      40.882  -7.260   9.875  1.00  0.00    -0.333 N 
HETATM    8  H   UNL     1      40.009  -7.197  10.393  1.00  0.00     0.168 HD
BRANCH   7   9
HETATM    9  C   UNL     1      41.983  -6.886  10.580  1.00  0.00     0.179 C 
HETATM   10  S   UNL     1      42.823  -5.511  10.146  1.00  0.00    -0.040 SA
BRANCH   9  11
HETATM   11  N   UNL     1      42.448  -7.665  11.610  1.00  0.00    -0.299 N 
HETATM   12  C   UNL     1      42.985  -8.947  11.638  1.00  0.00     0.257 C 
HETATM   13  O   UNL     1      42.796  -9.687  12.599  1.00  0.00    -0.267 OA
HETATM   14  H   UNL     1      42.256  -7.294  12.532  1.00  0.00     0.171 HD
BRANCH  12  15
HETATM   15  C   UNL     1      43.829  -9.395  10.498  1.00  0.00     0.032 A 
HETATM   16  C   UNL     1      43.546 -10.579   9.808  1.00  0.00     0.020 A 
HETATM   17  C   UNL     1      44.340 -10.960   8.724  1.00  0.00     0.038 A 
HETATM   18  C   UNL     1      45.405 -10.160   8.304  1.00  0.00     0.068 A 
HETATM   19  C   UNL     1      45.671  -8.965   8.976  1.00  0.00     0.038 A 
HETATM   20  C   UNL     1      44.880  -8.580  10.066  1.00  0.00     0.020 A 
BRANCH  18  21
HETATM   21  O   UNL     1      46.097 -10.654   7.233  1.00  0.00    -0.356 OA
HETATM   22  C   UNL     1      45.416 -11.579   6.396  1.00  0.00     0.210 C 
ENDBRANCH  18  21
ENDBRANCH  12  15
ENDBRANCH   9  11
ENDBRANCH   7   9
ENDBRANCH   4   7
BRANCH   1  23
HETATM   23  N   UNL     1      40.776 -11.221   5.810  1.00  0.00    -0.378 N 
HETATM   24  C   UNL     1      39.490 -11.903   5.514  1.00  0.00     0.143 C 
HETATM   25  C   UNL     1      39.566 -12.654   4.175  1.00  0.00     0.146 C 
HETATM   26  N   UNL     1      40.697 -13.581   4.118  1.00  0.00    -0.345 N 
HETATM   27  C   UNL     1      40.620 -14.581   3.145  1.00  0.00     0.253 C 
HETATM   28  C   UNL     1      41.981 -12.956   4.462  1.00  0.00     0.146 C 
HETATM   29  O   UNL     1      39.708 -14.651   2.324  1.00  0.00    -0.267 OA
HETATM   30  C   UNL     1      41.931 -12.147   5.777  1.00  0.00     0.143 C 
BRANCH  27  31
HETATM   31  C   UNL     1      41.641 -15.658   3.142  1.00  0.00     0.032 A 
HETATM   32  C   UNL     1      41.842 -16.456   4.273  1.00  0.00     0.017 A 
HETATM   33  C   UNL     1      42.733 -17.531   4.218  1.00  0.00     0.007 A 
HETATM   34  C   UNL     1      43.424 -17.821   3.034  1.00  0.00    -0.062 A 
HETATM   35  C   UNL     1      44.322 -19.021   2.954  1.00  0.00     0.048 C 
HETATM   36  C   UNL     1      43.199 -17.031   1.899  1.00  0.00     0.007 A 
HETATM   37  C   UNL     1      42.309 -15.955   1.950  1.00  0.00     0.017 A 
ENDBRANCH  27  31
ENDBRANCH   1  23
TORSDOF 7
ENDMDL
MODEL 8
REMARK VINA RESULT:      -8.2      2.869      4.726
REMARK  7 active torsions:
REMARK  status: ('A' for Active; 'I' for Inactive)
REMARK    1  A    between atoms: C_5  and  C_6 
REMARK       I    between atoms: C_6  and  N_7 
REMARK    2  A    between atoms: N_10  and  C_11 
REMARK    3  A    between atoms: C_14  and  N_15 
REMARK    4  A    between atoms: N_15  and  C_16 
REMARK    5  A    between atoms: C_16  and  N_17 
REMARK       I    between atoms: N_17  and  C_18 
REMARK    6  A    between atoms: C_18  and  C_19 
REMARK    7  A    between atoms: C_22  and  O_23 
ROOT
HETATM    1  C   UNL     1      40.786 -10.966   5.779  1.00  0.00     0.030 A 
HETATM    2  C   UNL     1      41.580 -10.476   6.829  1.00  0.00     0.031 A 
HETATM    3  C   UNL     1      41.267  -9.290   7.515  1.00  0.00     0.032 A 
HETATM    4  C   UNL     1      40.130  -8.556   7.186  1.00  0.00     0.034 A 
HETATM    5  C   UNL     1      39.319  -9.021   6.157  1.00  0.00     0.032 A 
HETATM    6  C   UNL     1      39.654 -10.195   5.464  1.00  0.00     0.031 A 
ENDROOT
BRANCH   4   7
HETATM    7  N   UNL     1      39.923  -7.321   7.847  1.00  0.00    -0.333 N 
HETATM    8  H   UNL     1      39.273  -6.706   7.366  1.00  0.00     0.168 HD
BRANCH   7   9
HETATM    9  C   UNL     1      40.053  -7.072   9.177  1.00  0.00     0.179 C 
HETATM   10  S   UNL     1      39.057  -7.843  10.273  1.00  0.00    -0.040 SA
BRANCH   9  11
HETATM   11  N   UNL     1      40.959  -6.143   9.626  1.00  0.00    -0.299 N 
HETATM   12  C   UNL     1      42.163  -6.271  10.309  1.00  0.00     0.257 C 
HETATM   13  O   UNL     1      42.521  -5.419  11.117  1.00  0.00    -0.267 OA
HETATM   14  H   UNL     1      40.640  -5.184   9.559  1.00  0.00     0.171 HD
BRANCH  12  15
HETATM   15  C   UNL     1      43.032  -7.442  10.015  1.00  0.00     0.032 A 
HETATM   16  C   UNL     1      43.913  -7.435   8.928  1.00  0.00     0.020 A 
HETATM   17  C   UNL     1      44.738  -8.538   8.693  1.00  0.00     0.038 A 
HETATM   18  C   UNL     1      44.709  -9.644   9.545  1.00  0.00     0.068 A 
HETATM   19  C   UNL     1      43.849  -9.639  10.645  1.00  0.00     0.038 A 
HETATM   20  C   UNL     1      43.017  -8.537  10.884  1.00  0.00     0.020 A 
BRANCH  18  21
HETATM   21  O   UNL     1      45.566 -10.651   9.196  1.00  0.00    -0.356 OA
HETATM   22  C   UNL     1      45.985 -10.699   7.839  1.00  0.00     0.210 C 
ENDBRANCH  18  21
ENDBRANCH  12  15
ENDBRANCH   9  11
ENDBRANCH   7   9
ENDBRANCH   4   7
BRANCH   1  23
HETATM   23  N   UNL     1      41.124 -12.095   5.020  1.00  0.00    -0.378 N 
HETATM   24  C   UNL     1      40.034 -12.732   4.239  1.00  0.00     0.143 C 
HETATM   25  C   UNL     1      40.608 -13.634   3.135  1.00  0.00     0.146 C 
HETATM   26  N   UNL     1      41.551 -14.624   3.657  1.00  0.00    -0.345 N 
HETATM   27  C   UNL     1      41.804 -15.723   2.832  1.00  0.00     0.253 C 
HETATM   28  C   UNL     1      42.613 -14.038   4.485  1.00  0.00     0.146 C 
HETATM   29  O   UNL     1      41.338 -15.835   1.699  1.00  0.00    -0.267 OA
HETATM   30  C   UNL     1      42.079 -13.083   5.575  1.00  0.00     0.143 C 
BRANCH  27  31
HETATM   31  C   UNL     1      42.609 -16.850   3.364  1.00  0.00     0.032 A 
HETATM   32  C   UNL     1      42.779 -17.018   4.742  1.00  0.00     0.017 A 
HETATM   33  C   UNL     1      43.453 -18.142   5.230  1.00  0.00     0.007 A 
HETATM   34  C   UNL     1      43.956 -19.106   4.346  1.00  0.00    -0.062 A 
HETATM   35  C   UNL     1      44.611 -20.350   4.874  1.00  0.00     0.048 C 
HETATM   36  C   UNL     1      43.760 -18.942   2.969  1.00  0.00     0.007 A 
HETATM   37  C   UNL     1      43.088 -17.820   2.478  1.00  0.00     0.017 A 
ENDBRANCH  27  31
ENDBRANCH   1  23
TORSDOF 7
ENDMDL
MODEL 9
REMARK VINA RESULT:      -8.2      3.952      9.752
REMARK  7 active torsions:
REMARK  status: ('A' for Active; 'I' for Inactive)
REMARK    1  A    between atoms: C_5  and  C_6 
REMARK       I    between atoms: C_6  and  N_7 
REMARK    2  A    between atoms: N_10  and  C_11 
REMARK    3  A    between atoms: C_14  and  N_15 
REMARK    4  A    between atoms: N_15  and  C_16 
REMARK    5  A    between atoms: C_16  and  N_17 
REMARK       I    between atoms: N_17  and  C_18 
REMARK    6  A    between atoms: C_18  and  C_19 
REMARK    7  A    between atoms: C_22  and  O_23 
ROOT
HETATM    1  C   UNL     1      40.127 -10.737   5.414  1.00  0.00     0.030 A 
HETATM    2  C   UNL     1      39.992 -10.531   4.032  1.00  0.00     0.031 A 
HETATM    3  C   UNL     1      39.612 -11.561   3.154  1.00  0.00     0.032 A 
HETATM    4  C   UNL     1      39.333 -12.838   3.634  1.00  0.00     0.034 A 
HETATM    5  C   UNL     1      39.449 -13.070   5.000  1.00  0.00     0.032 A 
HETATM    6  C   UNL     1      39.852 -12.039   5.863  1.00  0.00     0.031 A 
ENDROOT
BRANCH   4   7
HETATM    7  N   UNL     1      39.051 -13.855   2.690  1.00  0.00    -0.333 N 
HETATM    8  H   UNL     1      38.168 -13.726   2.204  1.00  0.00     0.168 HD
BRANCH   7   9
HETATM    9  C   UNL     1      39.950 -14.630   2.028  1.00  0.00     0.179 C 
HETATM   10  S   UNL     1      40.211 -14.397   0.396  1.00  0.00    -0.040 SA
BRANCH   9  11
HETATM   11  N   UNL     1      40.604 -15.648   2.677  1.00  0.00    -0.299 N 
HETATM   12  C   UNL     1      41.905 -15.763   3.153  1.00  0.00     0.257 C 
HETATM   13  O   UNL     1      42.482 -16.847   3.151  1.00  0.00    -0.267 OA
HETATM   14  H   UNL     1      40.091 -16.520   2.709  1.00  0.00     0.171 HD
BRANCH  12  15
HETATM   15  C   UNL     1      42.576 -14.555   3.704  1.00  0.00     0.032 A 
HETATM   16  C   UNL     1      42.972 -13.503   2.873  1.00  0.00     0.020 A 
HETATM   17  C   UNL     1      43.575 -12.368   3.422  1.00  0.00     0.038 A 
HETATM   18  C   UNL     1      43.769 -12.263   4.801  1.00  0.00     0.068 A 
HETATM   19  C   UNL     1      43.351 -13.303   5.634  1.00  0.00     0.038 A 
HETATM   20  C   UNL     1      42.749 -14.444   5.087  1.00  0.00     0.020 A 
BRANCH  18  21
HETATM   21  O   UNL     1      44.371 -11.102   5.201  1.00  0.00    -0.356 OA
HETATM   22  C   UNL     1      45.368 -11.206   6.209  1.00  0.00     0.210 C 
ENDBRANCH  18  21
ENDBRANCH  12  15
ENDBRANCH   9  11
ENDBRANCH   7   9
ENDBRANCH   4   7
BRANCH   1  23
HETATM   23  N   UNL     1      40.592  -9.752   6.297  1.00  0.00    -0.378 N 
HETATM   24  C   UNL     1      41.881  -9.097   5.955  1.00  0.00     0.143 C 
HETATM   25  C   UNL     1      42.038  -7.771   6.716  1.00  0.00     0.146 C 
HETATM   26  N   UNL     1      41.880  -7.935   8.161  1.00  0.00    -0.345 N 
HETATM   27  C   UNL     1      42.398  -6.907   8.954  1.00  0.00     0.253 C 
HETATM   28  C   UNL     1      40.644  -8.632   8.538  1.00  0.00     0.146 C 
HETATM   29  O   UNL     1      42.889  -5.881   8.488  1.00  0.00    -0.267 OA
HETATM   30  C   UNL     1      40.423  -9.945   7.756  1.00  0.00     0.143 C 
BRANCH  27  31
HETATM   31  C   UNL     1      42.432  -7.085  10.427  1.00  0.00     0.032 A 
HETATM   32  C   UNL     1      43.179  -8.117  11.006  1.00  0.00     0.017 A 
HETATM   33  C   UNL     1      43.283  -8.206  12.396  1.00  0.00     0.007 A 
HETATM   34  C   UNL     1      42.648  -7.265  13.218  1.00  0.00    -0.062 A 
HETATM   35  C   UNL     1      42.824  -7.318  14.708  1.00  0.00     0.048 C 
HETATM   36  C   UNL     1      41.922  -6.222  12.630  1.00  0.00     0.007 A 
HETATM   37  C   UNL     1      41.815  -6.129  11.240  1.00  0.00     0.017 A 
ENDBRANCH  27  31
ENDBRANCH   1  23
TORSDOF 7
ENDMDL
MODEL 10
REMARK VINA RESULT:      -8.1      2.543      3.816
REMARK  7 active torsions:
REMARK  status: ('A' for Active; 'I' for Inactive)
REMARK    1  A    between atoms: C_5  and  C_6 
REMARK       I    between atoms: C_6  and  N_7 
REMARK    2  A    between atoms: N_10  and  C_11 
REMARK    3  A    between atoms: C_14  and  N_15 
REMARK    4  A    between atoms: N_15  and  C_16 
REMARK    5  A    between atoms: C_16  and  N_17 
REMARK       I    between atoms: N_17  and  C_18 
REMARK    6  A    between atoms: C_18  and  C_19 
REMARK    7  A    between atoms: C_22  and  O_23 
ROOT
HETATM    1  C   UNL     1      43.241  -7.914  11.086  1.00  0.00     0.030 A 
HETATM    2  C   UNL     1      43.360  -8.141  12.467  1.00  0.00     0.031 A 
HETATM    3  C   UNL     1      42.934  -7.201  13.421  1.00  0.00     0.032 A 
HETATM    4  C   UNL     1      42.352  -5.999  13.025  1.00  0.00     0.034 A 
HETATM    5  C   UNL     1      42.213  -5.749  11.664  1.00  0.00     0.032 A 
HETATM    6  C   UNL     1      42.663  -6.686  10.721  1.00  0.00     0.031 A 
ENDROOT
BRANCH   4   7
HETATM    7  N   UNL     1      42.034  -5.053  14.030  1.00  0.00    -0.333 N 
HETATM    8  H   UNL     1      42.816  -4.461  14.295  1.00  0.00     0.168 HD
BRANCH   7   9
HETATM    9  C   UNL     1      40.811  -4.522  14.296  1.00  0.00     0.179 C 
HETATM   10  S   UNL     1      40.479  -2.940  13.879  1.00  0.00    -0.040 SA
BRANCH   9  11
HETATM   11  N   UNL     1      39.862  -5.257  14.963  1.00  0.00    -0.299 N 
HETATM   12  C   UNL     1      38.783  -6.009  14.513  1.00  0.00     0.257 C 
HETATM   13  O   UNL     1      37.754  -6.091  15.177  1.00  0.00    -0.267 OA
HETATM   14  H   UNL     1      39.871  -5.135  15.967  1.00  0.00     0.171 HD
BRANCH  12  15
HETATM   15  C   UNL     1      38.911  -6.749  13.229  1.00  0.00     0.032 A 
HETATM   16  C   UNL     1      38.587  -6.146  12.009  1.00  0.00     0.020 A 
HETATM   17  C   UNL     1      38.743  -6.857  10.817  1.00  0.00     0.038 A 
HETATM   18  C   UNL     1      39.241  -8.161  10.825  1.00  0.00     0.068 A 
HETATM   19  C   UNL     1      39.588  -8.755  12.041  1.00  0.00     0.038 A 
HETATM   20  C   UNL     1      39.430  -8.047  13.240  1.00  0.00     0.020 A 
BRANCH  18  21
HETATM   21  O   UNL     1      39.340  -8.738   9.589  1.00  0.00    -0.356 OA
HETATM   22  C   UNL     1      39.393  -7.861   8.471  1.00  0.00     0.210 C 
ENDBRANCH  18  21
ENDBRANCH  12  15
ENDBRANCH   9  11
ENDBRANCH   7   9
ENDBRANCH   4   7
BRANCH   1  23
HETATM   23  N   UNL     1      43.741  -8.794  10.116  1.00  0.00    -0.378 N 
HETATM   24  C   UNL     1      44.720  -8.240   9.147  1.00  0.00     0.143 C 
HETATM   25  C   UNL     1      45.508  -9.368   8.461  1.00  0.00     0.146 C 
HETATM   26  N   UNL     1      44.633 -10.361   7.839  1.00  0.00    -0.345 N 
HETATM   27  C   UNL     1      45.223 -11.175   6.868  1.00  0.00     0.253 C 
HETATM   28  C   UNL     1      43.610 -10.891   8.751  1.00  0.00     0.146 C 
HETATM   29  O   UNL     1      46.420 -11.132   6.593  1.00  0.00    -0.267 OA
HETATM   30  C   UNL     1      42.831  -9.787   9.499  1.00  0.00     0.143 C 
BRANCH  27  31
HETATM   31  C   UNL     1      44.360 -12.083   6.072  1.00  0.00     0.032 A 
HETATM   32  C   UNL     1      44.111 -13.391   6.500  1.00  0.00     0.017 A 
HETATM   33  C   UNL     1      43.215 -14.197   5.794  1.00  0.00     0.007 A 
HETATM   34  C   UNL     1      42.558 -13.703   4.659  1.00  0.00    -0.062 A 
HETATM   35  C   UNL     1      41.539 -14.544   3.947  1.00  0.00     0.048 C 
HETATM   36  C   UNL     1      42.796 -12.384   4.250  1.00  0.00     0.007 A 
HETATM   37  C   UNL     1      43.691 -11.575   4.954  1.00  0.00     0.017 A 
ENDBRANCH  27  31
ENDBRANCH   1  23
TORSDOF 7
ENDMDL
