MODEL 1
REMARK VINA RESULT:      -8.9      0.000      0.000
REMARK  6 active torsions:
REMARK  status: ('A' for Active; 'I' for Inactive)
REMARK    1  A    between atoms: C_7  and  S_8 
REMARK    2  A    between atoms: S_8  and  C_9 
REMARK    3  A    between atoms: C_9  and  C_10 
REMARK    4  A    between atoms: C_18  and  C_19 
REMARK    5  A    between atoms: C_26  and  C_27 
REMARK    6  A    between atoms: C_27  and  O_28 
ROOT
HETATM    1  C   UNL     1      39.167 -11.404   4.016  1.00  0.00     0.070 C 
HETATM    2  C   UNL     1      40.403 -12.065   4.569  1.00  0.00     0.037 C 
HETATM    3  N   UNL     1      40.190 -13.249   5.270  1.00  0.00    -0.192 N 
HETATM    4  C   UNL     1      41.186 -14.093   5.602  1.00  0.00     0.726 A 
HETATM    5  N   UNL     1      42.484 -13.698   5.432  1.00  0.00    -0.082 N 
HETATM    6  N   UNL     1      43.343 -14.700   5.719  1.00  0.00    -0.128 NA
HETATM    7  C   UNL     1      42.489 -15.663   6.089  1.00  0.00     0.226 A 
HETATM    8  N   UNL     1      41.159 -15.321   6.042  1.00  0.00    -0.035 NA
HETATM    9  C   UNL     1      42.877 -12.386   4.907  1.00  0.00     0.203 C 
HETATM   10  C   UNL     1      41.671 -11.622   4.371  1.00  0.00     0.070 C 
HETATM   11  H   UNL     1      39.236 -13.601   5.315  1.00  0.00     0.184 HD
ENDROOT
BRANCH   7  12
HETATM   12  S   UNL     1      42.989 -17.269   6.536  1.00  0.00    -0.083 SA
BRANCH  12  13
HETATM   13  C   UNL     1      44.403 -17.526   5.431  1.00  0.00     0.123 C 
BRANCH  13  14
HETATM   14  C   UNL     1      44.066 -18.527   4.349  1.00  0.00    -0.027 A 
HETATM   15  C   UNL     1      43.565 -18.155   3.091  1.00  0.00     0.041 A 
HETATM   16 CL   UNL     1      43.319 -16.501   2.653  1.00  0.00    -0.084 Cl
HETATM   17  C   UNL     1      43.237 -19.127   2.140  1.00  0.00     0.024 A 
HETATM   18  C   UNL     1      43.395 -20.480   2.431  1.00  0.00     0.002 A 
HETATM   19  C   UNL     1      43.884 -20.867   3.675  1.00  0.00     0.001 A 
HETATM   20  C   UNL     1      44.216 -19.900   4.626  1.00  0.00     0.009 A 
ENDBRANCH  13  14
ENDBRANCH  12  13
ENDBRANCH   7  12
BRANCH   9  21
HETATM   21  C   UNL     1      43.625 -11.591   5.979  1.00  0.00    -0.028 A 
HETATM   22  C   UNL     1      42.903 -10.912   6.975  1.00  0.00     0.011 A 
HETATM   23  C   UNL     1      43.567 -10.203   7.979  1.00  0.00     0.024 A 
HETATM   24  C   UNL     1      44.959 -10.169   8.000  1.00  0.00     0.034 A 
HETATM   25 CL   UNL     1      45.775  -9.299   9.239  1.00  0.00    -0.084 Cl
HETATM   26  C   UNL     1      45.693 -10.840   7.026  1.00  0.00     0.024 A 
HETATM   27  C   UNL     1      45.032 -11.551   6.022  1.00  0.00     0.011 A 
ENDBRANCH   9  21
BRANCH  10  28
HETATM   28  C   UNL     1      42.038 -10.425   3.585  1.00  0.00     0.293 C 
HETATM   29  O   UNL     1      41.875  -9.289   4.003  1.00  0.00    -0.259 OA
BRANCH  28  30
HETATM   30  O   UNL     1      42.497 -10.764   2.357  1.00  0.00    -0.323 OA
HETATM   31  C   UNL     1      41.645 -10.356   1.285  1.00  0.00     0.213 C 
ENDBRANCH  28  30
ENDBRANCH  10  28
TORSDOF 6
ENDMDL
MODEL 2
REMARK VINA RESULT:      -8.8      1.016      1.338
REMARK  6 active torsions:
REMARK  status: ('A' for Active; 'I' for Inactive)
REMARK    1  A    between atoms: C_7  and  S_8 
REMARK    2  A    between atoms: S_8  and  C_9 
REMARK    3  A    between atoms: C_9  and  C_10 
REMARK    4  A    between atoms: C_18  and  C_19 
REMARK    5  A    between atoms: C_26  and  C_27 
REMARK    6  A    between atoms: C_27  and  O_28 
ROOT
HETATM    1  C   UNL     1      39.126 -11.558   3.890  1.00  0.00     0.070 C 
HETATM    2  C   UNL     1      40.355 -12.208   4.473  1.00  0.00     0.037 C 
HETATM    3  N   UNL     1      40.135 -13.387   5.180  1.00  0.00    -0.192 N 
HETATM    4  C   UNL     1      41.128 -14.222   5.540  1.00  0.00     0.726 A 
HETATM    5  N   UNL     1      42.427 -13.822   5.392  1.00  0.00    -0.082 N 
HETATM    6  N   UNL     1      43.286 -14.816   5.704  1.00  0.00    -0.128 NA
HETATM    7  C   UNL     1      42.430 -15.781   6.066  1.00  0.00     0.226 A 
HETATM    8  N   UNL     1      41.099 -15.447   5.990  1.00  0.00    -0.035 NA
HETATM    9  C   UNL     1      42.823 -12.512   4.862  1.00  0.00     0.203 C 
HETATM   10  C   UNL     1      41.624 -11.759   4.296  1.00  0.00     0.070 C 
HETATM   11  H   UNL     1      39.181 -13.743   5.211  1.00  0.00     0.184 HD
ENDROOT
BRANCH   7  12
HETATM   12  S   UNL     1      42.929 -17.379   6.538  1.00  0.00    -0.083 SA
BRANCH  12  13
HETATM   13  C   UNL     1      44.334 -17.659   5.426  1.00  0.00     0.123 C 
BRANCH  13  14
HETATM   14  C   UNL     1      43.922 -18.500   4.238  1.00  0.00    -0.027 A 
HETATM   15  C   UNL     1      44.004 -19.902   4.228  1.00  0.00     0.041 A 
HETATM   16 CL   UNL     1      44.554 -20.800   5.598  1.00  0.00    -0.084 Cl
HETATM   17  C   UNL     1      43.643 -20.627   3.087  1.00  0.00     0.024 A 
HETATM   18  C   UNL     1      43.204 -19.967   1.941  1.00  0.00     0.002 A 
HETATM   19  C   UNL     1      43.124 -18.577   1.931  1.00  0.00     0.001 A 
HETATM   20  C   UNL     1      43.480 -17.850   3.069  1.00  0.00     0.009 A 
ENDBRANCH  13  14
ENDBRANCH  12  13
ENDBRANCH   7  12
BRANCH   9  21
HETATM   21  C   UNL     1      43.546 -11.704   5.941  1.00  0.00    -0.028 A 
HETATM   22  C   UNL     1      42.801 -11.036   6.929  1.00  0.00     0.011 A 
HETATM   23  C   UNL     1      43.442 -10.315   7.939  1.00  0.00     0.024 A 
HETATM   24  C   UNL     1      44.833 -10.257   7.975  1.00  0.00     0.034 A 
HETATM   25 CL   UNL     1      45.621  -9.372   9.221  1.00  0.00    -0.084 Cl
HETATM   26  C   UNL     1      45.589 -10.915   7.010  1.00  0.00     0.024 A 
HETATM   27  C   UNL     1      44.951 -11.639   6.000  1.00  0.00     0.011 A 
ENDBRANCH   9  21
BRANCH  10  28
HETATM   28  C   UNL     1      41.999 -10.568   3.506  1.00  0.00     0.293 C 
HETATM   29  O   UNL     1      41.818  -9.429   3.908  1.00  0.00    -0.259 OA
BRANCH  28  30
HETATM   30  O   UNL     1      42.490 -10.915   2.293  1.00  0.00    -0.323 OA
HETATM   31  C   UNL     1      41.694 -10.469   1.194  1.00  0.00     0.213 C 
ENDBRANCH  28  30
ENDBRANCH  10  28
TORSDOF 6
ENDMDL
MODEL 3
REMARK VINA RESULT:      -8.6      4.781      5.957
REMARK  6 active torsions:
REMARK  status: ('A' for Active; 'I' for Inactive)
REMARK    1  A    between atoms: C_7  and  S_8 
REMARK    2  A    between atoms: S_8  and  C_9 
REMARK    3  A    between atoms: C_9  and  C_10 
REMARK    4  A    between atoms: C_18  and  C_19 
REMARK    5  A    between atoms: C_26  and  C_27 
REMARK    6  A    between atoms: C_27  and  O_28 
ROOT
HETATM    1  C   UNL     1      38.549 -14.636  -3.212  1.00  0.00     0.070 C 
HETATM    2  C   UNL     1      39.222 -14.219  -1.930  1.00  0.00     0.037 C 
HETATM    3  N   UNL     1      39.107 -15.115  -0.871  1.00  0.00    -0.192 N 
HETATM    4  C   UNL     1      39.852 -15.026   0.248  1.00  0.00     0.726 A 
HETATM    5  N   UNL     1      40.613 -13.911   0.461  1.00  0.00    -0.082 N 
HETATM    6  N   UNL     1      41.368 -14.036   1.573  1.00  0.00    -0.128 NA
HETATM    7  C   UNL     1      40.983 -15.245   2.001  1.00  0.00     0.226 A 
HETATM    8  N   UNL     1      40.044 -15.876   1.220  1.00  0.00    -0.035 NA
HETATM    9  C   UNL     1      40.671 -12.773  -0.464  1.00  0.00     0.203 C 
HETATM   10  C   UNL     1      39.964 -13.092  -1.777  1.00  0.00     0.070 C 
HETATM   11  H   UNL     1      38.625 -15.993  -1.051  1.00  0.00     0.184 HD
ENDROOT
BRANCH   7  12
HETATM   12  S   UNL     1      41.653 -16.024   3.405  1.00  0.00    -0.083 SA
BRANCH  12  13
HETATM   13  C   UNL     1      43.244 -16.611   2.765  1.00  0.00     0.123 C 
BRANCH  13  14
HETATM   14  C   UNL     1      43.461 -18.067   3.112  1.00  0.00    -0.027 A 
HETATM   15  C   UNL     1      43.947 -18.493   4.359  1.00  0.00     0.041 A 
HETATM   16 CL   UNL     1      44.309 -17.381   5.632  1.00  0.00    -0.084 Cl
HETATM   17  C   UNL     1      44.162 -19.852   4.612  1.00  0.00     0.024 A 
HETATM   18  C   UNL     1      43.906 -20.803   3.626  1.00  0.00     0.002 A 
HETATM   19  C   UNL     1      43.431 -20.397   2.382  1.00  0.00     0.001 A 
HETATM   20  C   UNL     1      43.211 -19.042   2.126  1.00  0.00     0.009 A 
ENDBRANCH  13  14
ENDBRANCH  12  13
ENDBRANCH   7  12
BRANCH   9  21
HETATM   21  C   UNL     1      40.099 -11.521   0.203  1.00  0.00    -0.028 A 
HETATM   22  C   UNL     1      38.752 -11.498   0.604  1.00  0.00     0.011 A 
HETATM   23  C   UNL     1      38.216 -10.376   1.239  1.00  0.00     0.024 A 
HETATM   24  C   UNL     1      39.022  -9.267   1.484  1.00  0.00     0.034 A 
HETATM   25 CL   UNL     1      38.362  -7.887   2.271  1.00  0.00    -0.084 Cl
HETATM   26  C   UNL     1      40.360  -9.271   1.101  1.00  0.00     0.024 A 
HETATM   27  C   UNL     1      40.899 -10.393   0.468  1.00  0.00     0.011 A 
ENDBRANCH   9  21
BRANCH  10  28
HETATM   28  C   UNL     1      40.227 -12.099  -2.840  1.00  0.00     0.293 C 
HETATM   29  O   UNL     1      41.306 -12.013  -3.406  1.00  0.00    -0.259 OA
BRANCH  28  30
HETATM   30  O   UNL     1      39.158 -11.291  -3.035  1.00  0.00    -0.323 OA
HETATM   31  C   UNL     1      39.492  -9.907  -3.161  1.00  0.00     0.213 C 
ENDBRANCH  28  30
ENDBRANCH  10  28
TORSDOF 6
ENDMDL
MODEL 4
REMARK VINA RESULT:      -8.1      2.470      4.258
REMARK  6 active torsions:
REMARK  status: ('A' for Active; 'I' for Inactive)
REMARK    1  A    between atoms: C_7  and  S_8 
REMARK    2  A    between atoms: S_8  and  C_9 
REMARK    3  A    between atoms: C_9  and  C_10 
REMARK    4  A    between atoms: C_18  and  C_19 
REMARK    5  A    between atoms: C_26  and  C_27 
REMARK    6  A    between atoms: C_27  and  O_28 
ROOT
HETATM    1  C   UNL     1      42.182  -9.786   7.118  1.00  0.00     0.070 C 
HETATM    2  C   UNL     1      41.920 -11.127   6.481  1.00  0.00     0.037 C 
HETATM    3  N   UNL     1      42.890 -12.100   6.707  1.00  0.00    -0.192 N 
HETATM    4  C   UNL     1      42.695 -13.405   6.436  1.00  0.00     0.726 A 
HETATM    5  N   UNL     1      41.588 -13.786   5.729  1.00  0.00    -0.082 N 
HETATM    6  N   UNL     1      41.502 -15.130   5.639  1.00  0.00    -0.128 NA
HETATM    7  C   UNL     1      42.614 -15.496   6.290  1.00  0.00     0.226 A 
HETATM    8  N   UNL     1      43.376 -14.464   6.781  1.00  0.00    -0.035 NA
HETATM    9  C   UNL     1      40.578 -12.848   5.226  1.00  0.00     0.203 C 
HETATM   10  C   UNL     1      40.800 -11.446   5.782  1.00  0.00     0.070 C 
HETATM   11  H   UNL     1      43.668 -11.853   7.315  1.00  0.00     0.184 HD
ENDROOT
BRANCH   7  12
HETATM   12  S   UNL     1      43.057 -17.155   6.573  1.00  0.00    -0.083 SA
BRANCH  12  13
HETATM   13  C   UNL     1      44.423 -17.367   5.400  1.00  0.00     0.123 C 
BRANCH  13  14
HETATM   14  C   UNL     1      44.052 -18.350   4.313  1.00  0.00    -0.027 A 
HETATM   15  C   UNL     1      43.488 -17.958   3.088  1.00  0.00     0.041 A 
HETATM   16 CL   UNL     1      43.199 -16.300   2.698  1.00  0.00    -0.084 Cl
HETATM   17  C   UNL     1      43.131 -18.915   2.131  1.00  0.00     0.024 A 
HETATM   18  C   UNL     1      43.323 -20.272   2.384  1.00  0.00     0.002 A 
HETATM   19  C   UNL     1      43.874 -20.677   3.596  1.00  0.00     0.001 A 
HETATM   20  C   UNL     1      44.235 -19.726   4.553  1.00  0.00     0.009 A 
ENDBRANCH  13  14
ENDBRANCH  12  13
ENDBRANCH   7  12
BRANCH   9  21
HETATM   21  C   UNL     1      40.563 -12.859   3.697  1.00  0.00    -0.028 A 
HETATM   22  C   UNL     1      41.764 -12.694   2.986  1.00  0.00     0.011 A 
HETATM   23  C   UNL     1      41.778 -12.729   1.590  1.00  0.00     0.024 A 
HETATM   24  C   UNL     1      40.591 -12.932   0.890  1.00  0.00     0.034 A 
HETATM   25 CL   UNL     1      40.609 -12.978  -0.829  1.00  0.00    -0.084 Cl
HETATM   26  C   UNL     1      39.391 -13.103   1.574  1.00  0.00     0.024 A 
HETATM   27  C   UNL     1      39.375 -13.072   2.970  1.00  0.00     0.011 A 
ENDBRANCH   9  21
BRANCH  10  28
HETATM   28  C   UNL     1      39.665 -10.531   5.537  1.00  0.00     0.293 C 
HETATM   29  O   UNL     1      38.591 -10.649   6.108  1.00  0.00    -0.259 OA
BRANCH  28  30
HETATM   30  O   UNL     1      39.961  -9.625   4.576  1.00  0.00    -0.323 OA
HETATM   31  C   UNL     1      38.880  -8.751   4.248  1.00  0.00     0.213 C 
ENDBRANCH  28  30
ENDBRANCH  10  28
TORSDOF 6
ENDMDL
MODEL 5
REMARK VINA RESULT:      -8.1      2.982      7.414
REMARK  6 active torsions:
REMARK  status: ('A' for Active; 'I' for Inactive)
REMARK    1  A    between atoms: C_7  and  S_8 
REMARK    2  A    between atoms: S_8  and  C_9 
REMARK    3  A    between atoms: C_9  and  C_10 
REMARK    4  A    between atoms: C_18  and  C_19 
REMARK    5  A    between atoms: C_26  and  C_27 
REMARK    6  A    between atoms: C_27  and  O_28 
ROOT
HETATM    1  C   UNL     1      41.877 -11.701   1.860  1.00  0.00     0.070 C 
HETATM    2  C   UNL     1      42.404 -12.084   3.220  1.00  0.00     0.037 C 
HETATM    3  N   UNL     1      43.663 -11.582   3.540  1.00  0.00    -0.192 N 
HETATM    4  C   UNL     1      44.165 -11.609   4.790  1.00  0.00     0.726 A 
HETATM    5  N   UNL     1      43.519 -12.327   5.757  1.00  0.00    -0.082 N 
HETATM    6  N   UNL     1      44.102 -12.160   6.964  1.00  0.00    -0.128 NA
HETATM    7  C   UNL     1      45.119 -11.350   6.640  1.00  0.00     0.226 A 
HETATM    8  N   UNL     1      45.196 -11.002   5.313  1.00  0.00    -0.035 NA
HETATM    9  C   UNL     1      42.292 -13.095   5.522  1.00  0.00     0.203 C 
HETATM   10  C   UNL     1      41.716 -12.806   4.140  1.00  0.00     0.070 C 
HETATM   11  H   UNL     1      44.107 -10.966   2.863  1.00  0.00     0.184 HD
ENDROOT
BRANCH   7  12
HETATM   12  S   UNL     1      46.241 -10.707   7.804  1.00  0.00    -0.083 SA
BRANCH  12  13
HETATM   13  C   UNL     1      45.487  -9.103   8.182  1.00  0.00     0.123 C 
BRANCH  13  14
HETATM   14  C   UNL     1      44.387  -9.252   9.210  1.00  0.00    -0.027 A 
HETATM   15  C   UNL     1      43.022  -9.195   8.883  1.00  0.00     0.041 A 
HETATM   16 CL   UNL     1      42.475  -8.981   7.258  1.00  0.00    -0.084 Cl
HETATM   17  C   UNL     1      42.047  -9.304   9.880  1.00  0.00     0.024 A 
HETATM   18  C   UNL     1      42.417  -9.463  11.215  1.00  0.00     0.002 A 
HETATM   19  C   UNL     1      43.765  -9.514  11.556  1.00  0.00     0.001 A 
HETATM   20  C   UNL     1      44.742  -9.409  10.564  1.00  0.00     0.009 A 
ENDBRANCH  13  14
ENDBRANCH  12  13
ENDBRANCH   7  12
BRANCH   9  21
HETATM   21  C   UNL     1      42.555 -14.587   5.730  1.00  0.00    -0.028 A 
HETATM   22  C   UNL     1      43.301 -15.303   4.778  1.00  0.00     0.011 A 
HETATM   23  C   UNL     1      43.577 -16.660   4.961  1.00  0.00     0.024 A 
HETATM   24  C   UNL     1      43.113 -17.315   6.099  1.00  0.00     0.034 A 
HETATM   25 CL   UNL     1      43.456 -18.985   6.326  1.00  0.00    -0.084 Cl
HETATM   26  C   UNL     1      42.377 -16.623   7.057  1.00  0.00     0.024 A 
HETATM   27  C   UNL     1      42.102 -15.266   6.878  1.00  0.00     0.011 A 
ENDBRANCH   9  21
BRANCH  10  28
HETATM   28  C   UNL     1      40.346 -13.330   3.955  1.00  0.00     0.293 C 
HETATM   29  O   UNL     1      39.354 -12.726   4.334  1.00  0.00    -0.259 OA
BRANCH  28  30
HETATM   30  O   UNL     1      40.361 -14.559   3.387  1.00  0.00    -0.323 OA
HETATM   31  C   UNL     1      39.739 -14.614   2.103  1.00  0.00     0.213 C 
ENDBRANCH  28  30
ENDBRANCH  10  28
TORSDOF 6
ENDMDL
MODEL 6
REMARK VINA RESULT:      -8.0      2.918      7.773
REMARK  6 active torsions:
REMARK  status: ('A' for Active; 'I' for Inactive)
REMARK    1  A    between atoms: C_7  and  S_8 
REMARK    2  A    between atoms: S_8  and  C_9 
REMARK    3  A    between atoms: C_9  and  C_10 
REMARK    4  A    between atoms: C_18  and  C_19 
REMARK    5  A    between atoms: C_26  and  C_27 
REMARK    6  A    between atoms: C_27  and  O_28 
ROOT
HETATM    1  C   UNL     1      41.326 -10.535   0.972  1.00  0.00     0.070 C 
HETATM    2  C   UNL     1      41.754 -11.365   2.156  1.00  0.00     0.037 C 
HETATM    3  N   UNL     1      42.828 -10.863   2.886  1.00  0.00    -0.192 N 
HETATM    4  C   UNL     1      43.169 -11.331   4.102  1.00  0.00     0.726 A 
HETATM    5  N   UNL     1      42.578 -12.471   4.572  1.00  0.00    -0.082 N 
HETATM    6  N   UNL     1      42.961 -12.735   5.840  1.00  0.00    -0.128 NA
HETATM    7  C   UNL     1      43.813 -11.725   6.060  1.00  0.00     0.226 A 
HETATM    8  N   UNL     1      43.974 -10.852   5.010  1.00  0.00    -0.035 NA
HETATM    9  C   UNL     1      41.581 -13.243   3.823  1.00  0.00     0.203 C 
HETATM   10  C   UNL     1      41.129 -12.496   2.573  1.00  0.00     0.070 C 
HETATM   11  H   UNL     1      43.209  -9.964   2.600  1.00  0.00     0.184 HD
ENDROOT
BRANCH   7  12
HETATM   12  S   UNL     1      44.622 -11.465   7.577  1.00  0.00    -0.083 SA
BRANCH  12  13
HETATM   13  C   UNL     1      44.188  -9.740   7.926  1.00  0.00     0.123 C 
BRANCH  13  14
HETATM   14  C   UNL     1      43.845  -9.554   9.387  1.00  0.00    -0.027 A 
HETATM   15  C   UNL     1      43.549  -8.302   9.950  1.00  0.00     0.041 A 
HETATM   16 CL   UNL     1      43.513  -6.855   9.005  1.00  0.00    -0.084 Cl
HETATM   17  C   UNL     1      43.274  -8.183  11.317  1.00  0.00     0.024 A 
HETATM   18  C   UNL     1      43.300  -9.307  12.141  1.00  0.00     0.002 A 
HETATM   19  C   UNL     1      43.599 -10.554  11.601  1.00  0.00     0.001 A 
HETATM   20  C   UNL     1      43.870 -10.677  10.236  1.00  0.00     0.009 A 
ENDBRANCH  13  14
ENDBRANCH  12  13
ENDBRANCH   7  12
BRANCH   9  21
HETATM   21  C   UNL     1      42.130 -14.632   3.490  1.00  0.00    -0.028 A 
HETATM   22  C   UNL     1      41.668 -15.753   4.202  1.00  0.00     0.011 A 
HETATM   23  C   UNL     1      42.135 -17.033   3.896  1.00  0.00     0.024 A 
HETATM   24  C   UNL     1      43.065 -17.207   2.875  1.00  0.00     0.034 A 
HETATM   25 CL   UNL     1      43.637 -18.784   2.496  1.00  0.00    -0.084 Cl
HETATM   26  C   UNL     1      43.531 -16.111   2.154  1.00  0.00     0.024 A 
HETATM   27  C   UNL     1      43.064 -14.830   2.456  1.00  0.00     0.011 A 
ENDBRANCH   9  21
BRANCH  10  28
HETATM   28  C   UNL     1      39.935 -13.090   1.934  1.00  0.00     0.293 C 
HETATM   29  O   UNL     1      38.842 -13.115   2.480  1.00  0.00    -0.259 OA
BRANCH  28  30
HETATM   30  O   UNL     1      40.240 -13.638   0.735  1.00  0.00    -0.323 OA
HETATM   31  C   UNL     1      39.925 -15.028   0.634  1.00  0.00     0.213 C 
ENDBRANCH  28  30
ENDBRANCH  10  28
TORSDOF 6
ENDMDL
MODEL 7
REMARK VINA RESULT:      -7.8      3.943      5.189
REMARK  6 active torsions:
REMARK  status: ('A' for Active; 'I' for Inactive)
REMARK    1  A    between atoms: C_7  and  S_8 
REMARK    2  A    between atoms: S_8  and  C_9 
REMARK    3  A    between atoms: C_9  and  C_10 
REMARK    4  A    between atoms: C_18  and  C_19 
REMARK    5  A    between atoms: C_26  and  C_27 
REMARK    6  A    between atoms: C_27  and  O_28 
ROOT
HETATM    1  C   UNL     1      40.732 -11.743  -2.957  1.00  0.00     0.070 C 
HETATM    2  C   UNL     1      40.831 -11.958  -1.468  1.00  0.00     0.037 C 
HETATM    3  N   UNL     1      40.541 -13.246  -1.026  1.00  0.00    -0.192 N 
HETATM    4  C   UNL     1      40.827 -13.674   0.219  1.00  0.00     0.726 A 
HETATM    5  N   UNL     1      41.235 -12.772   1.162  1.00  0.00    -0.082 N 
HETATM    6  N   UNL     1      41.574 -13.387   2.315  1.00  0.00    -0.128 NA
HETATM    7  C   UNL     1      41.312 -14.664   2.004  1.00  0.00     0.226 A 
HETATM    8  N   UNL     1      40.840 -14.875   0.731  1.00  0.00    -0.035 NA
HETATM    9  C   UNL     1      41.380 -11.334   0.908  1.00  0.00     0.203 C 
HETATM   10  C   UNL     1      41.239 -11.018  -0.577  1.00  0.00     0.070 C 
HETATM   11  H   UNL     1      40.333 -13.948  -1.733  1.00  0.00     0.184 HD
ENDROOT
BRANCH   7  12
HETATM   12  S   UNL     1      41.603 -15.994   3.086  1.00  0.00    -0.083 SA
BRANCH  12  13
HETATM   13  C   UNL     1      43.198 -16.607   2.482  1.00  0.00     0.123 C 
BRANCH  13  14
HETATM   14  C   UNL     1      43.457 -18.014   2.973  1.00  0.00    -0.027 A 
HETATM   15  C   UNL     1      44.048 -18.293   4.216  1.00  0.00     0.041 A 
HETATM   16 CL   UNL     1      44.503 -17.043   5.319  1.00  0.00    -0.084 Cl
HETATM   17  C   UNL     1      44.297 -19.614   4.604  1.00  0.00     0.024 A 
HETATM   18  C   UNL     1      43.969 -20.672   3.758  1.00  0.00     0.002 A 
HETATM   19  C   UNL     1      43.390 -20.412   2.519  1.00  0.00     0.001 A 
HETATM   20  C   UNL     1      43.136 -19.095   2.130  1.00  0.00     0.009 A 
ENDBRANCH  13  14
ENDBRANCH  12  13
ENDBRANCH   7  12
BRANCH   9  21
HETATM   21  C   UNL     1      40.380 -10.546   1.756  1.00  0.00    -0.028 A 
HETATM   22  C   UNL     1      40.848  -9.653   2.736  1.00  0.00     0.011 A 
HETATM   23  C   UNL     1      39.954  -8.903   3.503  1.00  0.00     0.024 A 
HETATM   24  C   UNL     1      38.583  -9.035   3.296  1.00  0.00     0.034 A 
HETATM   25 CL   UNL     1      37.482  -8.108   4.238  1.00  0.00    -0.084 Cl
HETATM   26  C   UNL     1      38.099  -9.908   2.327  1.00  0.00     0.024 A 
HETATM   27  C   UNL     1      38.991 -10.658   1.557  1.00  0.00     0.011 A 
ENDBRANCH   9  21
BRANCH  10  28
HETATM   28  C   UNL     1      41.648  -9.641  -0.925  1.00  0.00     0.293 C 
HETATM   29  O   UNL     1      42.811  -9.270  -0.882  1.00  0.00    -0.259 OA
BRANCH  28  30
HETATM   30  O   UNL     1      40.576  -8.868  -1.218  1.00  0.00    -0.323 OA
HETATM   31  C   UNL     1      40.567  -7.607  -0.548  1.00  0.00     0.213 C 
ENDBRANCH  28  30
ENDBRANCH  10  28
TORSDOF 6
ENDMDL
MODEL 8
REMARK VINA RESULT:      -7.7      3.159      7.644
REMARK  6 active torsions:
REMARK  status: ('A' for Active; 'I' for Inactive)
REMARK    1  A    between atoms: C_7  and  S_8 
REMARK    2  A    between atoms: S_8  and  C_9 
REMARK    3  A    between atoms: C_9  and  C_10 
REMARK    4  A    between atoms: C_18  and  C_19 
REMARK    5  A    between atoms: C_26  and  C_27 
REMARK    6  A    between atoms: C_27  and  O_28 
ROOT
HETATM    1  C   UNL     1      41.439 -10.264  -0.792  1.00  0.00     0.070 C 
HETATM    2  C   UNL     1      41.370 -10.963   0.542  1.00  0.00     0.037 C 
HETATM    3  N   UNL     1      41.997 -10.307   1.598  1.00  0.00    -0.192 N 
HETATM    4  C   UNL     1      41.815 -10.652   2.887  1.00  0.00     0.726 A 
HETATM    5  N   UNL     1      41.151 -11.810   3.184  1.00  0.00    -0.082 N 
HETATM    6  N   UNL     1      40.971 -11.945   4.515  1.00  0.00    -0.128 NA
HETATM    7  C   UNL     1      41.585 -10.841   4.963  1.00  0.00     0.226 A 
HETATM    8  N   UNL     1      42.125 -10.032   3.993  1.00  0.00    -0.035 NA
HETATM    9  C   UNL     1      40.618 -12.728   2.171  1.00  0.00     0.203 C 
HETATM   10  C   UNL     1      40.697 -12.119   0.776  1.00  0.00     0.070 C 
HETATM   11  H   UNL     1      42.409  -9.396   1.404  1.00  0.00     0.184 HD
ENDROOT
BRANCH   7  12
HETATM   12  S   UNL     1      41.652 -10.397   6.644  1.00  0.00    -0.083 SA
BRANCH  12  13
HETATM   13  C   UNL     1      43.271 -11.055   7.125  1.00  0.00     0.123 C 
BRANCH  13  14
HETATM   14  C   UNL     1      43.772 -10.386   8.386  1.00  0.00    -0.027 A 
HETATM   15  C   UNL     1      45.137 -10.205   8.665  1.00  0.00     0.041 A 
HETATM   16 CL   UNL     1      46.373 -10.703   7.565  1.00  0.00    -0.084 Cl
HETATM   17  C   UNL     1      45.545  -9.611   9.864  1.00  0.00     0.024 A 
HETATM   18  C   UNL     1      44.602  -9.198  10.804  1.00  0.00     0.002 A 
HETATM   19  C   UNL     1      43.246  -9.377  10.546  1.00  0.00     0.001 A 
HETATM   20  C   UNL     1      42.834  -9.966   9.349  1.00  0.00     0.009 A 
ENDBRANCH  13  14
ENDBRANCH  12  13
ENDBRANCH   7  12
BRANCH   9  21
HETATM   21  C   UNL     1      41.339 -14.074   2.248  1.00  0.00    -0.028 A 
HETATM   22  C   UNL     1      40.632 -15.223   2.643  1.00  0.00     0.011 A 
HETATM   23  C   UNL     1      41.264 -16.468   2.694  1.00  0.00     0.024 A 
HETATM   24  C   UNL     1      42.608 -16.578   2.347  1.00  0.00     0.034 A 
HETATM   25 CL   UNL     1      43.385 -18.111   2.406  1.00  0.00    -0.084 Cl
HETATM   26  C   UNL     1      43.325 -15.454   1.947  1.00  0.00     0.024 A 
HETATM   27  C   UNL     1      42.695 -14.208   1.893  1.00  0.00     0.011 A 
ENDBRANCH   9  21
BRANCH  10  28
HETATM   28  C   UNL     1      39.929 -12.872  -0.237  1.00  0.00     0.293 C 
HETATM   29  O   UNL     1      40.449 -13.686  -0.985  1.00  0.00    -0.259 OA
BRANCH  28  30
HETATM   30  O   UNL     1      38.631 -12.490  -0.256  1.00  0.00    -0.323 OA
HETATM   31  C   UNL     1      38.135 -12.177  -1.559  1.00  0.00     0.213 C 
ENDBRANCH  28  30
ENDBRANCH  10  28
TORSDOF 6
ENDMDL
MODEL 9
REMARK VINA RESULT:      -7.4      2.663      4.719
REMARK  6 active torsions:
REMARK  status: ('A' for Active; 'I' for Inactive)
REMARK    1  A    between atoms: C_7  and  S_8 
REMARK    2  A    between atoms: S_8  and  C_9 
REMARK    3  A    between atoms: C_9  and  C_10 
REMARK    4  A    between atoms: C_18  and  C_19 
REMARK    5  A    between atoms: C_26  and  C_27 
REMARK    6  A    between atoms: C_27  and  O_28 
ROOT
HETATM    1  C   UNL     1      43.251 -10.465   7.231  1.00  0.00     0.070 C 
HETATM    2  C   UNL     1      42.417 -11.145   6.175  1.00  0.00     0.037 C 
HETATM    3  N   UNL     1      43.015 -12.232   5.544  1.00  0.00    -0.192 N 
HETATM    4  C   UNL     1      42.331 -13.099   4.774  1.00  0.00     0.726 A 
HETATM    5  N   UNL     1      41.041 -12.812   4.423  1.00  0.00    -0.082 N 
HETATM    6  N   UNL     1      40.479 -13.833   3.741  1.00  0.00    -0.128 NA
HETATM    7  C   UNL     1      41.505 -14.693   3.688  1.00  0.00     0.226 A 
HETATM    8  N   UNL     1      42.660 -14.270   4.300  1.00  0.00    -0.035 NA
HETATM    9  C   UNL     1      40.337 -11.592   4.831  1.00  0.00     0.203 C 
HETATM   10  C   UNL     1      41.138 -10.810   5.866  1.00  0.00     0.070 C 
HETATM   11  H   UNL     1      43.938 -12.512   5.869  1.00  0.00     0.184 HD
ENDROOT
BRANCH   7  12
HETATM   12  S   UNL     1      41.397 -16.272   2.965  1.00  0.00    -0.083 SA
BRANCH  12  13
HETATM   13  C   UNL     1      43.147 -16.679   2.728  1.00  0.00     0.123 C 
BRANCH  13  14
HETATM   14  C   UNL     1      43.429 -18.107   3.140  1.00  0.00    -0.027 A 
HETATM   15  C   UNL     1      43.924 -18.455   4.407  1.00  0.00     0.041 A 
HETATM   16 CL   UNL     1      44.222 -17.273   5.632  1.00  0.00    -0.084 Cl
HETATM   17  C   UNL     1      44.200 -19.790   4.721  1.00  0.00     0.024 A 
HETATM   18  C   UNL     1      43.997 -20.793   3.776  1.00  0.00     0.002 A 
HETATM   19  C   UNL     1      43.514 -20.465   2.512  1.00  0.00     0.001 A 
HETATM   20  C   UNL     1      43.233 -19.134   2.196  1.00  0.00     0.009 A 
ENDBRANCH  13  14
ENDBRANCH  12  13
ENDBRANCH   7  12
BRANCH   9  21
HETATM   21  C   UNL     1      40.005 -10.740   3.604  1.00  0.00    -0.028 A 
HETATM   22  C   UNL     1      38.662 -10.499   3.265  1.00  0.00     0.011 A 
HETATM   23  C   UNL     1      38.336  -9.702   2.165  1.00  0.00     0.024 A 
HETATM   24  C   UNL     1      39.348  -9.134   1.396  1.00  0.00     0.034 A 
HETATM   25 CL   UNL     1      38.946  -8.150   0.044  1.00  0.00    -0.084 Cl
HETATM   26  C   UNL     1      40.684  -9.355   1.718  1.00  0.00     0.024 A 
HETATM   27  C   UNL     1      41.013 -10.150   2.819  1.00  0.00     0.011 A 
ENDBRANCH   9  21
BRANCH  10  28
HETATM   28  C   UNL     1      40.364  -9.730   6.513  1.00  0.00     0.293 C 
HETATM   29  O   UNL     1      40.505  -8.553   6.218  1.00  0.00    -0.259 OA
BRANCH  28  30
HETATM   30  O   UNL     1      39.561 -10.216   7.488  1.00  0.00    -0.323 OA
HETATM   31  C   UNL     1      39.683  -9.533   8.737  1.00  0.00     0.213 C 
ENDBRANCH  28  30
ENDBRANCH  10  28
TORSDOF 6
ENDMDL
MODEL 10
REMARK VINA RESULT:      -7.2      1.900      2.242
REMARK  6 active torsions:
REMARK  status: ('A' for Active; 'I' for Inactive)
REMARK    1  A    between atoms: C_7  and  S_8 
REMARK    2  A    between atoms: S_8  and  C_9 
REMARK    3  A    between atoms: C_9  and  C_10 
REMARK    4  A    between atoms: C_18  and  C_19 
REMARK    5  A    between atoms: C_26  and  C_27 
REMARK    6  A    between atoms: C_27  and  O_28 
ROOT
HETATM    1  C   UNL     1      38.336 -10.308   3.871  1.00  0.00     0.070 C 
HETATM    2  C   UNL     1      39.594 -11.137   3.827  1.00  0.00     0.037 C 
HETATM    3  N   UNL     1      39.409 -12.515   3.895  1.00  0.00    -0.192 N 
HETATM    4  C   UNL     1      40.385 -13.400   3.613  1.00  0.00     0.726 A 
HETATM    5  N   UNL     1      41.667 -12.954   3.444  1.00  0.00    -0.082 N 
HETATM    6  N   UNL     1      42.489 -13.956   3.069  1.00  0.00    -0.128 NA
HETATM    7  C   UNL     1      41.638 -14.990   3.064  1.00  0.00     0.226 A 
HETATM    8  N   UNL     1      40.341 -14.687   3.405  1.00  0.00    -0.035 NA
HETATM    9  C   UNL     1      42.063 -11.546   3.559  1.00  0.00     0.203 C 
HETATM   10  C   UNL     1      40.845 -10.635   3.662  1.00  0.00     0.070 C 
HETATM   11  H   UNL     1      38.451 -12.858   3.922  1.00  0.00     0.184 HD
ENDROOT
BRANCH   7  12
HETATM   12  S   UNL     1      42.090 -16.604   2.595  1.00  0.00    -0.083 SA
BRANCH  12  13
HETATM   13  C   UNL     1      43.521 -16.901   3.668  1.00  0.00     0.123 C 
BRANCH  13  14
HETATM   14  C   UNL     1      43.648 -18.371   4.001  1.00  0.00    -0.027 A 
HETATM   15  C   UNL     1      43.742 -18.851   5.318  1.00  0.00     0.041 A 
HETATM   16 CL   UNL     1      43.683 -17.798   6.686  1.00  0.00    -0.084 Cl
HETATM   17  C   UNL     1      43.895 -20.220   5.567  1.00  0.00     0.024 A 
HETATM   18  C   UNL     1      43.965 -21.125   4.509  1.00  0.00     0.002 A 
HETATM   19  C   UNL     1      43.881 -20.665   3.199  1.00  0.00     0.001 A 
HETATM   20  C   UNL     1      43.725 -19.301   2.946  1.00  0.00     0.009 A 
ENDBRANCH  13  14
ENDBRANCH  12  13
ENDBRANCH   7  12
BRANCH   9  21
HETATM   21  C   UNL     1      43.015 -11.362   4.742  1.00  0.00    -0.028 A 
HETATM   22  C   UNL     1      42.494 -11.144   6.030  1.00  0.00     0.011 A 
HETATM   23  C   UNL     1      43.345 -11.000   7.129  1.00  0.00     0.024 A 
HETATM   24  C   UNL     1      44.724 -11.075   6.952  1.00  0.00     0.034 A 
HETATM   25 CL   UNL     1      45.770 -10.902   8.306  1.00  0.00    -0.084 Cl
HETATM   26  C   UNL     1      45.260 -11.296   5.687  1.00  0.00     0.024 A 
HETATM   27  C   UNL     1      44.412 -11.443   4.587  1.00  0.00     0.011 A 
ENDBRANCH   9  21
BRANCH  10  28
HETATM   28  C   UNL     1      41.169  -9.202   3.501  1.00  0.00     0.293 C 
HETATM   29  O   UNL     1      41.513  -8.497   4.437  1.00  0.00    -0.259 OA
BRANCH  28  30
HETATM   30  O   UNL     1      40.970  -8.793   2.226  1.00  0.00    -0.323 OA
HETATM   31  C   UNL     1      40.501  -7.448   2.114  1.00  0.00     0.213 C 
ENDBRANCH  28  30
ENDBRANCH  10  28
TORSDOF 6
ENDMDL
