MODEL 1
REMARK VINA RESULT:      -7.6      0.000      0.000
REMARK  4 active torsions:
REMARK  status: ('A' for Active; 'I' for Inactive)
REMARK    1  A    between atoms: C_3  and  N_4 
REMARK       I    between atoms: N_4  and  C_5 
REMARK    2  A    between atoms: C_5  and  C_6 
REMARK    3  A    between atoms: C_7  and  C_8 
REMARK    4  A    between atoms: C_16  and  C_17 
ROOT
HETATM    1  C   UNL     1      44.569 -16.357   6.275  1.00  0.00     0.003 A 
HETATM    2  C   UNL     1      43.707 -15.291   6.015  1.00  0.00     0.029 A 
HETATM    3  C   UNL     1      42.777 -15.377   4.980  1.00  0.00     0.035 A 
HETATM    4  C   UNL     1      42.718 -16.548   4.208  1.00  0.00     0.042 A 
HETATM    5  C   UNL     1      43.606 -17.615   4.433  1.00  0.00    -0.021 A 
HETATM    6  C   UNL     1      44.522 -17.508   5.488  1.00  0.00     0.012 A 
ENDROOT
BRANCH   3   7
HETATM    7  N   UNL     1      41.868 -14.344   4.673  1.00  0.00    -0.327 N 
HETATM    8  C   UNL     1      42.154 -13.168   4.004  1.00  0.00     0.227 C 
HETATM    9  O   UNL     1      43.214 -12.869   3.473  1.00  0.00    -0.273 OA
HETATM   10  H   UNL     1      40.894 -14.528   4.876  1.00  0.00     0.169 HD
BRANCH   8  11
HETATM   11  C   UNL     1      40.963 -12.278   3.873  1.00  0.00     0.089 A 
HETATM   12  C   UNL     1      39.913 -12.475   2.789  1.00  0.00     0.057 A 
HETATM   13  C   UNL     1      39.591 -12.751   4.244  1.00  0.00     0.027 A 
BRANCH  12  14
HETATM   14  C   UNL     1      39.916 -13.678   1.862  1.00  0.00     0.057 A 
HETATM   15  O   UNL     1      39.844 -14.977   2.263  1.00  0.00    -0.327 OA
HETATM   16  C   UNL     1      39.824 -15.744   1.146  1.00  0.00     0.142 A 
HETATM   17  C   UNL     1      39.881 -14.956   0.021  1.00  0.00     0.027 A 
HETATM   18  C   UNL     1      39.942 -13.617   0.484  1.00  0.00     0.035 A 
ENDBRANCH  12  14
ENDBRANCH   8  11
ENDBRANCH   3   7
BRANCH   5  19
HETATM   19  C   UNL     1      43.579 -18.788   3.569  1.00  0.00     0.010 A 
HETATM   20  C   UNL     1      43.949 -20.133   3.814  1.00  0.00     0.152 A 
HETATM   21  N   UNL     1      43.738 -20.933   2.765  1.00  0.00    -0.187 NA
HETATM   22  N   UNL     1      43.228 -20.106   1.840  1.00  0.00    -0.289 N 
HETATM   23  H   UNL     1      42.973 -20.492   0.937  1.00  0.00     0.188 HD
HETATM   24  C   UNL     1      43.110 -18.816   2.271  1.00  0.00     0.123 A 
ENDBRANCH   5  19
TORSDOF 4
ENDMDL
MODEL 2
REMARK VINA RESULT:      -7.5      2.379      4.147
REMARK  4 active torsions:
REMARK  status: ('A' for Active; 'I' for Inactive)
REMARK    1  A    between atoms: C_3  and  N_4 
REMARK       I    between atoms: N_4  and  C_5 
REMARK    2  A    between atoms: C_5  and  C_6 
REMARK    3  A    between atoms: C_7  and  C_8 
REMARK    4  A    between atoms: C_16  and  C_17 
ROOT
HETATM    1  C   UNL     1      43.538 -17.180   6.919  1.00  0.00     0.003 A 
HETATM    2  C   UNL     1      43.396 -15.877   6.440  1.00  0.00     0.029 A 
HETATM    3  C   UNL     1      43.301 -15.639   5.070  1.00  0.00     0.035 A 
HETATM    4  C   UNL     1      43.347 -16.725   4.182  1.00  0.00     0.042 A 
HETATM    5  C   UNL     1      43.528 -18.040   4.647  1.00  0.00    -0.021 A 
HETATM    6  C   UNL     1      43.607 -18.253   6.029  1.00  0.00     0.012 A 
ENDROOT
BRANCH   3   7
HETATM    7  N   UNL     1      43.142 -14.350   4.520  1.00  0.00    -0.327 N 
HETATM    8  C   UNL     1      42.039 -13.529   4.657  1.00  0.00     0.227 C 
HETATM    9  O   UNL     1      41.060 -13.731   5.360  1.00  0.00    -0.273 OA
HETATM   10  H   UNL     1      43.954 -13.953   4.067  1.00  0.00     0.169 HD
BRANCH   8  11
HETATM   11  C   UNL     1      42.189 -12.239   3.920  1.00  0.00     0.089 A 
HETATM   12  C   UNL     1      42.909 -11.039   4.516  1.00  0.00     0.057 A 
HETATM   13  C   UNL     1      43.510 -11.810   3.359  1.00  0.00     0.027 A 
BRANCH  12  14
HETATM   14  C   UNL     1      43.660 -11.112   5.834  1.00  0.00     0.057 A 
HETATM   15  O   UNL     1      43.099 -10.964   7.065  1.00  0.00    -0.327 OA
HETATM   16  C   UNL     1      44.082 -11.143   7.981  1.00  0.00     0.142 A 
HETATM   17  C   UNL     1      45.278 -11.406   7.357  1.00  0.00     0.027 A 
HETATM   18  C   UNL     1      45.007 -11.384   5.966  1.00  0.00     0.035 A 
ENDBRANCH  12  14
ENDBRANCH   8  11
ENDBRANCH   3   7
BRANCH   5  19
HETATM   19  C   UNL     1      43.651 -19.143   3.703  1.00  0.00     0.010 A 
HETATM   20  C   UNL     1      43.987 -20.505   3.901  1.00  0.00     0.152 A 
HETATM   21  N   UNL     1      43.956 -21.221   2.774  1.00  0.00    -0.187 NA
HETATM   22  N   UNL     1      43.596 -20.323   1.844  1.00  0.00    -0.289 N 
HETATM   23  H   UNL     1      43.495 -20.638   0.884  1.00  0.00     0.188 HD
HETATM   24  C   UNL     1      43.400 -19.069   2.347  1.00  0.00     0.123 A 
ENDBRANCH   5  19
TORSDOF 4
ENDMDL
MODEL 3
REMARK VINA RESULT:      -7.2      3.239      6.917
REMARK  4 active torsions:
REMARK  status: ('A' for Active; 'I' for Inactive)
REMARK    1  A    between atoms: C_3  and  N_4 
REMARK       I    between atoms: N_4  and  C_5 
REMARK    2  A    between atoms: C_5  and  C_6 
REMARK    3  A    between atoms: C_7  and  C_8 
REMARK    4  A    between atoms: C_16  and  C_17 
ROOT
HETATM    1  C   UNL     1      39.743 -13.083   2.369  1.00  0.00     0.003 A 
HETATM    2  C   UNL     1      40.527 -14.188   2.699  1.00  0.00     0.029 A 
HETATM    3  C   UNL     1      40.922 -15.089   1.711  1.00  0.00     0.035 A 
HETATM    4  C   UNL     1      40.524 -14.866   0.383  1.00  0.00     0.042 A 
HETATM    5  C   UNL     1      39.701 -13.778   0.041  1.00  0.00    -0.021 A 
HETATM    6  C   UNL     1      39.329 -12.881   1.051  1.00  0.00     0.012 A 
ENDROOT
BRANCH   3   7
HETATM    7  N   UNL     1      41.726 -16.217   1.973  1.00  0.00    -0.327 N 
HETATM    8  C   UNL     1      43.097 -16.305   1.814  1.00  0.00     0.227 C 
HETATM    9  O   UNL     1      43.858 -15.393   1.523  1.00  0.00    -0.273 OA
HETATM   10  H   UNL     1      41.267 -17.003   2.412  1.00  0.00     0.169 HD
BRANCH   8  11
HETATM   11  C   UNL     1      43.629 -17.657   2.155  1.00  0.00     0.089 A 
HETATM   12  C   UNL     1      43.897 -18.090   3.589  1.00  0.00     0.057 A 
HETATM   13  C   UNL     1      42.761 -18.699   2.792  1.00  0.00     0.027 A 
BRANCH  12  14
HETATM   14  C   UNL     1      43.499 -17.241   4.784  1.00  0.00     0.057 A 
HETATM   15  O   UNL     1      42.227 -16.870   5.094  1.00  0.00    -0.327 OA
HETATM   16  C   UNL     1      42.282 -16.165   6.250  1.00  0.00     0.142 A 
HETATM   17  C   UNL     1      43.579 -16.074   6.695  1.00  0.00     0.027 A 
HETATM   18  C   UNL     1      44.369 -16.768   5.746  1.00  0.00     0.035 A 
ENDBRANCH  12  14
ENDBRANCH   8  11
ENDBRANCH   3   7
BRANCH   5  19
HETATM   19  C   UNL     1      39.235 -13.611  -1.329  1.00  0.00     0.010 A 
HETATM   20  C   UNL     1      39.712 -14.156  -2.547  1.00  0.00     0.152 A 
HETATM   21  N   UNL     1      38.980 -13.790  -3.605  1.00  0.00    -0.187 NA
HETATM   22  N   UNL     1      38.028 -13.010  -3.070  1.00  0.00    -0.289 N 
HETATM   23  H   UNL     1      37.330 -12.610  -3.689  1.00  0.00     0.188 HD
HETATM   24  C   UNL     1      38.134 -12.874  -1.716  1.00  0.00     0.123 A 
ENDBRANCH   5  19
TORSDOF 4
ENDMDL
MODEL 4
REMARK VINA RESULT:      -7.2      1.585      3.132
REMARK  4 active torsions:
REMARK  status: ('A' for Active; 'I' for Inactive)
REMARK    1  A    between atoms: C_3  and  N_4 
REMARK       I    between atoms: N_4  and  C_5 
REMARK    2  A    between atoms: C_5  and  C_6 
REMARK    3  A    between atoms: C_7  and  C_8 
REMARK    4  A    between atoms: C_16  and  C_17 
ROOT
HETATM    1  C   UNL     1      43.416 -15.642   4.803  1.00  0.00     0.003 A 
HETATM    2  C   UNL     1      42.782 -14.969   3.758  1.00  0.00     0.029 A 
HETATM    3  C   UNL     1      42.386 -15.661   2.614  1.00  0.00     0.035 A 
HETATM    4  C   UNL     1      42.631 -17.041   2.530  1.00  0.00     0.042 A 
HETATM    5  C   UNL     1      43.303 -17.726   3.558  1.00  0.00    -0.021 A 
HETATM    6  C   UNL     1      43.678 -17.010   4.702  1.00  0.00     0.012 A 
ENDROOT
BRANCH   3   7
HETATM    7  N   UNL     1      41.729 -15.046   1.529  1.00  0.00    -0.327 N 
HETATM    8  C   UNL     1      40.376 -15.098   1.251  1.00  0.00     0.227 C 
HETATM    9  O   UNL     1      39.505 -15.595   1.950  1.00  0.00    -0.273 OA
HETATM   10  H   UNL     1      42.288 -14.426   0.959  1.00  0.00     0.169 HD
BRANCH   8  11
HETATM   11  C   UNL     1      40.017 -14.357   0.006  1.00  0.00     0.089 A 
HETATM   12  C   UNL     1      39.490 -12.931   0.029  1.00  0.00     0.057 A 
HETATM   13  C   UNL     1      40.870 -13.240  -0.511  1.00  0.00     0.027 A 
BRANCH  12  14
HETATM   14  C   UNL     1      39.436 -12.103   1.301  1.00  0.00     0.057 A 
HETATM   15  O   UNL     1      40.520 -11.637   1.980  1.00  0.00    -0.327 OA
HETATM   16  C   UNL     1      40.059 -10.907   3.025  1.00  0.00     0.142 A 
HETATM   17  C   UNL     1      38.685 -10.892   3.031  1.00  0.00     0.027 A 
HETATM   18  C   UNL     1      38.280 -11.668   1.916  1.00  0.00     0.035 A 
ENDBRANCH  12  14
ENDBRANCH   8  11
ENDBRANCH   3   7
BRANCH   5  19
HETATM   19  C   UNL     1      43.617 -19.142   3.414  1.00  0.00     0.010 A 
HETATM   20  C   UNL     1      43.610 -19.987   2.276  1.00  0.00     0.152 A 
HETATM   21  N   UNL     1      44.002 -21.234   2.550  1.00  0.00    -0.187 NA
HETATM   22  N   UNL     1      44.267 -21.197   3.865  1.00  0.00    -0.289 N 
HETATM   23  H   UNL     1      44.597 -22.046   4.313  1.00  0.00     0.188 HD
HETATM   24  C   UNL     1      44.056 -19.971   4.427  1.00  0.00     0.123 A 
ENDBRANCH   5  19
TORSDOF 4
ENDMDL
MODEL 5
REMARK VINA RESULT:      -7.2      2.830      4.135
REMARK  4 active torsions:
REMARK  status: ('A' for Active; 'I' for Inactive)
REMARK    1  A    between atoms: C_3  and  N_4 
REMARK       I    between atoms: N_4  and  C_5 
REMARK    2  A    between atoms: C_5  and  C_6 
REMARK    3  A    between atoms: C_7  and  C_8 
REMARK    4  A    between atoms: C_16  and  C_17 
ROOT
HETATM    1  C   UNL     1      43.149 -17.446   2.226  1.00  0.00     0.003 A 
HETATM    2  C   UNL     1      42.865 -16.274   1.523  1.00  0.00     0.029 A 
HETATM    3  C   UNL     1      42.719 -15.066   2.204  1.00  0.00     0.035 A 
HETATM    4  C   UNL     1      42.864 -15.045   3.600  1.00  0.00     0.042 A 
HETATM    5  C   UNL     1      43.111 -16.223   4.325  1.00  0.00    -0.021 A 
HETATM    6  C   UNL     1      43.267 -17.422   3.616  1.00  0.00     0.012 A 
ENDROOT
BRANCH   3   7
HETATM    7  N   UNL     1      42.447 -13.844   1.555  1.00  0.00    -0.327 N 
HETATM    8  C   UNL     1      41.201 -13.357   1.207  1.00  0.00     0.227 C 
HETATM    9  O   UNL     1      40.119 -13.849   1.493  1.00  0.00    -0.273 OA
HETATM   10  H   UNL     1      43.233 -13.222   1.422  1.00  0.00     0.169 HD
BRANCH   8  11
HETATM   11  C   UNL     1      41.274 -12.042   0.503  1.00  0.00     0.089 A 
HETATM   12  C   UNL     1      40.678 -11.824  -0.879  1.00  0.00     0.057 A 
HETATM   13  C   UNL     1      40.064 -11.175   0.344  1.00  0.00     0.027 A 
BRANCH  12  14
HETATM   14  C   UNL     1      39.833 -12.874  -1.577  1.00  0.00     0.057 A 
HETATM   15  O   UNL     1      38.480 -12.982  -1.483  1.00  0.00    -0.327 OA
HETATM   16  C   UNL     1      38.099 -14.006  -2.285  1.00  0.00     0.142 A 
HETATM   17  C   UNL     1      39.193 -14.566  -2.900  1.00  0.00     0.027 A 
HETATM   18  C   UNL     1      40.317 -13.835  -2.442  1.00  0.00     0.035 A 
ENDBRANCH  12  14
ENDBRANCH   8  11
ENDBRANCH   3   7
BRANCH   5  19
HETATM   19  C   UNL     1      43.179 -16.190   5.780  1.00  0.00     0.010 A 
HETATM   20  C   UNL     1      42.762 -15.205   6.710  1.00  0.00     0.152 A 
HETATM   21  N   UNL     1      42.963 -15.567   7.980  1.00  0.00    -0.187 NA
HETATM   22  N   UNL     1      43.507 -16.789   7.874  1.00  0.00    -0.289 N 
HETATM   23  H   UNL     1      43.746 -17.285   8.727  1.00  0.00     0.188 HD
HETATM   24  C   UNL     1      43.654 -17.208   6.583  1.00  0.00     0.123 A 
ENDBRANCH   5  19
TORSDOF 4
ENDMDL
MODEL 6
REMARK VINA RESULT:      -7.0      2.825      4.488
REMARK  4 active torsions:
REMARK  status: ('A' for Active; 'I' for Inactive)
REMARK    1  A    between atoms: C_3  and  N_4 
REMARK       I    between atoms: N_4  and  C_5 
REMARK    2  A    between atoms: C_5  and  C_6 
REMARK    3  A    between atoms: C_7  and  C_8 
REMARK    4  A    between atoms: C_16  and  C_17 
ROOT
HETATM    1  C   UNL     1      40.571 -14.362   3.983  1.00  0.00     0.003 A 
HETATM    2  C   UNL     1      39.944 -14.284   2.740  1.00  0.00     0.029 A 
HETATM    3  C   UNL     1      40.253 -15.204   1.738  1.00  0.00     0.035 A 
HETATM    4  C   UNL     1      41.200 -16.208   2.000  1.00  0.00     0.042 A 
HETATM    5  C   UNL     1      41.869 -16.275   3.234  1.00  0.00    -0.021 A 
HETATM    6  C   UNL     1      41.529 -15.347   4.228  1.00  0.00     0.012 A 
ENDROOT
BRANCH   3   7
HETATM    7  N   UNL     1      39.647 -15.192   0.466  1.00  0.00    -0.327 N 
HETATM    8  C   UNL     1      39.910 -14.306  -0.562  1.00  0.00     0.227 C 
HETATM    9  O   UNL     1      40.785 -13.452  -0.584  1.00  0.00    -0.273 OA
HETATM   10  H   UNL     1      39.033 -15.966   0.254  1.00  0.00     0.169 HD
BRANCH   8  11
HETATM   11  C   UNL     1      39.066 -14.558  -1.768  1.00  0.00     0.089 A 
HETATM   12  C   UNL     1      38.049 -13.547  -2.276  1.00  0.00     0.057 A 
HETATM   13  C   UNL     1      39.314 -13.837  -3.057  1.00  0.00     0.027 A 
BRANCH  12  14
HETATM   14  C   UNL     1      37.926 -12.151  -1.691  1.00  0.00     0.057 A 
HETATM   15  O   UNL     1      37.444 -11.859  -0.452  1.00  0.00    -0.327 OA
HETATM   16  C   UNL     1      37.541 -10.518  -0.286  1.00  0.00     0.142 A 
HETATM   17  C   UNL     1      38.082  -9.933  -1.406  1.00  0.00     0.027 A 
HETATM   18  C   UNL     1      38.331 -10.990  -2.318  1.00  0.00     0.035 A 
ENDBRANCH  12  14
ENDBRANCH   8  11
ENDBRANCH   3   7
BRANCH   5  19
HETATM   19  C   UNL     1      42.904 -17.277   3.455  1.00  0.00     0.010 A 
HETATM   20  C   UNL     1      43.715 -17.543   4.587  1.00  0.00     0.152 A 
HETATM   21  N   UNL     1      44.531 -18.586   4.411  1.00  0.00    -0.187 NA
HETATM   22  N   UNL     1      44.247 -18.998   3.165  1.00  0.00    -0.289 N 
HETATM   23  H   UNL     1      44.745 -19.803   2.799  1.00  0.00     0.188 HD
HETATM   24  C   UNL     1      43.281 -18.252   2.554  1.00  0.00     0.123 A 
ENDBRANCH   5  19
TORSDOF 4
ENDMDL
MODEL 7
REMARK VINA RESULT:      -7.0      1.844      2.692
REMARK  4 active torsions:
REMARK  status: ('A' for Active; 'I' for Inactive)
REMARK    1  A    between atoms: C_3  and  N_4 
REMARK       I    between atoms: N_4  and  C_5 
REMARK    2  A    between atoms: C_5  and  C_6 
REMARK    3  A    between atoms: C_7  and  C_8 
REMARK    4  A    between atoms: C_16  and  C_17 
ROOT
HETATM    1  C   UNL     1      43.200 -16.118   1.437  1.00  0.00     0.003 A 
HETATM    2  C   UNL     1      42.562 -15.217   2.290  1.00  0.00     0.029 A 
HETATM    3  C   UNL     1      42.339 -15.552   3.625  1.00  0.00     0.035 A 
HETATM    4  C   UNL     1      42.766 -16.803   4.097  1.00  0.00     0.042 A 
HETATM    5  C   UNL     1      43.376 -17.736   3.241  1.00  0.00    -0.021 A 
HETATM    6  C   UNL     1      43.601 -17.369   1.907  1.00  0.00     0.012 A 
ENDROOT
BRANCH   3   7
HETATM    7  N   UNL     1      41.714 -14.684   4.544  1.00  0.00    -0.327 N 
HETATM    8  C   UNL     1      42.205 -13.474   4.997  1.00  0.00     0.227 C 
HETATM    9  O   UNL     1      43.211 -12.901   4.604  1.00  0.00    -0.273 OA
HETATM   10  H   UNL     1      40.771 -14.925   4.818  1.00  0.00     0.169 HD
BRANCH   8  11
HETATM   11  C   UNL     1      41.301 -12.823   5.990  1.00  0.00     0.089 A 
HETATM   12  C   UNL     1      40.102 -11.985   5.573  1.00  0.00     0.057 A 
HETATM   13  C   UNL     1      39.915 -13.334   6.236  1.00  0.00     0.027 A 
BRANCH  12  14
HETATM   14  C   UNL     1      39.647 -11.876   4.129  1.00  0.00     0.057 A 
HETATM   15  O   UNL     1      39.250 -12.921   3.351  1.00  0.00    -0.327 OA
HETATM   16  C   UNL     1      38.877 -12.412   2.152  1.00  0.00     0.142 A 
HETATM   17  C   UNL     1      39.026 -11.046   2.142  1.00  0.00     0.027 A 
HETATM   18  C   UNL     1      39.527 -10.698   3.421  1.00  0.00     0.035 A 
ENDBRANCH  12  14
ENDBRANCH   8  11
ENDBRANCH   3   7
BRANCH   5  19
HETATM   19  C   UNL     1      43.740 -19.058   3.734  1.00  0.00     0.010 A 
HETATM   20  C   UNL     1      44.170 -19.489   5.013  1.00  0.00     0.152 A 
HETATM   21  N   UNL     1      44.372 -20.808   5.080  1.00  0.00    -0.187 NA
HETATM   22  N   UNL     1      44.068 -21.233   3.844  1.00  0.00    -0.289 N 
HETATM   23  H   UNL     1      44.139 -22.226   3.646  1.00  0.00     0.188 HD
HETATM   24  C   UNL     1      43.683 -20.229   3.004  1.00  0.00     0.123 A 
ENDBRANCH   5  19
TORSDOF 4
ENDMDL
MODEL 8
REMARK VINA RESULT:      -7.0      2.697      6.774
REMARK  4 active torsions:
REMARK  status: ('A' for Active; 'I' for Inactive)
REMARK    1  A    between atoms: C_3  and  N_4 
REMARK       I    between atoms: N_4  and  C_5 
REMARK    2  A    between atoms: C_5  and  C_6 
REMARK    3  A    between atoms: C_7  and  C_8 
REMARK    4  A    between atoms: C_16  and  C_17 
ROOT
HETATM    1  C   UNL     1      40.131 -15.843   1.388  1.00  0.00     0.003 A 
HETATM    2  C   UNL     1      40.767 -16.207   2.575  1.00  0.00     0.029 A 
HETATM    3  C   UNL     1      41.528 -15.274   3.279  1.00  0.00     0.035 A 
HETATM    4  C   UNL     1      41.642 -13.968   2.779  1.00  0.00     0.042 A 
HETATM    5  C   UNL     1      41.040 -13.597   1.564  1.00  0.00    -0.021 A 
HETATM    6  C   UNL     1      40.270 -14.549   0.884  1.00  0.00     0.012 A 
ENDROOT
BRANCH   3   7
HETATM    7  N   UNL     1      42.183 -15.571   4.492  1.00  0.00    -0.327 N 
HETATM    8  C   UNL     1      41.605 -16.101   5.630  1.00  0.00     0.227 C 
HETATM    9  O   UNL     1      40.456 -16.500   5.748  1.00  0.00    -0.273 OA
HETATM   10  H   UNL     1      43.190 -15.479   4.492  1.00  0.00     0.169 HD
BRANCH   8  11
HETATM   11  C   UNL     1      42.582 -16.264   6.748  1.00  0.00     0.089 A 
HETATM   12  C   UNL     1      43.573 -17.416   6.802  1.00  0.00     0.057 A 
HETATM   13  C   UNL     1      44.043 -15.998   6.551  1.00  0.00     0.027 A 
BRANCH  12  14
HETATM   14  C   UNL     1      43.748 -18.395   5.655  1.00  0.00     0.057 A 
HETATM   15  O   UNL     1      43.981 -18.051   4.359  1.00  0.00    -0.327 OA
HETATM   16  C   UNL     1      44.125 -19.200   3.655  1.00  0.00     0.142 A 
HETATM   17  C   UNL     1      43.988 -20.289   4.481  1.00  0.00     0.027 A 
HETATM   18  C   UNL     1      43.742 -19.770   5.776  1.00  0.00     0.035 A 
ENDBRANCH  12  14
ENDBRANCH   8  11
ENDBRANCH   3   7
BRANCH   5  19
HETATM   19  C   UNL     1      41.238 -12.258   1.024  1.00  0.00     0.010 A 
HETATM   20  C   UNL     1      41.779 -11.087   1.613  1.00  0.00     0.152 A 
HETATM   21  N   UNL     1      41.828 -10.053   0.768  1.00  0.00    -0.187 NA
HETATM   22  N   UNL     1      41.322 -10.554  -0.369  1.00  0.00    -0.289 N 
HETATM   23  H   UNL     1      41.262  -9.945  -1.179  1.00  0.00     0.188 HD
HETATM   24  C   UNL     1      40.957 -11.866  -0.269  1.00  0.00     0.123 A 
ENDBRANCH   5  19
TORSDOF 4
ENDMDL
MODEL 9
REMARK VINA RESULT:      -6.8      1.628      3.108
REMARK  4 active torsions:
REMARK  status: ('A' for Active; 'I' for Inactive)
REMARK    1  A    between atoms: C_3  and  N_4 
REMARK       I    between atoms: N_4  and  C_5 
REMARK    2  A    between atoms: C_5  and  C_6 
REMARK    3  A    between atoms: C_7  and  C_8 
REMARK    4  A    between atoms: C_16  and  C_17 
ROOT
HETATM    1  C   UNL     1      44.210 -16.206   6.154  1.00  0.00     0.003 A 
HETATM    2  C   UNL     1      43.436 -15.271   5.467  1.00  0.00     0.029 A 
HETATM    3  C   UNL     1      42.748 -15.641   4.312  1.00  0.00     0.035 A 
HETATM    4  C   UNL     1      42.843 -16.964   3.853  1.00  0.00     0.042 A 
HETATM    5  C   UNL     1      43.649 -17.908   4.513  1.00  0.00    -0.021 A 
HETATM    6  C   UNL     1      44.319 -17.514   5.679  1.00  0.00     0.012 A 
ENDROOT
BRANCH   3   7
HETATM    7  N   UNL     1      41.937 -14.750   3.579  1.00  0.00    -0.327 N 
HETATM    8  C   UNL     1      42.332 -13.970   2.508  1.00  0.00     0.227 C 
HETATM    9  O   UNL     1      43.419 -13.995   1.948  1.00  0.00    -0.273 OA
HETATM   10  H   UNL     1      40.950 -14.760   3.796  1.00  0.00     0.169 HD
BRANCH   8  11
HETATM   11  C   UNL     1      41.227 -13.117   1.981  1.00  0.00     0.089 A 
HETATM   12  C   UNL     1      40.662 -11.940   2.763  1.00  0.00     0.057 A 
HETATM   13  C   UNL     1      41.479 -11.719   1.507  1.00  0.00     0.027 A 
BRANCH  12  14
HETATM   14  C   UNL     1      41.280 -11.453   4.061  1.00  0.00     0.057 A 
HETATM   15  O   UNL     1      41.233 -12.116   5.249  1.00  0.00    -0.327 OA
HETATM   16  C   UNL     1      41.936 -11.384   6.148  1.00  0.00     0.142 A 
HETATM   17  C   UNL     1      42.440 -10.251   5.555  1.00  0.00     0.027 A 
HETATM   18  C   UNL     1      42.014 -10.293   4.204  1.00  0.00     0.035 A 
ENDBRANCH  12  14
ENDBRANCH   8  11
ENDBRANCH   3   7
BRANCH   5  19
HETATM   19  C   UNL     1      43.795 -19.254   3.974  1.00  0.00     0.010 A 
HETATM   20  C   UNL     1      43.687 -19.744   2.649  1.00  0.00     0.152 A 
HETATM   21  N   UNL     1      43.932 -21.054   2.554  1.00  0.00    -0.187 NA
HETATM   22  N   UNL     1      44.202 -21.413   3.818  1.00  0.00    -0.289 N 
HETATM   23  H   UNL     1      44.432 -22.384   4.004  1.00  0.00     0.188 HD
HETATM   24  C   UNL     1      44.137 -20.376   4.703  1.00  0.00     0.123 A 
ENDBRANCH   5  19
TORSDOF 4
ENDMDL
MODEL 10
REMARK VINA RESULT:      -6.8      8.810     11.745
REMARK  4 active torsions:
REMARK  status: ('A' for Active; 'I' for Inactive)
REMARK    1  A    between atoms: C_3  and  N_4 
REMARK       I    between atoms: N_4  and  C_5 
REMARK    2  A    between atoms: C_5  and  C_6 
REMARK    3  A    between atoms: C_7  and  C_8 
REMARK    4  A    between atoms: C_16  and  C_17 
ROOT
HETATM    1  C   UNL     1      40.226  -8.998  11.574  1.00  0.00     0.003 A 
HETATM    2  C   UNL     1      41.339  -9.143  10.746  1.00  0.00     0.029 A 
HETATM    3  C   UNL     1      42.616  -8.861  11.231  1.00  0.00     0.035 A 
HETATM    4  C   UNL     1      42.765  -8.434  12.560  1.00  0.00     0.042 A 
HETATM    5  C   UNL     1      41.649  -8.246  13.394  1.00  0.00    -0.021 A 
HETATM    6  C   UNL     1      40.378  -8.549  12.886  1.00  0.00     0.012 A 
ENDROOT
BRANCH   3   7
HETATM    7  N   UNL     1      43.784  -9.001  10.453  1.00  0.00    -0.327 N 
HETATM    8  C   UNL     1      44.621 -10.100  10.417  1.00  0.00     0.227 C 
HETATM    9  O   UNL     1      44.439 -11.176  10.969  1.00  0.00    -0.273 OA
HETATM   10  H   UNL     1      43.969  -8.264   9.786  1.00  0.00     0.169 HD
BRANCH   8  11
HETATM   11  C   UNL     1      45.788  -9.904   9.506  1.00  0.00     0.089 A 
HETATM   12  C   UNL     1      45.784 -10.384   8.063  1.00  0.00     0.057 A 
HETATM   13  C   UNL     1      45.747  -8.905   8.390  1.00  0.00     0.027 A 
BRANCH  12  14
HETATM   14  C   UNL     1      44.545 -10.956   7.397  1.00  0.00     0.057 A 
HETATM   15  O   UNL     1      43.455 -10.234   7.016  1.00  0.00    -0.327 OA
HETATM   16  C   UNL     1      42.591 -11.091   6.421  1.00  0.00     0.142 A 
HETATM   17  C   UNL     1      43.108 -12.365   6.411  1.00  0.00     0.027 A 
HETATM   18  C   UNL     1      44.372 -12.279   7.045  1.00  0.00     0.035 A 
ENDBRANCH  12  14
ENDBRANCH   8  11
ENDBRANCH   3   7
BRANCH   5  19
HETATM   19  C   UNL     1      41.820  -7.726  14.744  1.00  0.00     0.010 A 
HETATM   20  C   UNL     1      41.141  -8.028  15.951  1.00  0.00     0.152 A 
HETATM   21  N   UNL     1      41.623  -7.359  17.003  1.00  0.00    -0.187 NA
HETATM   22  N   UNL     1      42.617  -6.626  16.478  1.00  0.00    -0.289 N 
HETATM   23  H   UNL     1      43.151  -6.026  17.098  1.00  0.00     0.188 HD
HETATM   24  C   UNL     1      42.777  -6.811  15.135  1.00  0.00     0.123 A 
ENDBRANCH   5  19
TORSDOF 4
ENDMDL
