MODEL 1
REMARK VINA RESULT:      -7.7      0.000      0.000
REMARK  6 active torsions:
REMARK  status: ('A' for Active; 'I' for Inactive)
REMARK    1  A    between atoms: C_2  and  N_3 
REMARK    2  A    between atoms: C_2  and  C_11 
REMARK       I    between atoms: N_3  and  C_4 
REMARK    3  A    between atoms: C_4  and  C_5 
REMARK    4  A    between atoms: C_14  and  O_15 
REMARK    5  A    between atoms: O_15  and  C_16 
REMARK    6  A    between atoms: C_16  and  C_17 
ROOT
HETATM    1  C   UNL     1      42.881 -12.503   4.096  1.00  0.00    -0.036 A 
HETATM    2  C   UNL     1      43.166 -12.890   2.778  1.00  0.00     0.012 A 
HETATM    3  C   UNL     1      42.988 -14.215   2.361  1.00  0.00     0.037 A 
HETATM    4  C   UNL     1      42.534 -15.177   3.262  1.00  0.00     0.069 A 
HETATM    5  C   UNL     1      42.237 -14.799   4.572  1.00  0.00     0.037 A 
HETATM    6  C   UNL     1      42.415 -13.479   4.989  1.00  0.00     0.012 A 
ENDROOT
BRANCH   1   7
HETATM    7  C   UNL     1      43.116 -11.069   4.538  1.00  0.00     0.113 C 
HETATM    8  C   UNL     1      42.078 -10.112   3.944  1.00  0.00     0.037 C 
BRANCH   7   9
HETATM    9  N   UNL     1      43.139 -11.015   5.992  1.00  0.00    -0.352 N 
HETATM   10  C   UNL     1      44.310 -11.025   6.705  1.00  0.00     0.225 C 
HETATM   11  O   UNL     1      45.429 -11.018   6.213  1.00  0.00    -0.273 OA
HETATM   12  H   UNL     1      42.258 -11.100   6.480  1.00  0.00     0.163 HD
BRANCH  10  13
HETATM   13  C   UNL     1      44.119 -11.037   8.172  1.00  0.00     0.119 A 
HETATM   14  C   UNL     1      44.704  -9.941   9.023  1.00  0.00     0.126 A 
HETATM   15 CL   UNL     1      45.365 -10.405  10.592  1.00  0.00    -0.101 Cl
HETATM   16 CL   UNL     1      45.550  -8.585   8.296  1.00  0.00    -0.101 Cl
HETATM   17  C   UNL     1      43.217 -10.025   8.842  1.00  0.00     0.060 A 
ENDBRANCH  10  13
ENDBRANCH   7   9
ENDBRANCH   1   7
BRANCH   4  18
HETATM   18  O   UNL     1      42.328 -16.500   2.989  1.00  0.00    -0.347 OA
BRANCH  18  19
HETATM   19  C   UNL     1      43.376 -17.188   2.306  1.00  0.00     0.215 C 
BRANCH  19  20
HETATM   20  C   UNL     1      43.643 -18.513   2.971  1.00  0.00    -0.017 A 
HETATM   21  C   UNL     1      43.450 -19.721   2.305  1.00  0.00     0.125 A 
HETATM   22  N   UNL     1      43.621 -20.940   2.868  1.00  0.00    -0.272 NA
HETATM   23  C   UNL     1      43.997 -20.961   4.164  1.00  0.00     0.116 A 
HETATM   24  C   UNL     1      44.203 -19.821   4.923  1.00  0.00     0.020 A 
HETATM   25  C   UNL     1      44.017 -18.582   4.317  1.00  0.00     0.012 A 
ENDBRANCH  19  20
ENDBRANCH  18  19
ENDBRANCH   4  18
TORSDOF 6
ENDMDL
MODEL 2
REMARK VINA RESULT:      -7.6      5.540      7.874
REMARK  6 active torsions:
REMARK  status: ('A' for Active; 'I' for Inactive)
REMARK    1  A    between atoms: C_2  and  N_3 
REMARK    2  A    between atoms: C_2  and  C_11 
REMARK       I    between atoms: N_3  and  C_4 
REMARK    3  A    between atoms: C_4  and  C_5 
REMARK    4  A    between atoms: C_14  and  O_15 
REMARK    5  A    between atoms: O_15  and  C_16 
REMARK    6  A    between atoms: C_16  and  C_17 
ROOT
HETATM    1  C   UNL     1      40.717 -14.783   4.374  1.00  0.00    -0.036 A 
HETATM    2  C   UNL     1      40.448 -15.414   3.151  1.00  0.00     0.012 A 
HETATM    3  C   UNL     1      39.885 -14.705   2.082  1.00  0.00     0.037 A 
HETATM    4  C   UNL     1      39.569 -13.356   2.227  1.00  0.00     0.069 A 
HETATM    5  C   UNL     1      39.843 -12.716   3.436  1.00  0.00     0.037 A 
HETATM    6  C   UNL     1      40.403 -13.421   4.503  1.00  0.00     0.012 A 
ENDROOT
BRANCH   1   7
HETATM    7  C   UNL     1      41.293 -15.577   5.533  1.00  0.00     0.113 C 
HETATM    8  C   UNL     1      40.253 -15.819   6.632  1.00  0.00     0.037 C 
BRANCH   7   9
HETATM    9  N   UNL     1      41.852 -16.822   5.028  1.00  0.00    -0.352 N 
HETATM   10  C   UNL     1      43.181 -17.132   5.156  1.00  0.00     0.225 C 
HETATM   11  O   UNL     1      44.005 -16.447   5.744  1.00  0.00    -0.273 OA
HETATM   12  H   UNL     1      41.257 -17.408   4.458  1.00  0.00     0.163 HD
BRANCH  10  13
HETATM   13  C   UNL     1      43.565 -18.408   4.514  1.00  0.00     0.119 A 
HETATM   14  C   UNL     1      43.655 -18.508   3.014  1.00  0.00     0.126 A 
HETATM   15 CL   UNL     1      43.103 -20.011   2.272  1.00  0.00    -0.101 Cl
HETATM   16 CL   UNL     1      43.390 -17.102   1.997  1.00  0.00    -0.101 Cl
HETATM   17  C   UNL     1      44.909 -18.558   3.836  1.00  0.00     0.060 A 
ENDBRANCH  10  13
ENDBRANCH   7   9
ENDBRANCH   1   7
BRANCH   4  18
HETATM   18  O   UNL     1      39.009 -12.554   1.272  1.00  0.00    -0.347 OA
BRANCH  18  19
HETATM   19  C   UNL     1      39.777 -12.324   0.091  1.00  0.00     0.215 C 
BRANCH  19  20
HETATM   20  C   UNL     1      39.133 -13.009  -1.086  1.00  0.00    -0.017 A 
HETATM   21  C   UNL     1      37.966 -12.523  -1.671  1.00  0.00     0.125 A 
HETATM   22  N   UNL     1      37.315 -13.126  -2.692  1.00  0.00    -0.272 NA
HETATM   23  C   UNL     1      37.846 -14.277  -3.154  1.00  0.00     0.116 A 
HETATM   24  C   UNL     1      38.994 -14.855  -2.638  1.00  0.00     0.020 A 
HETATM   25  C   UNL     1      39.641 -14.212  -1.585  1.00  0.00     0.012 A 
ENDBRANCH  19  20
ENDBRANCH  18  19
ENDBRANCH   4  18
TORSDOF 6
ENDMDL
MODEL 3
REMARK VINA RESULT:      -7.6      5.200      6.889
REMARK  6 active torsions:
REMARK  status: ('A' for Active; 'I' for Inactive)
REMARK    1  A    between atoms: C_2  and  N_3 
REMARK    2  A    between atoms: C_2  and  C_11 
REMARK       I    between atoms: N_3  and  C_4 
REMARK    3  A    between atoms: C_4  and  C_5 
REMARK    4  A    between atoms: C_14  and  O_15 
REMARK    5  A    between atoms: O_15  and  C_16 
REMARK    6  A    between atoms: C_16  and  C_17 
ROOT
HETATM    1  C   UNL     1      39.823 -13.512   2.972  1.00  0.00    -0.036 A 
HETATM    2  C   UNL     1      39.789 -14.816   2.457  1.00  0.00     0.012 A 
HETATM    3  C   UNL     1      40.608 -15.822   2.985  1.00  0.00     0.037 A 
HETATM    4  C   UNL     1      41.483 -15.535   4.030  1.00  0.00     0.069 A 
HETATM    5  C   UNL     1      41.517 -14.244   4.557  1.00  0.00     0.037 A 
HETATM    6  C   UNL     1      40.703 -13.239   4.031  1.00  0.00     0.012 A 
ENDROOT
BRANCH   1   7
HETATM    7  C   UNL     1      38.955 -12.426   2.361  1.00  0.00     0.113 C 
HETATM    8  C   UNL     1      39.034 -11.119   3.156  1.00  0.00     0.037 C 
BRANCH   7   9
HETATM    9  N   UNL     1      39.332 -12.241   0.968  1.00  0.00    -0.352 N 
HETATM   10  C   UNL     1      38.440 -11.805   0.022  1.00  0.00     0.225 C 
HETATM   11  O   UNL     1      37.285 -11.475   0.249  1.00  0.00    -0.273 OA
HETATM   12  H   UNL     1      40.244 -12.567   0.679  1.00  0.00     0.163 HD
BRANCH  10  13
HETATM   13  C   UNL     1      38.996 -11.750  -1.348  1.00  0.00     0.119 A 
HETATM   14  C   UNL     1      39.500 -13.003  -2.014  1.00  0.00     0.126 A 
HETATM   15 CL   UNL     1      40.947 -12.858  -3.013  1.00  0.00    -0.101 Cl
HETATM   16 CL   UNL     1      39.366 -14.565  -1.222  1.00  0.00    -0.101 Cl
HETATM   17  C   UNL     1      38.243 -12.354  -2.512  1.00  0.00     0.060 A 
ENDBRANCH  10  13
ENDBRANCH   7   9
ENDBRANCH   1   7
BRANCH   4  18
HETATM   18  O   UNL     1      42.340 -16.417   4.627  1.00  0.00    -0.347 OA
BRANCH  18  19
HETATM   19  C   UNL     1      43.546 -16.720   3.926  1.00  0.00     0.215 C 
BRANCH  19  20
HETATM   20  C   UNL     1      43.601 -18.191   3.604  1.00  0.00    -0.017 A 
HETATM   21  C   UNL     1      44.084 -19.125   4.517  1.00  0.00     0.125 A 
HETATM   22  N   UNL     1      44.208 -20.448   4.263  1.00  0.00    -0.272 NA
HETATM   23  C   UNL     1      43.839 -20.866   3.035  1.00  0.00     0.116 A 
HETATM   24  C   UNL     1      43.358 -20.022   2.048  1.00  0.00     0.020 A 
HETATM   25  C   UNL     1      43.244 -18.665   2.338  1.00  0.00     0.012 A 
ENDBRANCH  19  20
ENDBRANCH  18  19
ENDBRANCH   4  18
TORSDOF 6
ENDMDL
MODEL 4
REMARK VINA RESULT:      -7.5      4.362      6.395
REMARK  6 active torsions:
REMARK  status: ('A' for Active; 'I' for Inactive)
REMARK    1  A    between atoms: C_2  and  N_3 
REMARK    2  A    between atoms: C_2  and  C_11 
REMARK       I    between atoms: N_3  and  C_4 
REMARK    3  A    between atoms: C_4  and  C_5 
REMARK    4  A    between atoms: C_14  and  O_15 
REMARK    5  A    between atoms: O_15  and  C_16 
REMARK    6  A    between atoms: C_16  and  C_17 
ROOT
HETATM    1  C   UNL     1      42.345 -16.269   3.995  1.00  0.00    -0.036 A 
HETATM    2  C   UNL     1      40.950 -16.159   4.090  1.00  0.00     0.012 A 
HETATM    3  C   UNL     1      40.169 -15.891   2.958  1.00  0.00     0.037 A 
HETATM    4  C   UNL     1      40.775 -15.716   1.716  1.00  0.00     0.069 A 
HETATM    5  C   UNL     1      42.161 -15.835   1.609  1.00  0.00     0.037 A 
HETATM    6  C   UNL     1      42.941 -16.101   2.736  1.00  0.00     0.012 A 
ENDROOT
BRANCH   1   7
HETATM    7  C   UNL     1      43.177 -16.523   5.240  1.00  0.00     0.113 C 
HETATM    8  C   UNL     1      44.255 -17.586   4.998  1.00  0.00     0.037 C 
BRANCH   7   9
HETATM    9  N   UNL     1      43.745 -15.265   5.700  1.00  0.00    -0.352 N 
HETATM   10  C   UNL     1      43.076 -14.434   6.561  1.00  0.00     0.225 C 
HETATM   11  O   UNL     1      41.992 -14.679   7.069  1.00  0.00    -0.273 OA
HETATM   12  H   UNL     1      44.602 -14.949   5.267  1.00  0.00     0.163 HD
BRANCH  10  13
HETATM   13  C   UNL     1      43.790 -13.171   6.852  1.00  0.00     0.119 A 
HETATM   14  C   UNL     1      44.029 -12.164   5.759  1.00  0.00     0.126 A 
HETATM   15 CL   UNL     1      45.575 -11.313   5.772  1.00  0.00    -0.101 Cl
HETATM   16 CL   UNL     1      43.400 -12.420   4.140  1.00  0.00    -0.101 Cl
HETATM   17  C   UNL     1      43.054 -11.851   6.854  1.00  0.00     0.060 A 
ENDBRANCH  10  13
ENDBRANCH   7   9
ENDBRANCH   1   7
BRANCH   4  18
HETATM   18  O   UNL     1      40.134 -15.441   0.540  1.00  0.00    -0.347 OA
BRANCH  18  19
HETATM   19  C   UNL     1      40.429 -14.188  -0.077  1.00  0.00     0.215 C 
BRANCH  19  20
HETATM   20  C   UNL     1      39.382 -13.861  -1.110  1.00  0.00    -0.017 A 
HETATM   21  C   UNL     1      38.573 -12.733  -1.003  1.00  0.00     0.125 A 
HETATM   22  N   UNL     1      37.581 -12.420  -1.869  1.00  0.00    -0.272 NA
HETATM   23  C   UNL     1      37.377 -13.275  -2.892  1.00  0.00     0.116 A 
HETATM   24  C   UNL     1      38.114 -14.432  -3.085  1.00  0.00     0.020 A 
HETATM   25  C   UNL     1      39.126 -14.729  -2.176  1.00  0.00     0.012 A 
ENDBRANCH  19  20
ENDBRANCH  18  19
ENDBRANCH   4  18
TORSDOF 6
ENDMDL
MODEL 5
REMARK VINA RESULT:      -7.5      1.691      2.105
REMARK  6 active torsions:
REMARK  status: ('A' for Active; 'I' for Inactive)
REMARK    1  A    between atoms: C_2  and  N_3 
REMARK    2  A    between atoms: C_2  and  C_11 
REMARK       I    between atoms: N_3  and  C_4 
REMARK    3  A    between atoms: C_4  and  C_5 
REMARK    4  A    between atoms: C_14  and  O_15 
REMARK    5  A    between atoms: O_15  and  C_16 
REMARK    6  A    between atoms: C_16  and  C_17 
ROOT
HETATM    1  C   UNL     1      42.466 -12.240   5.747  1.00  0.00    -0.036 A 
HETATM    2  C   UNL     1      42.086 -12.759   4.501  1.00  0.00     0.012 A 
HETATM    3  C   UNL     1      42.427 -14.066   4.130  1.00  0.00     0.037 A 
HETATM    4  C   UNL     1      43.165 -14.869   4.997  1.00  0.00     0.069 A 
HETATM    5  C   UNL     1      43.538 -14.365   6.244  1.00  0.00     0.037 A 
HETATM    6  C   UNL     1      43.200 -13.062   6.615  1.00  0.00     0.012 A 
ENDROOT
BRANCH   1   7
HETATM    7  C   UNL     1      42.119 -10.808   6.116  1.00  0.00     0.113 C 
HETATM    8  C   UNL     1      40.747 -10.395   5.569  1.00  0.00     0.037 C 
BRANCH   7   9
HETATM    9  N   UNL     1      42.199 -10.652   7.560  1.00  0.00    -0.352 N 
HETATM   10  C   UNL     1      42.656  -9.500   8.147  1.00  0.00     0.225 C 
HETATM   11  O   UNL     1      42.976  -8.487   7.542  1.00  0.00    -0.273 OA
HETATM   12  H   UNL     1      42.031 -11.469   8.132  1.00  0.00     0.163 HD
BRANCH  10  13
HETATM   13  C   UNL     1      42.729  -9.566   9.623  1.00  0.00     0.119 A 
HETATM   14  C   UNL     1      43.992 -10.028  10.300  1.00  0.00     0.126 A 
HETATM   15 CL   UNL     1      43.813 -11.029  11.743  1.00  0.00    -0.101 Cl
HETATM   16 CL   UNL     1      45.428 -10.418   9.368  1.00  0.00    -0.101 Cl
HETATM   17  C   UNL     1      43.583  -8.588  10.398  1.00  0.00     0.060 A 
ENDBRANCH  10  13
ENDBRANCH   7   9
ENDBRANCH   1   7
BRANCH   4  18
HETATM   18  O   UNL     1      43.571 -16.151   4.756  1.00  0.00    -0.347 OA
BRANCH  18  19
HETATM   19  C   UNL     1      43.366 -16.655   3.436  1.00  0.00     0.215 C 
BRANCH  19  20
HETATM   20  C   UNL     1      43.507 -18.155   3.428  1.00  0.00    -0.017 A 
HETATM   21  C   UNL     1      44.019 -18.851   4.521  1.00  0.00     0.125 A 
HETATM   22  N   UNL     1      44.219 -20.189   4.548  1.00  0.00    -0.272 NA
HETATM   23  C   UNL     1      43.900 -20.873   3.430  1.00  0.00     0.116 A 
HETATM   24  C   UNL     1      43.397 -20.279   2.284  1.00  0.00     0.020 A 
HETATM   25  C   UNL     1      43.204 -18.901   2.284  1.00  0.00     0.012 A 
ENDBRANCH  19  20
ENDBRANCH  18  19
ENDBRANCH   4  18
TORSDOF 6
ENDMDL
MODEL 6
REMARK VINA RESULT:      -7.5      7.431     13.015
REMARK  6 active torsions:
REMARK  status: ('A' for Active; 'I' for Inactive)
REMARK    1  A    between atoms: C_2  and  N_3 
REMARK    2  A    between atoms: C_2  and  C_11 
REMARK       I    between atoms: N_3  and  C_4 
REMARK    3  A    between atoms: C_4  and  C_5 
REMARK    4  A    between atoms: C_14  and  O_15 
REMARK    5  A    between atoms: O_15  and  C_16 
REMARK    6  A    between atoms: C_16  and  C_17 
ROOT
HETATM    1  C   UNL     1      42.010  -8.918  12.878  1.00  0.00    -0.036 A 
HETATM    2  C   UNL     1      41.122  -9.118  13.946  1.00  0.00     0.012 A 
HETATM    3  C   UNL     1      41.244  -8.382  15.132  1.00  0.00     0.037 A 
HETATM    4  C   UNL     1      42.264  -7.445  15.272  1.00  0.00     0.069 A 
HETATM    5  C   UNL     1      43.145  -7.230  14.211  1.00  0.00     0.037 A 
HETATM    6  C   UNL     1      43.027  -7.964  13.029  1.00  0.00     0.012 A 
ENDROOT
BRANCH   1   7
HETATM    7  C   UNL     1      41.884  -9.752  11.615  1.00  0.00     0.113 C 
HETATM    8  C   UNL     1      40.571  -9.472  10.875  1.00  0.00     0.037 C 
BRANCH   7   9
HETATM    9  N   UNL     1      43.046  -9.518  10.771  1.00  0.00    -0.352 N 
HETATM   10  C   UNL     1      44.083 -10.412  10.691  1.00  0.00     0.225 C 
HETATM   11  O   UNL     1      44.116 -11.496  11.255  1.00  0.00    -0.273 OA
HETATM   12  H   UNL     1      43.136  -8.611  10.334  1.00  0.00     0.163 HD
BRANCH  10  13
HETATM   13  C   UNL     1      45.201  -9.959   9.836  1.00  0.00     0.119 A 
HETATM   14  C   UNL     1      45.162 -10.190   8.349  1.00  0.00     0.126 A 
HETATM   15 CL   UNL     1      46.681 -10.617   7.559  1.00  0.00    -0.101 Cl
HETATM   16 CL   UNL     1      43.761 -10.920   7.584  1.00  0.00    -0.101 Cl
HETATM   17  C   UNL     1      45.026  -8.796   8.886  1.00  0.00     0.060 A 
ENDBRANCH  10  13
ENDBRANCH   7   9
ENDBRANCH   1   7
BRANCH   4  18
HETATM   18  O   UNL     1      42.501  -6.672  16.374  1.00  0.00    -0.347 OA
BRANCH  18  19
HETATM   19  C   UNL     1      41.360  -6.246  17.119  1.00  0.00     0.215 C 
BRANCH  19  20
HETATM   20  C   UNL     1      41.106  -7.193  18.262  1.00  0.00    -0.017 A 
HETATM   21  C   UNL     1      42.141  -7.683  19.055  1.00  0.00     0.125 A 
HETATM   22  N   UNL     1      41.978  -8.577  20.057  1.00  0.00    -0.272 NA
HETATM   23  C   UNL     1      40.722  -9.015  20.281  1.00  0.00     0.116 A 
HETATM   24  C   UNL     1      39.623  -8.604  19.544  1.00  0.00     0.020 A 
HETATM   25  C   UNL     1      39.822  -7.685  18.518  1.00  0.00     0.012 A 
ENDBRANCH  19  20
ENDBRANCH  18  19
ENDBRANCH   4  18
TORSDOF 6
ENDMDL
MODEL 7
REMARK VINA RESULT:      -7.4      2.080      2.905
REMARK  6 active torsions:
REMARK  status: ('A' for Active; 'I' for Inactive)
REMARK    1  A    between atoms: C_2  and  N_3 
REMARK    2  A    between atoms: C_2  and  C_11 
REMARK       I    between atoms: N_3  and  C_4 
REMARK    3  A    between atoms: C_4  and  C_5 
REMARK    4  A    between atoms: C_14  and  O_15 
REMARK    5  A    between atoms: O_15  and  C_16 
REMARK    6  A    between atoms: C_16  and  C_17 
ROOT
HETATM    1  C   UNL     1      43.930 -12.593   6.666  1.00  0.00    -0.036 A 
HETATM    2  C   UNL     1      43.689 -12.250   5.327  1.00  0.00     0.012 A 
HETATM    3  C   UNL     1      43.108 -13.167   4.442  1.00  0.00     0.037 A 
HETATM    4  C   UNL     1      42.771 -14.445   4.881  1.00  0.00     0.069 A 
HETATM    5  C   UNL     1      42.996 -14.792   6.213  1.00  0.00     0.037 A 
HETATM    6  C   UNL     1      43.577 -13.880   7.097  1.00  0.00     0.012 A 
ENDROOT
BRANCH   1   7
HETATM    7  C   UNL     1      44.596 -11.598   7.600  1.00  0.00     0.113 C 
HETATM    8  C   UNL     1      45.786 -10.898   6.934  1.00  0.00     0.037 C 
BRANCH   7   9
HETATM    9  N   UNL     1      43.601 -10.648   8.074  1.00  0.00    -0.352 N 
HETATM   10  C   UNL     1      43.428 -10.376   9.407  1.00  0.00     0.225 C 
HETATM   11  O   UNL     1      44.109 -10.839  10.310  1.00  0.00    -0.273 OA
HETATM   12  H   UNL     1      42.942 -10.281   7.401  1.00  0.00     0.163 HD
BRANCH  10  13
HETATM   13  C   UNL     1      42.319  -9.438   9.689  1.00  0.00     0.119 A 
HETATM   14  C   UNL     1      42.353  -8.569  10.918  1.00  0.00     0.126 A 
HETATM   15 CL   UNL     1      40.825  -8.302  11.759  1.00  0.00    -0.101 Cl
HETATM   16 CL   UNL     1      43.738  -8.583  11.997  1.00  0.00    -0.101 Cl
HETATM   17  C   UNL     1      42.520  -7.944   9.564  1.00  0.00     0.060 A 
ENDBRANCH  10  13
ENDBRANCH   7   9
ENDBRANCH   1   7
BRANCH   4  18
HETATM   18  O   UNL     1      42.210 -15.435   4.121  1.00  0.00    -0.347 OA
BRANCH  18  19
HETATM   19  C   UNL     1      42.969 -15.899   3.005  1.00  0.00     0.215 C 
BRANCH  19  20
HETATM   20  C   UNL     1      43.257 -17.371   3.153  1.00  0.00    -0.017 A 
HETATM   21  C   UNL     1      43.928 -17.880   4.262  1.00  0.00     0.125 A 
HETATM   22  N   UNL     1      44.262 -19.182   4.421  1.00  0.00    -0.272 NA
HETATM   23  C   UNL     1      43.917 -20.022   3.423  1.00  0.00     0.116 A 
HETATM   24  C   UNL     1      43.261 -19.619   2.272  1.00  0.00     0.020 A 
HETATM   25  C   UNL     1      42.933 -18.273   2.136  1.00  0.00     0.012 A 
ENDBRANCH  19  20
ENDBRANCH  18  19
ENDBRANCH   4  18
TORSDOF 6
ENDMDL
MODEL 8
REMARK VINA RESULT:      -7.4      5.240      6.666
REMARK  6 active torsions:
REMARK  status: ('A' for Active; 'I' for Inactive)
REMARK    1  A    between atoms: C_2  and  N_3 
REMARK    2  A    between atoms: C_2  and  C_11 
REMARK       I    between atoms: N_3  and  C_4 
REMARK    3  A    between atoms: C_4  and  C_5 
REMARK    4  A    between atoms: C_14  and  O_15 
REMARK    5  A    between atoms: O_15  and  C_16 
REMARK    6  A    between atoms: C_16  and  C_17 
ROOT
HETATM    1  C   UNL     1      40.416 -14.503   0.157  1.00  0.00    -0.036 A 
HETATM    2  C   UNL     1      39.801 -15.608   0.764  1.00  0.00     0.012 A 
HETATM    3  C   UNL     1      40.303 -16.150   1.953  1.00  0.00     0.037 A 
HETATM    4  C   UNL     1      41.438 -15.602   2.547  1.00  0.00     0.069 A 
HETATM    5  C   UNL     1      42.050 -14.495   1.958  1.00  0.00     0.037 A 
HETATM    6  C   UNL     1      41.552 -13.955   0.771  1.00  0.00     0.012 A 
ENDROOT
BRANCH   1   7
HETATM    7  C   UNL     1      39.878 -13.953  -1.152  1.00  0.00     0.113 C 
HETATM    8  C   UNL     1      39.166 -15.034  -1.975  1.00  0.00     0.037 C 
BRANCH   7   9
HETATM    9  N   UNL     1      39.009 -12.819  -0.874  1.00  0.00    -0.352 N 
HETATM   10  C   UNL     1      39.447 -11.524  -0.968  1.00  0.00     0.225 C 
HETATM   11  O   UNL     1      40.561 -11.187  -1.343  1.00  0.00    -0.273 OA
HETATM   12  H   UNL     1      38.098 -13.010  -0.480  1.00  0.00     0.163 HD
BRANCH  10  13
HETATM   13  C   UNL     1      38.436 -10.518  -0.575  1.00  0.00     0.119 A 
HETATM   14  C   UNL     1      37.769 -10.598   0.772  1.00  0.00     0.126 A 
HETATM   15 CL   UNL     1      36.056 -10.181   0.849  1.00  0.00    -0.101 Cl
HETATM   16 CL   UNL     1      38.229 -11.827   1.939  1.00  0.00    -0.101 Cl
HETATM   17  C   UNL     1      38.742  -9.491   0.492  1.00  0.00     0.060 A 
ENDBRANCH  10  13
ENDBRANCH   7   9
ENDBRANCH   1   7
BRANCH   4  18
HETATM   18  O   UNL     1      42.035 -16.039   3.697  1.00  0.00    -0.347 OA
BRANCH  18  19
HETATM   19  C   UNL     1      43.402 -16.438   3.602  1.00  0.00     0.215 C 
BRANCH  19  20
HETATM   20  C   UNL     1      43.496 -17.936   3.474  1.00  0.00    -0.017 A 
HETATM   21  C   UNL     1      43.995 -18.731   4.503  1.00  0.00     0.125 A 
HETATM   22  N   UNL     1      44.154 -20.072   4.423  1.00  0.00    -0.272 NA
HETATM   23  C   UNL     1      43.805 -20.655   3.257  1.00  0.00     0.116 A 
HETATM   24  C   UNL     1      43.312 -19.959   2.167  1.00  0.00     0.020 A 
HETATM   25  C   UNL     1      43.162 -18.579   2.278  1.00  0.00     0.012 A 
ENDBRANCH  19  20
ENDBRANCH  18  19
ENDBRANCH   4  18
TORSDOF 6
ENDMDL
MODEL 9
REMARK VINA RESULT:      -7.2      2.231      3.051
REMARK  6 active torsions:
REMARK  status: ('A' for Active; 'I' for Inactive)
REMARK    1  A    between atoms: C_2  and  N_3 
REMARK    2  A    between atoms: C_2  and  C_11 
REMARK       I    between atoms: N_3  and  C_4 
REMARK    3  A    between atoms: C_4  and  C_5 
REMARK    4  A    between atoms: C_14  and  O_15 
REMARK    5  A    between atoms: O_15  and  C_16 
REMARK    6  A    between atoms: C_16  and  C_17 
ROOT
HETATM    1  C   UNL     1      42.995 -11.316   6.581  1.00  0.00    -0.036 A 
HETATM    2  C   UNL     1      43.944 -12.224   7.074  1.00  0.00     0.012 A 
HETATM    3  C   UNL     1      43.935 -13.566   6.673  1.00  0.00     0.037 A 
HETATM    4  C   UNL     1      42.966 -14.023   5.782  1.00  0.00     0.069 A 
HETATM    5  C   UNL     1      42.024 -13.126   5.277  1.00  0.00     0.037 A 
HETATM    6  C   UNL     1      42.031 -11.788   5.677  1.00  0.00     0.012 A 
ENDROOT
BRANCH   1   7
HETATM    7  C   UNL     1      42.998  -9.874   7.057  1.00  0.00     0.113 C 
HETATM    8  C   UNL     1      41.704  -9.146   6.678  1.00  0.00     0.037 C 
BRANCH   7   9
HETATM    9  N   UNL     1      43.241  -9.844   8.491  1.00  0.00    -0.352 N 
HETATM   10  C   UNL     1      44.037  -8.894   9.077  1.00  0.00     0.225 C 
HETATM   11  O   UNL     1      44.562  -7.960   8.488  1.00  0.00    -0.273 OA
HETATM   12  H   UNL     1      42.911 -10.626   9.041  1.00  0.00     0.163 HD
BRANCH  10  13
HETATM   13  C   UNL     1      44.217  -9.077  10.534  1.00  0.00     0.119 A 
HETATM   14  C   UNL     1      43.078  -8.809  11.480  1.00  0.00     0.126 A 
HETATM   15 CL   UNL     1      43.473  -8.052  13.025  1.00  0.00    -0.101 Cl
HETATM   16 CL   UNL     1      41.491  -8.356  10.880  1.00  0.00    -0.101 Cl
HETATM   17  C   UNL     1      43.540 -10.219  11.259  1.00  0.00     0.060 A 
ENDBRANCH  10  13
ENDBRANCH   7   9
ENDBRANCH   1   7
BRANCH   4  18
HETATM   18  O   UNL     1      42.839 -15.303   5.320  1.00  0.00    -0.347 OA
BRANCH  18  19
HETATM   19  C   UNL     1      43.072 -15.513   3.928  1.00  0.00     0.215 C 
BRANCH  19  20
HETATM   20  C   UNL     1      43.309 -16.976   3.658  1.00  0.00    -0.017 A 
HETATM   21  C   UNL     1      44.076 -17.765   4.512  1.00  0.00     0.125 A 
HETATM   22  N   UNL     1      44.368 -19.067   4.291  1.00  0.00    -0.272 NA
HETATM   23  C   UNL     1      43.879 -19.615   3.159  1.00  0.00     0.116 A 
HETATM   24  C   UNL     1      43.117 -18.918   2.236  1.00  0.00     0.020 A 
HETATM   25  C   UNL     1      42.835 -17.579   2.489  1.00  0.00     0.012 A 
ENDBRANCH  19  20
ENDBRANCH  18  19
ENDBRANCH   4  18
TORSDOF 6
ENDMDL
MODEL 10
REMARK VINA RESULT:      -7.1      2.977      4.678
REMARK  6 active torsions:
REMARK  status: ('A' for Active; 'I' for Inactive)
REMARK    1  A    between atoms: C_2  and  N_3 
REMARK    2  A    between atoms: C_2  and  C_11 
REMARK       I    between atoms: N_3  and  C_4 
REMARK    3  A    between atoms: C_4  and  C_5 
REMARK    4  A    between atoms: C_14  and  O_15 
REMARK    5  A    between atoms: O_15  and  C_16 
REMARK    6  A    between atoms: C_16  and  C_17 
ROOT
HETATM    1  C   UNL     1      44.503 -10.795   7.676  1.00  0.00    -0.036 A 
HETATM    2  C   UNL     1      43.343 -10.094   7.315  1.00  0.00     0.012 A 
HETATM    3  C   UNL     1      42.421 -10.640   6.413  1.00  0.00     0.037 A 
HETATM    4  C   UNL     1      42.654 -11.892   5.848  1.00  0.00     0.069 A 
HETATM    5  C   UNL     1      43.799 -12.603   6.208  1.00  0.00     0.037 A 
HETATM    6  C   UNL     1      44.720 -12.059   7.106  1.00  0.00     0.012 A 
ENDROOT
BRANCH   1   7
HETATM    7  C   UNL     1      45.508 -10.170   8.627  1.00  0.00     0.113 C 
HETATM    8  C   UNL     1      46.573  -9.360   7.879  1.00  0.00     0.037 C 
BRANCH   7   9
HETATM    9  N   UNL     1      44.800  -9.363   9.609  1.00  0.00    -0.352 N 
HETATM   10  C   UNL     1      44.374  -9.877  10.806  1.00  0.00     0.225 C 
HETATM   11  O   UNL     1      44.590 -11.015  11.195  1.00  0.00    -0.273 OA
HETATM   12  H   UNL     1      44.509  -8.434   9.334  1.00  0.00     0.163 HD
BRANCH  10  13
HETATM   13  C   UNL     1      43.610  -8.917  11.634  1.00  0.00     0.119 A 
HETATM   14  C   UNL     1      42.161  -8.641  11.335  1.00  0.00     0.126 A 
HETATM   15 CL   UNL     1      41.601  -6.979  11.528  1.00  0.00    -0.101 Cl
HETATM   16 CL   UNL     1      41.320  -9.506  10.059  1.00  0.00    -0.101 Cl
HETATM   17  C   UNL     1      42.530  -9.399  12.576  1.00  0.00     0.060 A 
ENDBRANCH  10  13
ENDBRANCH   7   9
ENDBRANCH   1   7
BRANCH   4  18
HETATM   18  O   UNL     1      41.845 -12.532   4.950  1.00  0.00    -0.347 OA
BRANCH  18  19
HETATM   19  C   UNL     1      42.297 -12.584   3.597  1.00  0.00     0.215 C 
BRANCH  19  20
HETATM   20  C   UNL     1      42.328 -14.011   3.117  1.00  0.00    -0.017 A 
HETATM   21  C   UNL     1      41.516 -14.993   3.680  1.00  0.00     0.125 A 
HETATM   22  N   UNL     1      41.542 -16.299   3.326  1.00  0.00    -0.272 NA
HETATM   23  C   UNL     1      42.424 -16.651   2.368  1.00  0.00     0.116 A 
HETATM   24  C   UNL     1      43.286 -15.759   1.753  1.00  0.00     0.020 A 
HETATM   25  C   UNL     1      43.239 -14.423   2.139  1.00  0.00     0.012 A 
ENDBRANCH  19  20
ENDBRANCH  18  19
ENDBRANCH   4  18
TORSDOF 6
ENDMDL
