MODEL 1
REMARK VINA RESULT:      -7.9      0.000      0.000
REMARK  3 active torsions:
REMARK  status: ('A' for Active; 'I' for Inactive)
REMARK    1  A    between atoms: C_9  and  C_10 
REMARK    2  A    between atoms: C_16  and  C_17 
REMARK       I    between atoms: C_17  and  N_18 
REMARK    3  A    between atoms: N_18  and  C_19 
ROOT
HETATM    1  C   UNL     1      43.866 -14.273   6.658  1.00  0.00     0.070 C 
HETATM    2  C   UNL     1      42.674 -13.768   5.885  1.00  0.00     0.037 C 
HETATM    3  N   UNL     1      42.421 -12.403   5.993  1.00  0.00    -0.191 N 
HETATM    4  C   UNL     1      41.281 -11.831   5.554  1.00  0.00     0.735 A 
HETATM    5  N   UNL     1      40.382 -12.585   4.854  1.00  0.00    -0.092 N 
HETATM    6  N   UNL     1      39.292 -11.859   4.562  1.00  0.00     0.012 NA
HETATM    7  N   UNL     1      39.555 -10.653   5.055  1.00  0.00     0.033 NA
HETATM    8  N   UNL     1      40.791 -10.622   5.676  1.00  0.00     0.030 NA
HETATM    9  C   UNL     1      40.565 -13.993   4.512  1.00  0.00     0.199 C 
HETATM   10  C   UNL     1      41.826 -14.551   5.173  1.00  0.00     0.062 C 
HETATM   11  H   UNL     1      43.031 -11.857   6.599  1.00  0.00     0.184 HD
ENDROOT
BRANCH  10  12
HETATM   12  C   UNL     1      41.964 -16.026   5.049  1.00  0.00     0.256 C 
HETATM   13  N   UNL     1      42.872 -16.415   4.092  1.00  0.00    -0.322 N 
HETATM   14  H   UNL     1      43.330 -15.689   3.555  1.00  0.00     0.169 HD
HETATM   15  O   UNL     1      41.247 -16.746   5.732  1.00  0.00    -0.267 OA
BRANCH  13  16
HETATM   16  C   UNL     1      43.234 -17.741   3.771  1.00  0.00     0.052 A 
HETATM   17  C   UNL     1      43.934 -18.608   4.606  1.00  0.00     0.145 A 
HETATM   18  N   UNL     1      44.283 -19.875   4.268  1.00  0.00    -0.271 NA
HETATM   19  C   UNL     1      43.922 -20.303   3.042  1.00  0.00     0.116 A 
HETATM   20  C   UNL     1      43.225 -19.523   2.136  1.00  0.00     0.021 A 
HETATM   21  C   UNL     1      42.876 -18.226   2.510  1.00  0.00     0.032 A 
ENDBRANCH  13  16
ENDBRANCH  10  12
BRANCH   9  22
HETATM   22  C   UNL     1      40.588 -14.186   3.004  1.00  0.00    -0.011 A 
HETATM   23  C   UNL     1      41.351 -13.381   2.160  1.00  0.00     0.125 A 
HETATM   24  N   UNL     1      41.442 -13.555   0.824  1.00  0.00    -0.272 NA
HETATM   25  C   UNL     1      40.726 -14.566   0.288  1.00  0.00     0.116 A 
HETATM   26  C   UNL     1      39.938 -15.426   1.033  1.00  0.00     0.020 A 
HETATM   27  C   UNL     1      39.876 -15.236   2.410  1.00  0.00     0.012 A 
ENDBRANCH   9  22
TORSDOF 3
ENDMDL
MODEL 2
REMARK VINA RESULT:      -7.7      1.793      4.128
REMARK  3 active torsions:
REMARK  status: ('A' for Active; 'I' for Inactive)
REMARK    1  A    between atoms: C_9  and  C_10 
REMARK    2  A    between atoms: C_16  and  C_17 
REMARK       I    between atoms: C_17  and  N_18 
REMARK    3  A    between atoms: N_18  and  C_19 
ROOT
HETATM    1  C   UNL     1      39.813 -15.404   0.011  1.00  0.00     0.070 C 
HETATM    2  C   UNL     1      40.389 -14.186   0.689  1.00  0.00     0.037 C 
HETATM    3  N   UNL     1      40.249 -12.988  -0.007  1.00  0.00    -0.191 N 
HETATM    4  C   UNL     1      40.894 -11.856   0.345  1.00  0.00     0.735 A 
HETATM    5  N   UNL     1      41.614 -11.831   1.505  1.00  0.00    -0.092 N 
HETATM    6  N   UNL     1      42.229 -10.647   1.646  1.00  0.00     0.012 NA
HETATM    7  N   UNL     1      41.843  -9.944   0.585  1.00  0.00     0.033 NA
HETATM    8  N   UNL     1      41.011 -10.687  -0.233  1.00  0.00     0.030 NA
HETATM    9  C   UNL     1      41.733 -12.951   2.435  1.00  0.00     0.199 C 
HETATM   10  C   UNL     1      41.070 -14.203   1.862  1.00  0.00     0.062 C 
HETATM   11  H   UNL     1      39.803 -13.024  -0.921  1.00  0.00     0.184 HD
ENDROOT
BRANCH  10  12
HETATM   12  C   UNL     1      41.334 -15.435   2.650  1.00  0.00     0.256 C 
HETATM   13  N   UNL     1      42.600 -15.944   2.469  1.00  0.00    -0.322 N 
HETATM   14  H   UNL     1      43.209 -15.468   1.815  1.00  0.00     0.169 HD
HETATM   15  O   UNL     1      40.428 -15.913   3.320  1.00  0.00    -0.267 OA
BRANCH  13  16
HETATM   16  C   UNL     1      43.144 -17.081   3.104  1.00  0.00     0.052 A 
HETATM   17  C   UNL     1      43.652 -17.111   4.400  1.00  0.00     0.145 A 
HETATM   18  N   UNL     1      44.184 -18.216   4.984  1.00  0.00    -0.271 NA
HETATM   19  C   UNL     1      44.216 -19.342   4.245  1.00  0.00     0.116 A 
HETATM   20  C   UNL     1      43.738 -19.420   2.949  1.00  0.00     0.021 A 
HETATM   21  C   UNL     1      43.193 -18.271   2.375  1.00  0.00     0.032 A 
ENDBRANCH  13  16
ENDBRANCH  10  12
BRANCH   9  22
HETATM   22  C   UNL     1      41.165 -12.587   3.797  1.00  0.00    -0.011 A 
HETATM   23  C   UNL     1      41.978 -12.324   4.898  1.00  0.00     0.125 A 
HETATM   24  N   UNL     1      41.516 -11.943   6.109  1.00  0.00    -0.272 NA
HETATM   25  C   UNL     1      40.177 -11.834   6.246  1.00  0.00     0.116 A 
HETATM   26  C   UNL     1      39.280 -12.069   5.219  1.00  0.00     0.020 A 
HETATM   27  C   UNL     1      39.783 -12.443   3.977  1.00  0.00     0.012 A 
ENDBRANCH   9  22
TORSDOF 3
ENDMDL
MODEL 3
REMARK VINA RESULT:      -7.6      2.089      5.905
REMARK  3 active torsions:
REMARK  status: ('A' for Active; 'I' for Inactive)
REMARK    1  A    between atoms: C_9  and  C_10 
REMARK    2  A    between atoms: C_16  and  C_17 
REMARK       I    between atoms: C_17  and  N_18 
REMARK    3  A    between atoms: N_18  and  C_19 
ROOT
HETATM    1  C   UNL     1      43.225 -16.499   1.691  1.00  0.00     0.070 C 
HETATM    2  C   UNL     1      42.848 -16.182   3.117  1.00  0.00     0.037 C 
HETATM    3  N   UNL     1      43.783 -16.545   4.081  1.00  0.00    -0.191 N 
HETATM    4  C   UNL     1      43.514 -16.539   5.403  1.00  0.00     0.735 A 
HETATM    5  N   UNL     1      42.322 -16.032   5.840  1.00  0.00    -0.092 N 
HETATM    6  N   UNL     1      42.216 -16.172   7.169  1.00  0.00     0.012 NA
HETATM    7  N   UNL     1      43.365 -16.729   7.538  1.00  0.00     0.033 NA
HETATM    8  N   UNL     1      44.182 -16.962   6.447  1.00  0.00     0.030 NA
HETATM    9  C   UNL     1      41.294 -15.461   4.973  1.00  0.00     0.199 C 
HETATM   10  C   UNL     1      41.663 -15.646   3.501  1.00  0.00     0.062 C 
HETATM   11  H   UNL     1      44.628 -17.017   3.764  1.00  0.00     0.184 HD
ENDROOT
BRANCH  10  12
HETATM   12  C   UNL     1      40.570 -15.285   2.561  1.00  0.00     0.256 C 
HETATM   13  N   UNL     1      40.888 -14.243   1.720  1.00  0.00    -0.322 N 
HETATM   14  H   UNL     1      41.796 -13.809   1.832  1.00  0.00     0.169 HD
HETATM   15  O   UNL     1      39.500 -15.874   2.645  1.00  0.00    -0.267 OA
BRANCH  13  16
HETATM   16  C   UNL     1      40.066 -13.703   0.708  1.00  0.00     0.052 A 
HETATM   17  C   UNL     1      39.366 -12.502   0.795  1.00  0.00     0.145 A 
HETATM   18  N   UNL     1      38.570 -12.012  -0.189  1.00  0.00    -0.271 NA
HETATM   19  C   UNL     1      38.460 -12.749  -1.311  1.00  0.00     0.116 A 
HETATM   20  C   UNL     1      39.112 -13.956  -1.500  1.00  0.00     0.021 A 
HETATM   21  C   UNL     1      39.927 -14.434  -0.475  1.00  0.00     0.032 A 
ENDBRANCH  13  16
ENDBRANCH  10  12
BRANCH   9  22
HETATM   22  C   UNL     1      41.049 -14.000   5.314  1.00  0.00    -0.011 A 
HETATM   23  C   UNL     1      39.861 -13.559   5.895  1.00  0.00     0.125 A 
HETATM   24  N   UNL     1      39.627 -12.280   6.264  1.00  0.00    -0.272 NA
HETATM   25  C   UNL     1      40.609 -11.385   6.028  1.00  0.00     0.116 A 
HETATM   26  C   UNL     1      41.827 -11.716   5.458  1.00  0.00     0.020 A 
HETATM   27  C   UNL     1      42.050 -13.043   5.104  1.00  0.00     0.012 A 
ENDBRANCH   9  22
TORSDOF 3
ENDMDL
MODEL 4
REMARK VINA RESULT:      -7.6      2.228      2.466
REMARK  3 active torsions:
REMARK  status: ('A' for Active; 'I' for Inactive)
REMARK    1  A    between atoms: C_9  and  C_10 
REMARK    2  A    between atoms: C_16  and  C_17 
REMARK       I    between atoms: C_17  and  N_18 
REMARK    3  A    between atoms: N_18  and  C_19 
ROOT
HETATM    1  C   UNL     1      44.208 -11.704   3.839  1.00  0.00     0.070 C 
HETATM    2  C   UNL     1      42.778 -11.792   3.369  1.00  0.00     0.037 C 
HETATM    3  N   UNL     1      42.002 -10.657   3.586  1.00  0.00    -0.191 N 
HETATM    4  C   UNL     1      40.662 -10.644   3.432  1.00  0.00     0.735 A 
HETATM    5  N   UNL     1      40.038 -11.745   2.917  1.00  0.00    -0.092 N 
HETATM    6  N   UNL     1      38.709 -11.563   2.902  1.00  0.00     0.012 NA
HETATM    7  N   UNL     1      38.537 -10.332   3.374  1.00  0.00     0.033 NA
HETATM    8  N   UNL     1      39.746  -9.749   3.708  1.00  0.00     0.030 NA
HETATM    9  C   UNL     1      40.721 -12.962   2.485  1.00  0.00     0.199 C 
HETATM   10  C   UNL     1      42.208 -12.899   2.830  1.00  0.00     0.062 C 
HETATM   11  H   UNL     1      42.439  -9.872   4.064  1.00  0.00     0.184 HD
ENDROOT
BRANCH  10  12
HETATM   12  C   UNL     1      42.927 -14.183   2.618  1.00  0.00     0.256 C 
HETATM   13  N   UNL     1      42.559 -15.172   3.501  1.00  0.00    -0.322 N 
HETATM   14  H   UNL     1      41.877 -14.939   4.211  1.00  0.00     0.169 HD
HETATM   15  O   UNL     1      43.792 -14.240   1.754  1.00  0.00    -0.267 OA
BRANCH  13  16
HETATM   16  C   UNL     1      43.045 -16.497   3.524  1.00  0.00     0.052 A 
HETATM   17  C   UNL     1      43.835 -17.046   4.530  1.00  0.00     0.145 A 
HETATM   18  N   UNL     1      44.302 -18.321   4.521  1.00  0.00    -0.271 NA
HETATM   19  C   UNL     1      43.973 -19.086   3.462  1.00  0.00     0.116 A 
HETATM   20  C   UNL     1      43.194 -18.638   2.409  1.00  0.00     0.021 A 
HETATM   21  C   UNL     1      42.724 -17.326   2.445  1.00  0.00     0.032 A 
ENDBRANCH  13  16
ENDBRANCH  10  12
BRANCH   9  22
HETATM   22  C   UNL     1      40.496 -13.213   1.003  1.00  0.00    -0.011 A 
HETATM   23  C   UNL     1      40.880 -12.297   0.025  1.00  0.00     0.125 A 
HETATM   24  N   UNL     1      40.750 -12.507  -1.304  1.00  0.00    -0.272 NA
HETATM   25  C   UNL     1      40.191 -13.675  -1.687  1.00  0.00     0.116 A 
HETATM   26  C   UNL     1      39.776 -14.653  -0.800  1.00  0.00     0.020 A 
HETATM   27  C   UNL     1      39.938 -14.420   0.562  1.00  0.00     0.012 A 
ENDBRANCH   9  22
TORSDOF 3
ENDMDL
MODEL 5
REMARK VINA RESULT:      -7.5      2.136      4.265
REMARK  3 active torsions:
REMARK  status: ('A' for Active; 'I' for Inactive)
REMARK    1  A    between atoms: C_9  and  C_10 
REMARK    2  A    between atoms: C_16  and  C_17 
REMARK       I    between atoms: C_17  and  N_18 
REMARK    3  A    between atoms: N_18  and  C_19 
ROOT
HETATM    1  C   UNL     1      39.831 -15.991   0.899  1.00  0.00     0.070 C 
HETATM    2  C   UNL     1      40.334 -14.588   1.129  1.00  0.00     0.037 C 
HETATM    3  N   UNL     1      39.473 -13.568   0.736  1.00  0.00    -0.191 N 
HETATM    4  C   UNL     1      39.851 -12.275   0.664  1.00  0.00     0.735 A 
HETATM    5  N   UNL     1      41.088 -11.915   1.118  1.00  0.00    -0.092 N 
HETATM    6  N   UNL     1      41.301 -10.608   0.904  1.00  0.00     0.012 NA
HETATM    7  N   UNL     1      40.171 -10.173   0.355  1.00  0.00     0.033 NA
HETATM    8  N   UNL     1      39.260 -11.202   0.200  1.00  0.00     0.030 NA
HETATM    9  C   UNL     1      42.057 -12.834   1.711  1.00  0.00     0.199 C 
HETATM   10  C   UNL     1      41.562 -14.277   1.615  1.00  0.00     0.062 C 
HETATM   11  H   UNL     1      38.592 -13.836   0.301  1.00  0.00     0.184 HD
ENDROOT
BRANCH  10  12
HETATM   12  C   UNL     1      42.583 -15.287   2.001  1.00  0.00     0.256 C 
HETATM   13  N   UNL     1      42.153 -16.161   2.973  1.00  0.00    -0.322 N 
HETATM   14  H   UNL     1      41.223 -16.027   3.348  1.00  0.00     0.169 HD
HETATM   15  O   UNL     1      43.694 -15.226   1.492  1.00  0.00    -0.267 OA
BRANCH  13  16
HETATM   16  C   UNL     1      42.888 -17.238   3.514  1.00  0.00     0.052 A 
HETATM   17  C   UNL     1      43.343 -17.321   4.827  1.00  0.00     0.145 A 
HETATM   18  N   UNL     1      44.062 -18.362   5.319  1.00  0.00    -0.271 NA
HETATM   19  C   UNL     1      44.344 -19.368   4.467  1.00  0.00     0.116 A 
HETATM   20  C   UNL     1      43.939 -19.384   3.144  1.00  0.00     0.021 A 
HETATM   21  C   UNL     1      43.199 -18.303   2.665  1.00  0.00     0.032 A 
ENDBRANCH  13  16
ENDBRANCH  10  12
BRANCH   9  22
HETATM   22  C   UNL     1      42.370 -12.440   3.145  1.00  0.00    -0.011 A 
HETATM   23  C   UNL     1      41.455 -12.610   4.182  1.00  0.00     0.125 A 
HETATM   24  N   UNL     1      41.715 -12.325   5.477  1.00  0.00    -0.272 NA
HETATM   25  C   UNL     1      42.937 -11.827   5.761  1.00  0.00     0.116 A 
HETATM   26  C   UNL     1      43.920 -11.622   4.809  1.00  0.00     0.020 A 
HETATM   27  C   UNL     1      43.633 -11.940   3.486  1.00  0.00     0.012 A 
ENDBRANCH   9  22
TORSDOF 3
ENDMDL
MODEL 6
REMARK VINA RESULT:      -7.5      2.747      5.844
REMARK  3 active torsions:
REMARK  status: ('A' for Active; 'I' for Inactive)
REMARK    1  A    between atoms: C_9  and  C_10 
REMARK    2  A    between atoms: C_16  and  C_17 
REMARK       I    between atoms: C_17  and  N_18 
REMARK    3  A    between atoms: N_18  and  C_19 
ROOT
HETATM    1  C   UNL     1      38.832 -11.435   3.075  1.00  0.00     0.070 C 
HETATM    2  C   UNL     1      40.272 -11.878   3.142  1.00  0.00     0.037 C 
HETATM    3  N   UNL     1      41.062 -11.216   4.077  1.00  0.00    -0.191 N 
HETATM    4  C   UNL     1      42.406 -11.330   4.113  1.00  0.00     0.735 A 
HETATM    5  N   UNL     1      43.023 -12.231   3.291  1.00  0.00    -0.092 N 
HETATM    6  N   UNL     1      44.354 -12.150   3.428  1.00  0.00     0.012 NA
HETATM    7  N   UNL     1      44.537 -11.225   4.365  1.00  0.00     0.033 NA
HETATM    8  N   UNL     1      43.331 -10.707   4.800  1.00  0.00     0.030 NA
HETATM    9  C   UNL     1      42.329 -13.121   2.364  1.00  0.00     0.199 C 
HETATM   10  C   UNL     1      40.834 -12.804   2.326  1.00  0.00     0.062 C 
HETATM   11  H   UNL     1      40.628 -10.472   4.619  1.00  0.00     0.184 HD
ENDROOT
BRANCH  10  12
HETATM   12  C   UNL     1      40.098 -13.520   1.251  1.00  0.00     0.256 C 
HETATM   13  N   UNL     1      40.036 -12.823   0.066  1.00  0.00    -0.322 N 
HETATM   14  H   UNL     1      40.457 -11.903   0.040  1.00  0.00     0.169 HD
HETATM   15  O   UNL     1      39.576 -14.597   1.509  1.00  0.00    -0.267 OA
BRANCH  13  16
HETATM   16  C   UNL     1      39.432 -13.260  -1.132  1.00  0.00     0.052 A 
HETATM   17  C   UNL     1      40.055 -14.028  -2.113  1.00  0.00     0.145 A 
HETATM   18  N   UNL     1      39.456 -14.424  -3.265  1.00  0.00    -0.271 NA
HETATM   19  C   UNL     1      38.179 -14.038  -3.454  1.00  0.00     0.116 A 
HETATM   20  C   UNL     1      37.468 -13.275  -2.543  1.00  0.00     0.021 A 
HETATM   21  C   UNL     1      38.107 -12.885  -1.366  1.00  0.00     0.032 A 
ENDBRANCH  13  16
ENDBRANCH  10  12
BRANCH   9  22
HETATM   22  C   UNL     1      42.586 -14.577   2.716  1.00  0.00    -0.011 A 
HETATM   23  C   UNL     1      42.235 -15.120   3.951  1.00  0.00     0.125 A 
HETATM   24  N   UNL     1      42.396 -16.420   4.282  1.00  0.00    -0.272 NA
HETATM   25  C   UNL     1      42.951 -17.224   3.351  1.00  0.00     0.116 A 
HETATM   26  C   UNL     1      43.334 -16.790   2.094  1.00  0.00     0.020 A 
HETATM   27  C   UNL     1      43.142 -15.450   1.772  1.00  0.00     0.012 A 
ENDBRANCH   9  22
TORSDOF 3
ENDMDL
MODEL 7
REMARK VINA RESULT:      -7.3      2.566      6.135
REMARK  3 active torsions:
REMARK  status: ('A' for Active; 'I' for Inactive)
REMARK    1  A    between atoms: C_9  and  C_10 
REMARK    2  A    between atoms: C_16  and  C_17 
REMARK       I    between atoms: C_17  and  N_18 
REMARK    3  A    between atoms: N_18  and  C_19 
ROOT
HETATM    1  C   UNL     1      42.708 -11.148   2.599  1.00  0.00     0.070 C 
HETATM    2  C   UNL     1      42.126 -12.523   2.805  1.00  0.00     0.037 C 
HETATM    3  N   UNL     1      41.701 -13.175   1.651  1.00  0.00    -0.191 N 
HETATM    4  C   UNL     1      40.961 -14.303   1.676  1.00  0.00     0.735 A 
HETATM    5  N   UNL     1      40.721 -14.918   2.872  1.00  0.00    -0.092 N 
HETATM    6  N   UNL     1      39.920 -15.980   2.697  1.00  0.00     0.012 NA
HETATM    7  N   UNL     1      39.710 -16.026   1.385  1.00  0.00     0.033 NA
HETATM    8  N   UNL     1      40.353 -14.986   0.738  1.00  0.00     0.030 NA
HETATM    9  C   UNL     1      41.229 -14.457   4.161  1.00  0.00     0.199 C 
HETATM   10  C   UNL     1      41.937 -13.110   4.013  1.00  0.00     0.062 C 
HETATM   11  H   UNL     1      41.784 -12.674   0.769  1.00  0.00     0.184 HD
ENDROOT
BRANCH  10  12
HETATM   12  C   UNL     1      42.291 -12.475   5.310  1.00  0.00     0.256 C 
HETATM   13  N   UNL     1      43.647 -12.339   5.504  1.00  0.00    -0.322 N 
HETATM   14  H   UNL     1      44.263 -12.697   4.785  1.00  0.00     0.169 HD
HETATM   15  O   UNL     1      41.395 -12.192   6.094  1.00  0.00    -0.267 OA
BRANCH  13  16
HETATM   16  C   UNL     1      44.277 -11.749   6.621  1.00  0.00     0.052 A 
HETATM   17  C   UNL     1      43.718 -11.630   7.890  1.00  0.00     0.145 A 
HETATM   18  N   UNL     1      44.341 -11.044   8.945  1.00  0.00    -0.271 NA
HETATM   19  C   UNL     1      45.577 -10.551   8.728  1.00  0.00     0.116 A 
HETATM   20  C   UNL     1      46.223 -10.617   7.506  1.00  0.00     0.021 A 
HETATM   21  C   UNL     1      45.562 -11.228   6.441  1.00  0.00     0.032 A 
ENDBRANCH  13  16
ENDBRANCH  10  12
BRANCH   9  22
HETATM   22  C   UNL     1      42.134 -15.502   4.792  1.00  0.00    -0.011 A 
HETATM   23  C   UNL     1      43.279 -15.980   4.156  1.00  0.00     0.125 A 
HETATM   24  N   UNL     1      44.138 -16.866   4.706  1.00  0.00    -0.272 NA
HETATM   25  C   UNL     1      43.842 -17.320   5.942  1.00  0.00     0.116 A 
HETATM   26  C   UNL     1      42.734 -16.910   6.664  1.00  0.00     0.020 A 
HETATM   27  C   UNL     1      41.874 -15.984   6.082  1.00  0.00     0.012 A 
ENDBRANCH   9  22
TORSDOF 3
ENDMDL
MODEL 8
REMARK VINA RESULT:      -7.2      1.911      2.248
REMARK  3 active torsions:
REMARK  status: ('A' for Active; 'I' for Inactive)
REMARK    1  A    between atoms: C_9  and  C_10 
REMARK    2  A    between atoms: C_16  and  C_17 
REMARK       I    between atoms: C_17  and  N_18 
REMARK    3  A    between atoms: N_18  and  C_19 
ROOT
HETATM    1  C   UNL     1      44.072 -12.368   6.375  1.00  0.00     0.070 C 
HETATM    2  C   UNL     1      42.623 -12.235   5.980  1.00  0.00     0.037 C 
HETATM    3  N   UNL     1      41.882 -11.313   6.714  1.00  0.00    -0.191 N 
HETATM    4  C   UNL     1      40.537 -11.230   6.644  1.00  0.00     0.735 A 
HETATM    5  N   UNL     1      39.869 -11.985   5.722  1.00  0.00    -0.092 N 
HETATM    6  N   UNL     1      38.545 -11.813   5.851  1.00  0.00     0.012 NA
HETATM    7  N   UNL     1      38.419 -10.920   6.828  1.00  0.00     0.033 NA
HETATM    8  N   UNL     1      39.653 -10.549   7.330  1.00  0.00     0.030 NA
HETATM    9  C   UNL     1      40.506 -12.885   4.764  1.00  0.00     0.199 C 
HETATM   10  C   UNL     1      42.008 -12.985   5.032  1.00  0.00     0.062 C 
HETATM   11  H   UNL     1      42.355 -10.824   7.471  1.00  0.00     0.184 HD
ENDROOT
BRANCH  10  12
HETATM   12  C   UNL     1      42.688 -14.042   4.239  1.00  0.00     0.256 C 
HETATM   13  N   UNL     1      42.537 -15.306   4.762  1.00  0.00    -0.322 N 
HETATM   14  H   UNL     1      42.018 -15.398   5.627  1.00  0.00     0.169 HD
HETATM   15  O   UNL     1      43.349 -13.714   3.263  1.00  0.00    -0.267 OA
BRANCH  13  16
HETATM   16  C   UNL     1      43.042 -16.504   4.214  1.00  0.00     0.052 A 
HETATM   17  C   UNL     1      44.023 -17.303   4.795  1.00  0.00     0.145 A 
HETATM   18  N   UNL     1      44.503 -18.446   4.239  1.00  0.00    -0.271 NA
HETATM   19  C   UNL     1      43.986 -18.811   3.049  1.00  0.00     0.116 A 
HETATM   20  C   UNL     1      43.008 -18.089   2.387  1.00  0.00     0.021 A 
HETATM   21  C   UNL     1      42.531 -16.921   2.982  1.00  0.00     0.032 A 
ENDBRANCH  13  16
ENDBRANCH  10  12
BRANCH   9  22
HETATM   22  C   UNL     1      40.217 -12.449   3.337  1.00  0.00    -0.011 A 
HETATM   23  C   UNL     1      39.528 -13.259   2.435  1.00  0.00     0.125 A 
HETATM   24  N   UNL     1      39.203 -12.888   1.177  1.00  0.00    -0.272 NA
HETATM   25  C   UNL     1      39.595 -11.658   0.782  1.00  0.00     0.116 A 
HETATM   26  C   UNL     1      40.280 -10.773   1.596  1.00  0.00     0.020 A 
HETATM   27  C   UNL     1      40.588 -11.174   2.892  1.00  0.00     0.012 A 
ENDBRANCH   9  22
TORSDOF 3
ENDMDL
MODEL 9
REMARK VINA RESULT:      -7.1      3.118      5.305
REMARK  3 active torsions:
REMARK  status: ('A' for Active; 'I' for Inactive)
REMARK    1  A    between atoms: C_9  and  C_10 
REMARK    2  A    between atoms: C_16  and  C_17 
REMARK       I    between atoms: C_17  and  N_18 
REMARK    3  A    between atoms: N_18  and  C_19 
ROOT
HETATM    1  C   UNL     1      41.558  -9.510   3.651  1.00  0.00     0.070 C 
HETATM    2  C   UNL     1      42.087 -10.451   4.703  1.00  0.00     0.037 C 
HETATM    3  N   UNL     1      42.317  -9.886   5.954  1.00  0.00    -0.191 N 
HETATM    4  C   UNL     1      42.991 -10.523   6.934  1.00  0.00     0.735 A 
HETATM    5  N   UNL     1      43.356 -11.827   6.755  1.00  0.00    -0.092 N 
HETATM    6  N   UNL     1      44.068 -12.261   7.806  1.00  0.00     0.012 NA
HETATM    7  N   UNL     1      44.096 -11.224   8.638  1.00  0.00     0.033 NA
HETATM    8  N   UNL     1      43.429 -10.135   8.106  1.00  0.00     0.030 NA
HETATM    9  C   UNL     1      43.052 -12.620   5.566  1.00  0.00     0.199 C 
HETATM   10  C   UNL     1      42.405 -11.752   4.488  1.00  0.00     0.062 C 
HETATM   11  H   UNL     1      42.143  -8.888   6.060  1.00  0.00     0.184 HD
ENDROOT
BRANCH  10  12
HETATM   12  C   UNL     1      42.263 -12.435   3.175  1.00  0.00     0.256 C 
HETATM   13  N   UNL     1      40.955 -12.646   2.802  1.00  0.00    -0.322 N 
HETATM   14  H   UNL     1      40.230 -12.353   3.445  1.00  0.00     0.169 HD
HETATM   15  O   UNL     1      43.272 -12.795   2.584  1.00  0.00    -0.267 OA
BRANCH  13  16
HETATM   16  C   UNL     1      40.512 -13.242   1.602  1.00  0.00     0.052 A 
HETATM   17  C   UNL     1      40.157 -12.552   0.446  1.00  0.00     0.145 A 
HETATM   18  N   UNL     1      39.719 -13.149  -0.693  1.00  0.00    -0.271 NA
HETATM   19  C   UNL     1      39.628 -14.493  -0.682  1.00  0.00     0.116 A 
HETATM   20  C   UNL     1      39.956 -15.273   0.413  1.00  0.00     0.021 A 
HETATM   21  C   UNL     1      40.406 -14.635   1.568  1.00  0.00     0.032 A 
ENDBRANCH  13  16
ENDBRANCH  10  12
BRANCH   9  22
HETATM   22  C   UNL     1      42.184 -13.817   5.921  1.00  0.00    -0.011 A 
HETATM   23  C   UNL     1      40.842 -13.687   6.275  1.00  0.00     0.125 A 
HETATM   24  N   UNL     1      40.024 -14.728   6.542  1.00  0.00    -0.272 NA
HETATM   25  C   UNL     1      40.564 -15.964   6.476  1.00  0.00     0.116 A 
HETATM   26  C   UNL     1      41.883 -16.206   6.133  1.00  0.00     0.020 A 
HETATM   27  C   UNL     1      42.700 -15.117   5.846  1.00  0.00     0.012 A 
ENDBRANCH   9  22
TORSDOF 3
ENDMDL
MODEL 10
REMARK VINA RESULT:      -7.0      2.562      5.970
REMARK  3 active torsions:
REMARK  status: ('A' for Active; 'I' for Inactive)
REMARK    1  A    between atoms: C_9  and  C_10 
REMARK    2  A    between atoms: C_16  and  C_17 
REMARK       I    between atoms: C_17  and  N_18 
REMARK    3  A    between atoms: N_18  and  C_19 
ROOT
HETATM    1  C   UNL     1      41.598 -10.197   0.920  1.00  0.00     0.070 C 
HETATM    2  C   UNL     1      41.166 -11.616   0.645  1.00  0.00     0.037 C 
HETATM    3  N   UNL     1      40.914 -11.919  -0.690  1.00  0.00    -0.191 N 
HETATM    4  C   UNL     1      40.312 -13.062  -1.082  1.00  0.00     0.735 A 
HETATM    5  N   UNL     1      40.052 -14.031  -0.155  1.00  0.00    -0.092 N 
HETATM    6  N   UNL     1      39.397 -15.055  -0.723  1.00  0.00     0.012 NA
HETATM    7  N   UNL     1      39.300 -14.716  -2.005  1.00  0.00     0.033 NA
HETATM    8  N   UNL     1      39.866 -13.477  -2.241  1.00  0.00     0.030 NA
HETATM    9  C   UNL     1      40.398 -13.942   1.262  1.00  0.00     0.199 C 
HETATM   10  C   UNL     1      40.952 -12.558   1.597  1.00  0.00     0.062 C 
HETATM   11  H   UNL     1      41.009 -11.168  -1.370  1.00  0.00     0.184 HD
ENDROOT
BRANCH  10  12
HETATM   12  C   UNL     1      41.125 -12.320   3.055  1.00  0.00     0.256 C 
HETATM   13  N   UNL     1      42.434 -12.394   3.473  1.00  0.00    -0.322 N 
HETATM   14  H   UNL     1      43.137 -12.624   2.782  1.00  0.00     0.169 HD
HETATM   15  O   UNL     1      40.131 -12.146   3.747  1.00  0.00    -0.267 OA
BRANCH  13  16
HETATM   16  C   UNL     1      42.906 -12.185   4.787  1.00  0.00     0.052 A 
HETATM   17  C   UNL     1      43.038 -10.945   5.406  1.00  0.00     0.145 A 
HETATM   18  N   UNL     1      43.509 -10.770   6.667  1.00  0.00    -0.271 NA
HETATM   19  C   UNL     1      43.868 -11.877   7.345  1.00  0.00     0.116 A 
HETATM   20  C   UNL     1      43.776 -13.156   6.824  1.00  0.00     0.021 A 
HETATM   21  C   UNL     1      43.285 -13.308   5.527  1.00  0.00     0.032 A 
ENDBRANCH  13  16
ENDBRANCH  10  12
BRANCH   9  22
HETATM   22  C   UNL     1      41.366 -15.046   1.653  1.00  0.00    -0.011 A 
HETATM   23  C   UNL     1      42.685 -15.077   1.202  1.00  0.00     0.125 A 
HETATM   24  N   UNL     1      43.592 -16.008   1.571  1.00  0.00    -0.272 NA
HETATM   25  C   UNL     1      43.168 -16.973   2.415  1.00  0.00     0.116 A 
HETATM   26  C   UNL     1      41.883 -17.036   2.924  1.00  0.00     0.020 A 
HETATM   27  C   UNL     1      40.974 -16.055   2.542  1.00  0.00     0.012 A 
ENDBRANCH   9  22
TORSDOF 3
ENDMDL
