MODEL 1
REMARK VINA RESULT:      -8.0      0.000      0.000
REMARK  6 active torsions:
REMARK  status: ('A' for Active; 'I' for Inactive)
REMARK    1  A    between atoms: C_2  and  N_3 
REMARK    2  A    between atoms: C_2  and  C_18 
REMARK    3  A    between atoms: N_3  and  C_6 
REMARK    4  A    between atoms: C_6  and  C_7 
REMARK    5  A    between atoms: C_10  and  N_11 
REMARK       I    between atoms: N_11  and  C_12 
REMARK    6  A    between atoms: C_12  and  O_13 
ROOT
HETATM    1  N   UNL     1      41.434 -14.852   5.268  1.00  0.00    -0.061 N 
HETATM    2  H   UNL     1      40.989 -15.730   4.966  1.00  0.00     0.278 HD
HETATM    3  H   UNL     1      41.279 -14.860   6.287  1.00  0.00     0.278 HD
ENDROOT
BRANCH   1   4
HETATM    4  C   UNL     1      42.919 -14.998   5.040  1.00  0.00     0.241 C 
HETATM    5  C   UNL     1      43.671 -14.644   6.320  1.00  0.00     0.047 C 
BRANCH   4   6
HETATM    6  C   UNL     1      43.199 -16.424   4.637  1.00  0.00     0.106 A 
HETATM    7  S   UNL     1      43.850 -17.556   5.740  1.00  0.00    -0.070 SA
HETATM    8  C   UNL     1      43.809 -18.767   4.515  1.00  0.00     0.035 A 
HETATM    9  C   UNL     1      43.315 -18.206   3.334  1.00  0.00     0.075 A 
HETATM   10  C   UNL     1      44.186 -20.118   4.594  1.00  0.00     0.021 A 
HETATM   11  N   UNL     1      42.986 -16.857   3.412  1.00  0.00    -0.243 NA
HETATM   12  C   UNL     1      43.195 -19.023   2.193  1.00  0.00     0.033 A 
HETATM   13  C   UNL     1      43.564 -20.371   2.263  1.00  0.00     0.002 A 
HETATM   14  C   UNL     1      44.053 -20.909   3.449  1.00  0.00     0.002 A 
ENDBRANCH   4   6
ENDBRANCH   1   4
BRANCH   1  15
HETATM   15  C   UNL     1      40.735 -13.712   4.629  1.00  0.00     0.271 C 
BRANCH  15  16
HETATM   16  C   UNL     1      40.682 -13.870   3.135  1.00  0.00    -0.033 A 
HETATM   17  C   UNL     1      40.095 -15.002   2.555  1.00  0.00     0.011 A 
HETATM   18  C   UNL     1      40.058 -15.157   1.162  1.00  0.00     0.030 A 
HETATM   19  C   UNL     1      40.600 -14.186   0.321  1.00  0.00     0.036 A 
HETATM   20  C   UNL     1      41.180 -13.052   0.904  1.00  0.00     0.030 A 
HETATM   21  C   UNL     1      41.227 -12.895   2.294  1.00  0.00     0.011 A 
BRANCH  19  22
HETATM   22  N   UNL     1      40.604 -14.243  -1.082  1.00  0.00    -0.303 N 
HETATM   23  C   UNL     1      39.723 -13.792  -2.031  1.00  0.00     0.364 C 
HETATM   24  O   UNL     1      39.976 -13.949  -3.221  1.00  0.00    -0.238 OA
HETATM   25  H   UNL     1      41.391 -14.699  -1.527  1.00  0.00     0.171 HD
BRANCH  23  26
HETATM   26  O   UNL     1      38.595 -13.209  -1.560  1.00  0.00    -0.309 OA
HETATM   27  C   UNL     1      37.488 -13.269  -2.463  1.00  0.00     0.215 C 
ENDBRANCH  23  26
ENDBRANCH  19  22
ENDBRANCH  15  16
ENDBRANCH   1  15
TORSDOF 6
ENDMDL
MODEL 2
REMARK VINA RESULT:      -7.6      3.780      7.245
REMARK  6 active torsions:
REMARK  status: ('A' for Active; 'I' for Inactive)
REMARK    1  A    between atoms: C_2  and  N_3 
REMARK    2  A    between atoms: C_2  and  C_18 
REMARK    3  A    between atoms: N_3  and  C_6 
REMARK    4  A    between atoms: C_6  and  C_7 
REMARK    5  A    between atoms: C_10  and  N_11 
REMARK       I    between atoms: N_11  and  C_12 
REMARK    6  A    between atoms: C_12  and  O_13 
ROOT
HETATM    1  N   UNL     1      41.938 -12.200   2.485  1.00  0.00    -0.061 N 
HETATM    2  H   UNL     1      42.174 -12.321   1.490  1.00  0.00     0.278 HD
HETATM    3  H   UNL     1      42.012 -11.178   2.610  1.00  0.00     0.278 HD
ENDROOT
BRANCH   1   4
HETATM    4  C   UNL     1      40.482 -12.565   2.649  1.00  0.00     0.241 C 
HETATM    5  C   UNL     1      39.739 -11.416   3.325  1.00  0.00     0.047 C 
BRANCH   4   6
HETATM    6  C   UNL     1      39.905 -12.840   1.283  1.00  0.00     0.106 A 
HETATM    7  S   UNL     1      38.970 -11.674   0.454  1.00  0.00    -0.070 SA
HETATM    8  C   UNL     1      38.788 -12.765  -0.867  1.00  0.00     0.035 A 
HETATM    9  C   UNL     1      39.444 -13.961  -0.565  1.00  0.00     0.075 A 
HETATM   10  C   UNL     1      38.113 -12.576  -2.084  1.00  0.00     0.021 A 
HETATM   11  N   UNL     1      40.065 -13.999   0.679  1.00  0.00    -0.243 NA
HETATM   12  C   UNL     1      39.425 -15.004  -1.512  1.00  0.00     0.033 A 
HETATM   13  C   UNL     1      38.758 -14.823  -2.729  1.00  0.00     0.002 A 
HETATM   14  C   UNL     1      38.112 -13.624  -3.009  1.00  0.00     0.002 A 
ENDBRANCH   4   6
ENDBRANCH   1   4
BRANCH   1  15
HETATM   15  C   UNL     1      42.938 -12.915   3.310  1.00  0.00     0.271 C 
BRANCH  15  16
HETATM   16  C   UNL     1      42.919 -14.392   3.036  1.00  0.00    -0.033 A 
HETATM   17  C   UNL     1      42.450 -15.294   4.000  1.00  0.00     0.011 A 
HETATM   18  C   UNL     1      42.444 -16.673   3.750  1.00  0.00     0.030 A 
HETATM   19  C   UNL     1      42.902 -17.181   2.534  1.00  0.00     0.036 A 
HETATM   20  C   UNL     1      43.363 -16.276   1.570  1.00  0.00     0.030 A 
HETATM   21  C   UNL     1      43.379 -14.899   1.816  1.00  0.00     0.011 A 
BRANCH  19  22
HETATM   22  N   UNL     1      42.928 -18.540   2.184  1.00  0.00    -0.303 N 
HETATM   23  C   UNL     1      43.621 -19.613   2.682  1.00  0.00     0.364 C 
HETATM   24  O   UNL     1      43.443 -20.729   2.205  1.00  0.00    -0.238 OA
HETATM   25  H   UNL     1      42.337 -18.835   1.417  1.00  0.00     0.171 HD
BRANCH  23  26
HETATM   26  O   UNL     1      44.494 -19.340   3.681  1.00  0.00    -0.309 OA
HETATM   27  C   UNL     1      44.233 -20.053   4.893  1.00  0.00     0.215 C 
ENDBRANCH  23  26
ENDBRANCH  19  22
ENDBRANCH  15  16
ENDBRANCH   1  15
TORSDOF 6
ENDMDL
MODEL 3
REMARK VINA RESULT:      -7.6      0.870      1.631
REMARK  6 active torsions:
REMARK  status: ('A' for Active; 'I' for Inactive)
REMARK    1  A    between atoms: C_2  and  N_3 
REMARK    2  A    between atoms: C_2  and  C_18 
REMARK    3  A    between atoms: N_3  and  C_6 
REMARK    4  A    between atoms: C_6  and  C_7 
REMARK    5  A    between atoms: C_10  and  N_11 
REMARK       I    between atoms: N_11  and  C_12 
REMARK    6  A    between atoms: C_12  and  O_13 
ROOT
HETATM    1  N   UNL     1      41.438 -14.693   5.245  1.00  0.00    -0.061 N 
HETATM    2  H   UNL     1      40.975 -15.573   4.980  1.00  0.00     0.278 HD
HETATM    3  H   UNL     1      41.316 -14.673   6.269  1.00  0.00     0.278 HD
ENDROOT
BRANCH   1   4
HETATM    4  C   UNL     1      42.914 -14.862   4.975  1.00  0.00     0.241 C 
HETATM    5  C   UNL     1      43.706 -14.550   6.242  1.00  0.00     0.047 C 
BRANCH   4   6
HETATM    6  C   UNL     1      43.156 -16.284   4.534  1.00  0.00     0.106 A 
HETATM    7  S   UNL     1      43.056 -16.742   2.890  1.00  0.00    -0.070 SA
HETATM    8  C   UNL     1      43.454 -18.362   3.322  1.00  0.00     0.035 A 
HETATM    9  C   UNL     1      43.615 -18.439   4.709  1.00  0.00     0.075 A 
HETATM   10  C   UNL     1      43.613 -19.485   2.493  1.00  0.00     0.021 A 
HETATM   11  N   UNL     1      43.423 -17.244   5.394  1.00  0.00    -0.243 NA
HETATM   12  C   UNL     1      43.946 -19.681   5.286  1.00  0.00     0.033 A 
HETATM   13  C   UNL     1      44.111 -20.804   4.468  1.00  0.00     0.002 A 
HETATM   14  C   UNL     1      43.946 -20.705   3.090  1.00  0.00     0.002 A 
ENDBRANCH   4   6
ENDBRANCH   1   4
BRANCH   1  15
HETATM   15  C   UNL     1      40.732 -13.562   4.600  1.00  0.00     0.271 C 
BRANCH  15  16
HETATM   16  C   UNL     1      40.720 -13.706   3.104  1.00  0.00    -0.033 A 
HETATM   17  C   UNL     1      41.398 -12.788   2.291  1.00  0.00     0.011 A 
HETATM   18  C   UNL     1      41.376 -12.913   0.895  1.00  0.00     0.030 A 
HETATM   19  C   UNL     1      40.683 -13.957   0.282  1.00  0.00     0.036 A 
HETATM   20  C   UNL     1      40.013 -14.877   1.098  1.00  0.00     0.030 A 
HETATM   21  C   UNL     1      40.024 -14.753   2.492  1.00  0.00     0.011 A 
BRANCH  19  22
HETATM   22  N   UNL     1      40.608 -14.175  -1.103  1.00  0.00    -0.303 N 
HETATM   23  C   UNL     1      39.943 -13.525  -2.110  1.00  0.00     0.364 C 
HETATM   24  O   UNL     1      40.065 -13.908  -3.269  1.00  0.00    -0.238 OA
HETATM   25  H   UNL     1      41.130 -14.957  -1.480  1.00  0.00     0.171 HD
BRANCH  23  26
HETATM   26  O   UNL     1      39.159 -12.488  -1.727  1.00  0.00    -0.309 OA
HETATM   27  C   UNL     1      37.758 -12.758  -1.806  1.00  0.00     0.215 C 
ENDBRANCH  23  26
ENDBRANCH  19  22
ENDBRANCH  15  16
ENDBRANCH   1  15
TORSDOF 6
ENDMDL
MODEL 4
REMARK VINA RESULT:      -7.3      4.711      7.828
REMARK  6 active torsions:
REMARK  status: ('A' for Active; 'I' for Inactive)
REMARK    1  A    between atoms: C_2  and  N_3 
REMARK    2  A    between atoms: C_2  and  C_18 
REMARK    3  A    between atoms: N_3  and  C_6 
REMARK    4  A    between atoms: C_6  and  C_7 
REMARK    5  A    between atoms: C_10  and  N_11 
REMARK       I    between atoms: N_11  and  C_12 
REMARK    6  A    between atoms: C_12  and  O_13 
ROOT
HETATM    1  N   UNL     1      42.195 -12.812   4.779  1.00  0.00    -0.061 N 
HETATM    2  H   UNL     1      42.004 -13.614   5.395  1.00  0.00     0.278 HD
HETATM    3  H   UNL     1      41.609 -12.069   5.189  1.00  0.00     0.278 HD
ENDROOT
BRANCH   1   4
HETATM    4  C   UNL     1      43.636 -12.414   4.991  1.00  0.00     0.241 C 
HETATM    5  C   UNL     1      44.140 -11.648   3.771  1.00  0.00     0.047 C 
BRANCH   4   6
HETATM    6  C   UNL     1      43.712 -11.553   6.228  1.00  0.00     0.106 A 
HETATM    7  S   UNL     1      42.423 -10.530   6.688  1.00  0.00    -0.070 SA
HETATM    8  C   UNL     1      43.325 -10.021   8.066  1.00  0.00     0.035 A 
HETATM    9  C   UNL     1      44.568 -10.662   8.060  1.00  0.00     0.075 A 
HETATM   10  C   UNL     1      42.959  -9.120   9.079  1.00  0.00     0.021 A 
HETATM   11  N   UNL     1      44.785 -11.524   6.991  1.00  0.00    -0.243 NA
HETATM   12  C   UNL     1      45.475 -10.392   9.104  1.00  0.00     0.033 A 
HETATM   13  C   UNL     1      45.118  -9.499  10.120  1.00  0.00     0.002 A 
HETATM   14  C   UNL     1      43.876  -8.872  10.106  1.00  0.00     0.002 A 
ENDBRANCH   4   6
ENDBRANCH   1   4
BRANCH   1  15
HETATM   15  C   UNL     1      41.754 -13.143   3.404  1.00  0.00     0.271 C 
BRANCH  15  16
HETATM   16  C   UNL     1      42.079 -14.568   3.053  1.00  0.00    -0.033 A 
HETATM   17  C   UNL     1      42.987 -14.864   2.029  1.00  0.00     0.011 A 
HETATM   18  C   UNL     1      43.280 -16.192   1.691  1.00  0.00     0.030 A 
HETATM   19  C   UNL     1      42.679 -17.251   2.370  1.00  0.00     0.036 A 
HETATM   20  C   UNL     1      41.777 -16.952   3.399  1.00  0.00     0.030 A 
HETATM   21  C   UNL     1      41.474 -15.628   3.736  1.00  0.00     0.011 A 
BRANCH  19  22
HETATM   22  N   UNL     1      42.912 -18.612   2.116  1.00  0.00    -0.303 N 
HETATM   23  C   UNL     1      43.732 -19.539   2.706  1.00  0.00     0.364 C 
HETATM   24  O   UNL     1      43.734 -20.697   2.302  1.00  0.00    -0.238 OA
HETATM   25  H   UNL     1      42.400 -19.038   1.353  1.00  0.00     0.171 HD
BRANCH  23  26
HETATM   26  O   UNL     1      44.517 -19.078   3.710  1.00  0.00    -0.309 OA
HETATM   27  C   UNL     1      44.126 -19.531   5.008  1.00  0.00     0.215 C 
ENDBRANCH  23  26
ENDBRANCH  19  22
ENDBRANCH  15  16
ENDBRANCH   1  15
TORSDOF 6
ENDMDL
MODEL 5
REMARK VINA RESULT:      -7.1      5.528      7.766
REMARK  6 active torsions:
REMARK  status: ('A' for Active; 'I' for Inactive)
REMARK    1  A    between atoms: C_2  and  N_3 
REMARK    2  A    between atoms: C_2  and  C_18 
REMARK    3  A    between atoms: N_3  and  C_6 
REMARK    4  A    between atoms: C_6  and  C_7 
REMARK    5  A    between atoms: C_10  and  N_11 
REMARK       I    between atoms: N_11  and  C_12 
REMARK    6  A    between atoms: C_12  and  O_13 
ROOT
HETATM    1  N   UNL     1      42.760 -12.879   4.755  1.00  0.00    -0.061 N 
HETATM    2  H   UNL     1      42.737 -13.334   3.832  1.00  0.00     0.278 HD
HETATM    3  H   UNL     1      41.875 -12.348   4.766  1.00  0.00     0.278 HD
ENDROOT
BRANCH   1   4
HETATM    4  C   UNL     1      42.641 -13.967   5.796  1.00  0.00     0.241 C 
HETATM    5  C   UNL     1      41.224 -13.978   6.365  1.00  0.00     0.047 C 
BRANCH   4   6
HETATM    6  C   UNL     1      42.960 -15.288   5.141  1.00  0.00     0.106 A 
HETATM    7  S   UNL     1      43.996 -16.427   5.882  1.00  0.00    -0.070 SA
HETATM    8  C   UNL     1      43.770 -17.493   4.547  1.00  0.00     0.035 A 
HETATM    9  C   UNL     1      42.928 -16.884   3.613  1.00  0.00     0.075 A 
HETATM   10  C   UNL     1      44.301 -18.777   4.341  1.00  0.00     0.021 A 
HETATM   11  N   UNL     1      42.484 -15.611   3.957  1.00  0.00    -0.243 NA
HETATM   12  C   UNL     1      42.604 -17.582   2.433  1.00  0.00     0.033 A 
HETATM   13  C   UNL     1      43.124 -18.863   2.220  1.00  0.00     0.002 A 
HETATM   14  C   UNL     1      43.961 -19.451   3.163  1.00  0.00     0.002 A 
ENDBRANCH   4   6
ENDBRANCH   1   4
BRANCH   1  15
HETATM   15  C   UNL     1      43.929 -11.972   4.819  1.00  0.00     0.271 C 
BRANCH  15  16
HETATM   16  C   UNL     1      43.979 -11.234   6.127  1.00  0.00    -0.033 A 
HETATM   17  C   UNL     1      42.922 -10.406   6.523  1.00  0.00     0.011 A 
HETATM   18  C   UNL     1      42.973  -9.706   7.736  1.00  0.00     0.030 A 
HETATM   19  C   UNL     1      44.077  -9.821   8.580  1.00  0.00     0.036 A 
HETATM   20  C   UNL     1      45.130 -10.656   8.186  1.00  0.00     0.030 A 
HETATM   21  C   UNL     1      45.088 -11.351   6.972  1.00  0.00     0.011 A 
BRANCH  19  22
HETATM   22  N   UNL     1      44.220  -9.171   9.817  1.00  0.00    -0.303 N 
HETATM   23  C   UNL     1      43.570  -9.306  11.016  1.00  0.00     0.364 C 
HETATM   24  O   UNL     1      43.908  -8.619  11.975  1.00  0.00    -0.238 OA
HETATM   25  H   UNL     1      44.929  -8.452   9.886  1.00  0.00     0.171 HD
BRANCH  23  26
HETATM   26  O   UNL     1      42.555 -10.203  11.040  1.00  0.00    -0.309 OA
HETATM   27  C   UNL     1      41.267  -9.619  11.248  1.00  0.00     0.215 C 
ENDBRANCH  23  26
ENDBRANCH  19  22
ENDBRANCH  15  16
ENDBRANCH   1  15
TORSDOF 6
ENDMDL
MODEL 6
REMARK VINA RESULT:      -6.9     14.346     16.340
REMARK  6 active torsions:
REMARK  status: ('A' for Active; 'I' for Inactive)
REMARK    1  A    between atoms: C_2  and  N_3 
REMARK    2  A    between atoms: C_2  and  C_18 
REMARK    3  A    between atoms: N_3  and  C_6 
REMARK    4  A    between atoms: C_6  and  C_7 
REMARK    5  A    between atoms: C_10  and  N_11 
REMARK       I    between atoms: N_11  and  C_12 
REMARK    6  A    between atoms: C_12  and  O_13 
ROOT
HETATM    1  N   UNL     1      45.827 -27.919  -0.250  1.00  0.00    -0.061 N 
HETATM    2  H   UNL     1      45.678 -26.933   0.004  1.00  0.00     0.278 HD
HETATM    3  H   UNL     1      46.445 -27.850  -1.073  1.00  0.00     0.278 HD
ENDROOT
BRANCH   1   4
HETATM    4  C   UNL     1      46.632 -28.553   0.860  1.00  0.00     0.241 C 
HETATM    5  C   UNL     1      45.776 -29.589   1.585  1.00  0.00     0.047 C 
BRANCH   4   6
HETATM    6  C   UNL     1      47.850 -29.202   0.252  1.00  0.00     0.106 A 
HETATM    7  S   UNL     1      48.265 -28.967  -1.389  1.00  0.00    -0.070 SA
HETATM    8  C   UNL     1      49.648 -29.974  -1.178  1.00  0.00     0.035 A 
HETATM    9  C   UNL     1      49.678 -30.438   0.140  1.00  0.00     0.075 A 
HETATM   10  C   UNL     1      50.635 -30.328  -2.113  1.00  0.00     0.021 A 
HETATM   11  N   UNL     1      48.632 -30.002   0.946  1.00  0.00    -0.243 NA
HETATM   12  C   UNL     1      50.732 -31.285   0.537  1.00  0.00     0.033 A 
HETATM   13  C   UNL     1      51.722 -31.640  -0.385  1.00  0.00     0.002 A 
HETATM   14  C   UNL     1      51.672 -31.166  -1.692  1.00  0.00     0.002 A 
ENDBRANCH   4   6
ENDBRANCH   1   4
BRANCH   1  15
HETATM   15  C   UNL     1      44.525 -28.528  -0.607  1.00  0.00     0.271 C 
BRANCH  15  16
HETATM   16  C   UNL     1      44.537 -29.060  -2.013  1.00  0.00    -0.033 A 
HETATM   17  C   UNL     1      44.924 -28.245  -3.084  1.00  0.00     0.011 A 
HETATM   18  C   UNL     1      44.922 -28.736  -4.397  1.00  0.00     0.030 A 
HETATM   19  C   UNL     1      44.539 -30.050  -4.667  1.00  0.00     0.036 A 
HETATM   20  C   UNL     1      44.159 -30.864  -3.593  1.00  0.00     0.030 A 
HETATM   21  C   UNL     1      44.151 -30.378  -2.281  1.00  0.00     0.011 A 
BRANCH  19  22
HETATM   22  N   UNL     1      44.512 -30.638  -5.942  1.00  0.00    -0.303 N 
HETATM   23  C   UNL     1      45.425 -31.388  -6.636  1.00  0.00     0.364 C 
HETATM   24  O   UNL     1      45.144 -31.814  -7.752  1.00  0.00    -0.238 OA
HETATM   25  H   UNL     1      43.676 -30.508  -6.498  1.00  0.00     0.171 HD
BRANCH  23  26
HETATM   26  O   UNL     1      46.616 -31.587  -6.021  1.00  0.00    -0.309 OA
HETATM   27  C   UNL     1      47.476 -32.505  -6.701  1.00  0.00     0.215 C 
ENDBRANCH  23  26
ENDBRANCH  19  22
ENDBRANCH  15  16
ENDBRANCH   1  15
TORSDOF 6
ENDMDL
MODEL 7
REMARK VINA RESULT:      -6.5      4.812      8.134
REMARK  6 active torsions:
REMARK  status: ('A' for Active; 'I' for Inactive)
REMARK    1  A    between atoms: C_2  and  N_3 
REMARK    2  A    between atoms: C_2  and  C_18 
REMARK    3  A    between atoms: N_3  and  C_6 
REMARK    4  A    between atoms: C_6  and  C_7 
REMARK    5  A    between atoms: C_10  and  N_11 
REMARK       I    between atoms: N_11  and  C_12 
REMARK    6  A    between atoms: C_12  and  O_13 
ROOT
HETATM    1  N   UNL     1      42.029 -11.865   4.595  1.00  0.00    -0.061 N 
HETATM    2  H   UNL     1      42.459 -11.505   3.732  1.00  0.00     0.278 HD
HETATM    3  H   UNL     1      42.840 -12.238   5.112  1.00  0.00     0.278 HD
ENDROOT
BRANCH   1   4
HETATM    4  C   UNL     1      41.512 -10.678   5.371  1.00  0.00     0.241 C 
HETATM    5  C   UNL     1      40.084 -10.953   5.837  1.00  0.00     0.047 C 
BRANCH   4   6
HETATM    6  C   UNL     1      42.421 -10.451   6.553  1.00  0.00     0.106 A 
HETATM    7  S   UNL     1      44.018 -11.059   6.584  1.00  0.00    -0.070 SA
HETATM    8  C   UNL     1      44.247 -10.365   8.145  1.00  0.00     0.035 A 
HETATM    9  C   UNL     1      43.066  -9.731   8.541  1.00  0.00     0.075 A 
HETATM   10  C   UNL     1      45.390 -10.381   8.961  1.00  0.00     0.021 A 
HETATM   11  N   UNL     1      42.020  -9.803   7.626  1.00  0.00    -0.243 NA
HETATM   12  C   UNL     1      43.027  -9.091   9.795  1.00  0.00     0.033 A 
HETATM   13  C   UNL     1      44.162  -9.097  10.613  1.00  0.00     0.002 A 
HETATM   14  C   UNL     1      45.327  -9.735  10.199  1.00  0.00     0.002 A 
ENDBRANCH   4   6
ENDBRANCH   1   4
BRANCH   1  15
HETATM   15  C   UNL     1      41.075 -12.944   4.245  1.00  0.00     0.271 C 
BRANCH  15  16
HETATM   16  C   UNL     1      41.670 -14.302   4.489  1.00  0.00    -0.033 A 
HETATM   17  C   UNL     1      40.989 -15.463   4.103  1.00  0.00     0.011 A 
HETATM   18  C   UNL     1      41.536 -16.730   4.343  1.00  0.00     0.030 A 
HETATM   19  C   UNL     1      42.775 -16.866   4.969  1.00  0.00     0.036 A 
HETATM   20  C   UNL     1      43.458 -15.703   5.347  1.00  0.00     0.030 A 
HETATM   21  C   UNL     1      42.913 -14.435   5.117  1.00  0.00     0.011 A 
BRANCH  19  22
HETATM   22  N   UNL     1      43.413 -18.086   5.244  1.00  0.00    -0.303 N 
HETATM   23  C   UNL     1      44.118 -18.962   4.461  1.00  0.00     0.364 C 
HETATM   24  O   UNL     1      44.607 -19.971   4.960  1.00  0.00    -0.238 OA
HETATM   25  H   UNL     1      43.368 -18.430   6.195  1.00  0.00     0.171 HD
BRANCH  23  26
HETATM   26  O   UNL     1      44.203 -18.642   3.147  1.00  0.00    -0.309 OA
HETATM   27  C   UNL     1      43.412 -19.474   2.293  1.00  0.00     0.215 C 
ENDBRANCH  23  26
ENDBRANCH  19  22
ENDBRANCH  15  16
ENDBRANCH   1  15
TORSDOF 6
ENDMDL
MODEL 8
REMARK VINA RESULT:      -6.5      4.951      6.855
REMARK  6 active torsions:
REMARK  status: ('A' for Active; 'I' for Inactive)
REMARK    1  A    between atoms: C_2  and  N_3 
REMARK    2  A    between atoms: C_2  and  C_18 
REMARK    3  A    between atoms: N_3  and  C_6 
REMARK    4  A    between atoms: C_6  and  C_7 
REMARK    5  A    between atoms: C_10  and  N_11 
REMARK       I    between atoms: N_11  and  C_12 
REMARK    6  A    between atoms: C_12  and  O_13 
ROOT
HETATM    1  N   UNL     1      41.500 -14.209   5.402  1.00  0.00    -0.061 N 
HETATM    2  H   UNL     1      41.042 -15.038   5.001  1.00  0.00     0.278 HD
HETATM    3  H   UNL     1      41.210 -14.247   6.391  1.00  0.00     0.278 HD
ENDROOT
BRANCH   1   4
HETATM    4  C   UNL     1      42.990 -14.455   5.364  1.00  0.00     0.241 C 
HETATM    5  C   UNL     1      43.573 -14.280   6.764  1.00  0.00     0.047 C 
BRANCH   4   6
HETATM    6  C   UNL     1      43.225 -15.858   4.862  1.00  0.00     0.106 A 
HETATM    7  S   UNL     1      43.993 -17.039   5.831  1.00  0.00    -0.070 SA
HETATM    8  C   UNL     1      43.820 -18.188   4.559  1.00  0.00     0.035 A 
HETATM    9  C   UNL     1      43.201 -17.572   3.467  1.00  0.00     0.075 A 
HETATM   10  C   UNL     1      44.205 -19.538   4.528  1.00  0.00     0.021 A 
HETATM   11  N   UNL     1      42.881 -16.230   3.648  1.00  0.00    -0.243 NA
HETATM   12  C   UNL     1      42.958 -18.333   2.306  1.00  0.00     0.033 A 
HETATM   13  C   UNL     1      43.334 -19.679   2.268  1.00  0.00     0.002 A 
HETATM   14  C   UNL     1      43.949 -20.272   3.366  1.00  0.00     0.002 A 
ENDBRANCH   4   6
ENDBRANCH   1   4
BRANCH   1  15
HETATM   15  C   UNL     1      40.973 -12.995   4.736  1.00  0.00     0.271 C 
BRANCH  15  16
HETATM   16  C   UNL     1      40.819 -11.860   5.708  1.00  0.00    -0.033 A 
HETATM   17  C   UNL     1      39.606 -11.649   6.377  1.00  0.00     0.011 A 
HETATM   18  C   UNL     1      39.456 -10.582   7.273  1.00  0.00     0.030 A 
HETATM   19  C   UNL     1      40.513  -9.707   7.524  1.00  0.00     0.036 A 
HETATM   20  C   UNL     1      41.726  -9.924   6.859  1.00  0.00     0.030 A 
HETATM   21  C   UNL     1      41.880 -10.983   5.957  1.00  0.00     0.011 A 
BRANCH  19  22
HETATM   22  N   UNL     1      40.468  -8.617   8.408  1.00  0.00    -0.303 N 
HETATM   23  C   UNL     1      40.706  -8.504   9.754  1.00  0.00     0.364 C 
HETATM   24  O   UNL     1      40.620  -7.409  10.299  1.00  0.00    -0.238 OA
HETATM   25  H   UNL     1      40.210  -7.717   8.025  1.00  0.00     0.171 HD
BRANCH  23  26
HETATM   26  O   UNL     1      41.006  -9.657  10.399  1.00  0.00    -0.309 OA
HETATM   27  C   UNL     1      42.343  -9.710  10.903  1.00  0.00     0.215 C 
ENDBRANCH  23  26
ENDBRANCH  19  22
ENDBRANCH  15  16
ENDBRANCH   1  15
TORSDOF 6
ENDMDL
MODEL 9
REMARK VINA RESULT:      -6.5      6.950      9.642
REMARK  6 active torsions:
REMARK  status: ('A' for Active; 'I' for Inactive)
REMARK    1  A    between atoms: C_2  and  N_3 
REMARK    2  A    between atoms: C_2  and  C_18 
REMARK    3  A    between atoms: N_3  and  C_6 
REMARK    4  A    between atoms: C_6  and  C_7 
REMARK    5  A    between atoms: C_10  and  N_11 
REMARK       I    between atoms: N_11  and  C_12 
REMARK    6  A    between atoms: C_12  and  O_13 
ROOT
HETATM    1  N   UNL     1      42.983 -11.757   6.950  1.00  0.00    -0.061 N 
HETATM    2  H   UNL     1      42.523 -11.941   7.852  1.00  0.00     0.278 HD
HETATM    3  H   UNL     1      43.479 -12.643   6.766  1.00  0.00     0.278 HD
ENDROOT
BRANCH   1   4
HETATM    4  C   UNL     1      41.898 -11.627   5.909  1.00  0.00     0.241 C 
HETATM    5  C   UNL     1      42.191 -10.428   5.010  1.00  0.00     0.047 C 
BRANCH   4   6
HETATM    6  C   UNL     1      41.861 -12.900   5.100  1.00  0.00     0.106 A 
HETATM    7  S   UNL     1      40.520 -13.299   4.119  1.00  0.00    -0.070 SA
HETATM    8  C   UNL     1      41.312 -14.752   3.636  1.00  0.00     0.035 A 
HETATM    9  C   UNL     1      42.547 -14.836   4.285  1.00  0.00     0.075 A 
HETATM   10  C   UNL     1      40.871 -15.746   2.748  1.00  0.00     0.021 A 
HETATM   11  N   UNL     1      42.843 -13.776   5.136  1.00  0.00    -0.243 NA
HETATM   12  C   UNL     1      43.370 -15.953   4.036  1.00  0.00     0.033 A 
HETATM   13  C   UNL     1      42.941 -16.946   3.149  1.00  0.00     0.002 A 
HETATM   14  C   UNL     1      41.708 -16.842   2.514  1.00  0.00     0.002 A 
ENDBRANCH   4   6
ENDBRANCH   1   4
BRANCH   1  15
HETATM   15  C   UNL     1      43.936 -10.635   7.114  1.00  0.00     0.271 C 
BRANCH  15  16
HETATM   16  C   UNL     1      43.824 -10.016   8.479  1.00  0.00    -0.033 A 
HETATM   17  C   UNL     1      44.888 -10.084   9.386  1.00  0.00     0.011 A 
HETATM   18  C   UNL     1      44.779  -9.519  10.664  1.00  0.00     0.030 A 
HETATM   19  C   UNL     1      43.609  -8.872  11.062  1.00  0.00     0.036 A 
HETATM   20  C   UNL     1      42.549  -8.799  10.150  1.00  0.00     0.030 A 
HETATM   21  C   UNL     1      42.649  -9.368   8.875  1.00  0.00     0.011 A 
BRANCH  19  22
HETATM   22  N   UNL     1      43.405  -8.268  12.312  1.00  0.00    -0.303 N 
HETATM   23  C   UNL     1      42.659  -8.626  13.405  1.00  0.00     0.364 C 
HETATM   24  O   UNL     1      42.668  -7.921  14.409  1.00  0.00    -0.238 OA
HETATM   25  H   UNL     1      43.878  -7.390  12.488  1.00  0.00     0.171 HD
BRANCH  23  26
HETATM   26  O   UNL     1      41.928  -9.760  13.275  1.00  0.00    -0.309 OA
HETATM   27  C   UNL     1      40.527  -9.577  13.494  1.00  0.00     0.215 C 
ENDBRANCH  23  26
ENDBRANCH  19  22
ENDBRANCH  15  16
ENDBRANCH   1  15
TORSDOF 6
ENDMDL
MODEL 10
REMARK VINA RESULT:      -6.5      2.810      4.120
REMARK  6 active torsions:
REMARK  status: ('A' for Active; 'I' for Inactive)
REMARK    1  A    between atoms: C_2  and  N_3 
REMARK    2  A    between atoms: C_2  and  C_18 
REMARK    3  A    between atoms: N_3  and  C_6 
REMARK    4  A    between atoms: C_6  and  C_7 
REMARK    5  A    between atoms: C_10  and  N_11 
REMARK       I    between atoms: N_11  and  C_12 
REMARK    6  A    between atoms: C_12  and  O_13 
ROOT
HETATM    1  N   UNL     1      41.275 -14.147   0.483  1.00  0.00    -0.061 N 
HETATM    2  H   UNL     1      41.651 -13.258   0.124  1.00  0.00     0.278 HD
HETATM    3  H   UNL     1      42.016 -14.821   0.237  1.00  0.00     0.278 HD
ENDROOT
BRANCH   1   4
HETATM    4  C   UNL     1      41.245 -14.047   1.989  1.00  0.00     0.241 C 
HETATM    5  C   UNL     1      39.797 -14.065   2.474  1.00  0.00     0.047 C 
BRANCH   4   6
HETATM    6  C   UNL     1      42.009 -15.216   2.558  1.00  0.00     0.106 A 
HETATM    7  S   UNL     1      42.810 -15.115   4.064  1.00  0.00    -0.070 SA
HETATM    8  C   UNL     1      43.327 -16.750   3.894  1.00  0.00     0.035 A 
HETATM    9  C   UNL     1      42.862 -17.251   2.675  1.00  0.00     0.075 A 
HETATM   10  C   UNL     1      44.089 -17.533   4.776  1.00  0.00     0.021 A 
HETATM   11  N   UNL     1      42.123 -16.356   1.909  1.00  0.00    -0.243 NA
HETATM   12  C   UNL     1      43.170 -18.582   2.326  1.00  0.00     0.033 A 
HETATM   13  C   UNL     1      43.925 -19.371   3.201  1.00  0.00     0.002 A 
HETATM   14  C   UNL     1      44.377 -18.851   4.409  1.00  0.00     0.002 A 
ENDBRANCH   4   6
ENDBRANCH   1   4
BRANCH   1  15
HETATM   15  C   UNL     1      40.012 -14.458  -0.225  1.00  0.00     0.271 C 
BRANCH  15  16
HETATM   16  C   UNL     1      39.632 -13.359  -1.176  1.00  0.00    -0.033 A 
HETATM   17  C   UNL     1      38.312 -12.894  -1.243  1.00  0.00     0.011 A 
HETATM   18  C   UNL     1      37.953 -11.878  -2.140  1.00  0.00     0.030 A 
HETATM   19  C   UNL     1      38.903 -11.303  -2.984  1.00  0.00     0.036 A 
HETATM   20  C   UNL     1      40.223 -11.765  -2.909  1.00  0.00     0.030 A 
HETATM   21  C   UNL     1      40.586 -12.784  -2.022  1.00  0.00     0.011 A 
BRANCH  19  22
HETATM   22  N   UNL     1      38.648 -10.276  -3.907  1.00  0.00    -0.303 N 
HETATM   23  C   UNL     1      38.845  -8.920  -3.865  1.00  0.00     0.364 C 
HETATM   24  O   UNL     1      38.553  -8.230  -4.836  1.00  0.00    -0.238 OA
HETATM   25  H   UNL     1      38.234 -10.539  -4.793  1.00  0.00     0.171 HD
BRANCH  23  26
HETATM   26  O   UNL     1      39.345  -8.433  -2.704  1.00  0.00    -0.309 OA
HETATM   27  C   UNL     1      38.382  -7.750  -1.898  1.00  0.00     0.215 C 
ENDBRANCH  23  26
ENDBRANCH  19  22
ENDBRANCH  15  16
ENDBRANCH   1  15
TORSDOF 6
ENDMDL
