MODEL 1
REMARK VINA RESULT:      -8.1      0.000      0.000
REMARK  2 active torsions:
REMARK  status: ('A' for Active; 'I' for Inactive)
REMARK    1  A    between atoms: C_5  and  O_6 
REMARK    2  A    between atoms: C_5  and  C_7 
ROOT
HETATM    1  C   UNL     1      39.137 -12.428   2.431  1.00  0.00     0.050 C 
HETATM    2  C   UNL     1      40.514 -12.527   3.003  1.00  0.00    -0.035 A 
HETATM    3  C   UNL     1      40.817 -13.338   4.085  1.00  0.00     0.051 A 
HETATM    4  C   UNL     1      42.114 -13.455   4.609  1.00  0.00     0.018 A 
HETATM    5  C   UNL     1      42.096 -14.388   5.791  1.00  0.00     0.198 A 
HETATM    6  C   UNL     1      40.588 -14.798   5.845  1.00  0.00     0.266 A 
HETATM    7  O   UNL     1      40.043 -15.501   6.685  1.00  0.00    -0.269 OA
HETATM    8  N   UNL     1      39.939 -14.143   4.803  1.00  0.00    -0.323 N 
HETATM    9  C   UNL     1      43.161 -12.738   4.051  1.00  0.00     0.013 A 
HETATM   10  C   UNL     1      42.890 -11.932   2.943  1.00  0.00     0.001 A 
HETATM   11  C   UNL     1      41.585 -11.831   2.423  1.00  0.00     0.009 A 
HETATM   12  H   UNL     1      38.946 -14.224   4.646  1.00  0.00     0.169 HD
ENDROOT
BRANCH   5  13
HETATM   13  O   UNL     1      42.466 -13.658   6.957  1.00  0.00    -0.371 OA
HETATM   14  H   UNL     1      42.152 -12.753   6.790  1.00  0.00     0.212 HD
ENDBRANCH   5  13
BRANCH   5  15
HETATM   15  C   UNL     1      42.991 -15.580   5.540  1.00  0.00     0.018 A 
HETATM   16  C   UNL     1      42.997 -16.530   4.448  1.00  0.00     0.002 A 
HETATM   17  C   UNL     1      44.000 -17.469   4.709  1.00  0.00     0.043 A 
HETATM   18  C   UNL     1      42.252 -16.692   3.257  1.00  0.00     0.014 A 
HETATM   19  C   UNL     1      44.296 -18.536   3.852  1.00  0.00     0.030 A 
HETATM   20  N   UNL     1      44.577 -17.128   5.905  1.00  0.00    -0.365 N 
HETATM   21  C   UNL     1      43.551 -18.656   2.677  1.00  0.00     0.002 A 
HETATM   22  C   UNL     1      42.543 -17.747   2.382  1.00  0.00     0.001 A 
HETATM   23  H   UNL     1      45.326 -17.643   6.347  1.00  0.00     0.165 HD
HETATM   24  C   UNL     1      43.990 -16.003   6.409  1.00  0.00     0.100 A 
ENDBRANCH   5  15
TORSDOF 2
ENDMDL
MODEL 2
REMARK VINA RESULT:      -8.0      1.940      2.202
REMARK  2 active torsions:
REMARK  status: ('A' for Active; 'I' for Inactive)
REMARK    1  A    between atoms: C_5  and  O_6 
REMARK    2  A    between atoms: C_5  and  C_7 
ROOT
HETATM    1  C   UNL     1      40.850 -11.017   5.550  1.00  0.00     0.050 C 
HETATM    2  C   UNL     1      42.000 -11.899   5.915  1.00  0.00    -0.035 A 
HETATM    3  C   UNL     1      41.838 -13.230   6.266  1.00  0.00     0.051 A 
HETATM    4  C   UNL     1      42.917 -14.069   6.584  1.00  0.00     0.018 A 
HETATM    5  C   UNL     1      42.400 -15.437   6.945  1.00  0.00     0.198 A 
HETATM    6  C   UNL     1      40.858 -15.248   6.764  1.00  0.00     0.266 A 
HETATM    7  O   UNL     1      39.979 -16.065   7.006  1.00  0.00    -0.269 OA
HETATM    8  N   UNL     1      40.643 -13.935   6.356  1.00  0.00    -0.323 N 
HETATM    9  C   UNL     1      44.214 -13.580   6.564  1.00  0.00     0.013 A 
HETATM   10  C   UNL     1      44.410 -12.249   6.190  1.00  0.00     0.001 A 
HETATM   11  C   UNL     1      43.318 -11.421   5.865  1.00  0.00     0.009 A 
HETATM   12  H   UNL     1      39.720 -13.560   6.200  1.00  0.00     0.169 HD
ENDROOT
BRANCH   5  13
HETATM   13  O   UNL     1      42.722 -15.705   8.307  1.00  0.00    -0.371 OA
HETATM   14  H   UNL     1      43.358 -16.441   8.268  1.00  0.00     0.212 HD
ENDBRANCH   5  13
BRANCH   5  15
HETATM   15  C   UNL     1      42.950 -16.480   6.000  1.00  0.00     0.018 A 
HETATM   16  C   UNL     1      42.974 -16.508   4.552  1.00  0.00     0.002 A 
HETATM   17  C   UNL     1      43.561 -17.717   4.162  1.00  0.00     0.043 A 
HETATM   18  C   UNL     1      42.557 -15.630   3.526  1.00  0.00     0.014 A 
HETATM   19  C   UNL     1      43.756 -18.080   2.824  1.00  0.00     0.030 A 
HETATM   20  N   UNL     1      43.872 -18.407   5.306  1.00  0.00    -0.365 N 
HETATM   21  C   UNL     1      43.346 -17.181   1.837  1.00  0.00     0.002 A 
HETATM   22  C   UNL     1      42.756 -15.972   2.182  1.00  0.00     0.001 A 
HETATM   23  H   UNL     1      44.298 -19.324   5.323  1.00  0.00     0.165 HD
HETATM   24  C   UNL     1      43.519 -17.681   6.406  1.00  0.00     0.100 A 
ENDBRANCH   5  15
TORSDOF 2
ENDMDL
MODEL 3
REMARK VINA RESULT:      -7.9      2.471      5.453
REMARK  2 active torsions:
REMARK  status: ('A' for Active; 'I' for Inactive)
REMARK    1  A    between atoms: C_5  and  O_6 
REMARK    2  A    between atoms: C_5  and  C_7 
ROOT
HETATM    1  C   UNL     1      44.311 -17.182   6.018  1.00  0.00     0.050 C 
HETATM    2  C   UNL     1      43.557 -17.145   4.728  1.00  0.00    -0.035 A 
HETATM    3  C   UNL     1      42.511 -16.265   4.499  1.00  0.00     0.051 A 
HETATM    4  C   UNL     1      41.818 -16.209   3.280  1.00  0.00     0.018 A 
HETATM    5  C   UNL     1      40.729 -15.172   3.369  1.00  0.00     0.198 A 
HETATM    6  C   UNL     1      40.925 -14.635   4.825  1.00  0.00     0.266 A 
HETATM    7  O   UNL     1      40.231 -13.814   5.409  1.00  0.00    -0.269 OA
HETATM    8  N   UNL     1      41.993 -15.328   5.386  1.00  0.00    -0.323 N 
HETATM    9  C   UNL     1      42.161 -17.058   2.240  1.00  0.00     0.013 A 
HETATM   10  C   UNL     1      43.228 -17.939   2.433  1.00  0.00     0.001 A 
HETATM   11  C   UNL     1      43.920 -17.978   3.659  1.00  0.00     0.009 A 
HETATM   12  H   UNL     1      42.297 -15.179   6.335  1.00  0.00     0.169 HD
ENDROOT
BRANCH   5  13
HETATM   13  O   UNL     1      39.467 -15.819   3.231  1.00  0.00    -0.371 OA
HETATM   14  H   UNL     1      39.411 -16.413   3.999  1.00  0.00     0.212 HD
ENDBRANCH   5  13
BRANCH   5  15
HETATM   15  C   UNL     1      40.944 -14.087   2.339  1.00  0.00     0.018 A 
HETATM   16  C   UNL     1      40.562 -14.035   0.943  1.00  0.00     0.002 A 
HETATM   17  C   UNL     1      41.031 -12.825   0.421  1.00  0.00     0.043 A 
HETATM   18  C   UNL     1      39.863 -14.893   0.063  1.00  0.00     0.014 A 
HETATM   19  C   UNL     1      40.832 -12.434  -0.909  1.00  0.00     0.030 A 
HETATM   20  N   UNL     1      41.681 -12.168   1.434  1.00  0.00    -0.365 N 
HETATM   21  C   UNL     1      40.123 -13.298  -1.745  1.00  0.00     0.002 A 
HETATM   22  C   UNL     1      39.644 -14.511  -1.267  1.00  0.00     0.001 A 
HETATM   23  H   UNL     1      42.132 -11.268   1.335  1.00  0.00     0.165 HD
HETATM   24  C   UNL     1      41.632 -12.904   2.582  1.00  0.00     0.100 A 
ENDBRANCH   5  15
TORSDOF 2
ENDMDL
MODEL 4
REMARK VINA RESULT:      -7.8      2.232      3.175
REMARK  2 active torsions:
REMARK  status: ('A' for Active; 'I' for Inactive)
REMARK    1  A    between atoms: C_5  and  O_6 
REMARK    2  A    between atoms: C_5  and  C_7 
ROOT
HETATM    1  C   UNL     1      42.403 -10.773   4.732  1.00  0.00     0.050 C 
HETATM    2  C   UNL     1      41.805 -12.138   4.851  1.00  0.00    -0.035 A 
HETATM    3  C   UNL     1      42.205 -13.200   4.055  1.00  0.00     0.051 A 
HETATM    4  C   UNL     1      41.665 -14.490   4.181  1.00  0.00     0.018 A 
HETATM    5  C   UNL     1      42.290 -15.398   3.155  1.00  0.00     0.198 A 
HETATM    6  C   UNL     1      43.284 -14.425   2.438  1.00  0.00     0.266 A 
HETATM    7  O   UNL     1      43.989 -14.671   1.469  1.00  0.00    -0.269 OA
HETATM    8  N   UNL     1      43.162 -13.180   3.047  1.00  0.00    -0.323 N 
HETATM    9  C   UNL     1      40.685 -14.749   5.127  1.00  0.00     0.013 A 
HETATM   10  C   UNL     1      40.281 -13.704   5.960  1.00  0.00     0.001 A 
HETATM   11  C   UNL     1      40.838 -12.417   5.827  1.00  0.00     0.009 A 
HETATM   12  H   UNL     1      43.683 -12.373   2.740  1.00  0.00     0.169 HD
ENDROOT
BRANCH   5  13
HETATM   13  O   UNL     1      41.277 -15.842   2.258  1.00  0.00    -0.371 OA
HETATM   14  H   UNL     1      40.867 -16.602   2.707  1.00  0.00     0.212 HD
ENDBRANCH   5  13
BRANCH   5  15
HETATM   15  C   UNL     1      43.015 -16.540   3.829  1.00  0.00     0.018 A 
HETATM   16  C   UNL     1      43.205 -17.909   3.398  1.00  0.00     0.002 A 
HETATM   17  C   UNL     1      43.914 -18.575   4.403  1.00  0.00     0.043 A 
HETATM   18  C   UNL     1      42.848 -18.657   2.252  1.00  0.00     0.014 A 
HETATM   19  C   UNL     1      44.285 -19.923   4.318  1.00  0.00     0.030 A 
HETATM   20  N   UNL     1      44.139 -17.672   5.410  1.00  0.00    -0.365 N 
HETATM   21  C   UNL     1      43.930 -20.627   3.165  1.00  0.00     0.002 A 
HETATM   22  C   UNL     1      43.222 -20.004   2.145  1.00  0.00     0.001 A 
HETATM   23  H   UNL     1      44.623 -17.885   6.272  1.00  0.00     0.165 HD
HETATM   24  C   UNL     1      43.615 -16.456   5.079  1.00  0.00     0.100 A 
ENDBRANCH   5  15
TORSDOF 2
ENDMDL
MODEL 5
REMARK VINA RESULT:      -7.6      1.648      5.328
REMARK  2 active torsions:
REMARK  status: ('A' for Active; 'I' for Inactive)
REMARK    1  A    between atoms: C_5  and  O_6 
REMARK    2  A    between atoms: C_5  and  C_7 
ROOT
HETATM    1  C   UNL     1      44.528 -19.259   4.921  1.00  0.00     0.050 C 
HETATM    2  C   UNL     1      43.756 -18.296   4.077  1.00  0.00    -0.035 A 
HETATM    3  C   UNL     1      42.855 -17.390   4.614  1.00  0.00     0.051 A 
HETATM    4  C   UNL     1      42.148 -16.465   3.829  1.00  0.00     0.018 A 
HETATM    5  C   UNL     1      41.238 -15.651   4.710  1.00  0.00     0.198 A 
HETATM    6  C   UNL     1      41.554 -16.246   6.122  1.00  0.00     0.266 A 
HETATM    7  O   UNL     1      41.012 -15.960   7.182  1.00  0.00    -0.269 OA
HETATM    8  N   UNL     1      42.514 -17.238   5.953  1.00  0.00    -0.323 N 
HETATM    9  C   UNL     1      42.327 -16.433   2.455  1.00  0.00     0.013 A 
HETATM   10  C   UNL     1      43.247 -17.318   1.889  1.00  0.00     0.001 A 
HETATM   11  C   UNL     1      43.956 -18.234   2.690  1.00  0.00     0.009 A 
HETATM   12  H   UNL     1      42.862 -17.792   6.720  1.00  0.00     0.169 HD
ENDROOT
BRANCH   5  13
HETATM   13  O   UNL     1      39.887 -15.911   4.340  1.00  0.00    -0.371 OA
HETATM   14  H   UNL     1      39.382 -15.803   5.164  1.00  0.00     0.212 HD
ENDBRANCH   5  13
BRANCH   5  15
HETATM   15  C   UNL     1      41.593 -14.184   4.629  1.00  0.00     0.018 A 
HETATM   16  C   UNL     1      42.624 -13.433   5.315  1.00  0.00     0.002 A 
HETATM   17  C   UNL     1      42.508 -12.097   4.920  1.00  0.00     0.043 A 
HETATM   18  C   UNL     1      43.651 -13.750   6.234  1.00  0.00     0.014 A 
HETATM   19  C   UNL     1      43.355 -11.082   5.382  1.00  0.00     0.030 A 
HETATM   20  N   UNL     1      41.453 -12.019   4.047  1.00  0.00    -0.365 N 
HETATM   21  C   UNL     1      44.368 -11.434   6.277  1.00  0.00     0.002 A 
HETATM   22  C   UNL     1      44.515 -12.750   6.697  1.00  0.00     0.001 A 
HETATM   23  H   UNL     1      41.132 -11.165   3.611  1.00  0.00     0.165 HD
HETATM   24  C   UNL     1      40.903 -13.254   3.861  1.00  0.00     0.100 A 
ENDBRANCH   5  15
TORSDOF 2
ENDMDL
MODEL 6
REMARK VINA RESULT:      -7.4      2.342      3.320
REMARK  2 active torsions:
REMARK  status: ('A' for Active; 'I' for Inactive)
REMARK    1  A    between atoms: C_5  and  O_6 
REMARK    2  A    between atoms: C_5  and  C_7 
ROOT
HETATM    1  C   UNL     1      42.479  -9.165   7.041  1.00  0.00     0.050 C 
HETATM    2  C   UNL     1      43.087 -10.517   6.850  1.00  0.00    -0.035 A 
HETATM    3  C   UNL     1      42.333 -11.636   6.534  1.00  0.00     0.051 A 
HETATM    4  C   UNL     1      42.902 -12.903   6.328  1.00  0.00     0.018 A 
HETATM    5  C   UNL     1      41.814 -13.900   6.030  1.00  0.00     0.198 A 
HETATM    6  C   UNL     1      40.538 -12.997   6.081  1.00  0.00     0.266 A 
HETATM    7  O   UNL     1      39.373 -13.356   5.971  1.00  0.00    -0.269 OA
HETATM    8  N   UNL     1      40.954 -11.701   6.368  1.00  0.00    -0.323 N 
HETATM    9  C   UNL     1      44.272 -13.081   6.443  1.00  0.00     0.013 A 
HETATM   10  C   UNL     1      45.059 -11.966   6.736  1.00  0.00     0.001 A 
HETATM   11  C   UNL     1      44.475 -10.700   6.932  1.00  0.00     0.009 A 
HETATM   12  H   UNL     1      40.307 -10.936   6.482  1.00  0.00     0.169 HD
ENDROOT
BRANCH   5  13
HETATM   13  O   UNL     1      41.788 -14.875   7.069  1.00  0.00    -0.371 OA
HETATM   14  H   UNL     1      42.535 -15.466   6.869  1.00  0.00     0.212 HD
ENDBRANCH   5  13
BRANCH   5  15
HETATM   15  C   UNL     1      42.012 -14.510   4.662  1.00  0.00     0.018 A 
HETATM   16  C   UNL     1      42.628 -15.763   4.278  1.00  0.00     0.002 A 
HETATM   17  C   UNL     1      42.595 -15.841   2.882  1.00  0.00     0.043 A 
HETATM   18  C   UNL     1      43.213 -16.846   4.974  1.00  0.00     0.014 A 
HETATM   19  C   UNL     1      43.100 -16.930   2.161  1.00  0.00     0.030 A 
HETATM   20  N   UNL     1      42.003 -14.692   2.423  1.00  0.00    -0.365 N 
HETATM   21  C   UNL     1      43.656 -17.989   2.882  1.00  0.00     0.002 A 
HETATM   22  C   UNL     1      43.712 -17.949   4.269  1.00  0.00     0.001 A 
HETATM   23  H   UNL     1      41.859 -14.474   1.447  1.00  0.00     0.165 HD
HETATM   24  C   UNL     1      41.646 -13.894   3.471  1.00  0.00     0.100 A 
ENDBRANCH   5  15
TORSDOF 2
ENDMDL
MODEL 7
REMARK VINA RESULT:      -7.3      7.255      9.385
REMARK  2 active torsions:
REMARK  status: ('A' for Active; 'I' for Inactive)
REMARK    1  A    between atoms: C_5  and  O_6 
REMARK    2  A    between atoms: C_5  and  C_7 
ROOT
HETATM    1  C   UNL     1      44.033 -12.464   7.113  1.00  0.00     0.050 C 
HETATM    2  C   UNL     1      44.474 -11.106   7.554  1.00  0.00    -0.035 A 
HETATM    3  C   UNL     1      43.579 -10.086   7.836  1.00  0.00     0.051 A 
HETATM    4  C   UNL     1      43.987  -8.817   8.277  1.00  0.00     0.018 A 
HETATM    5  C   UNL     1      42.778  -7.938   8.465  1.00  0.00     0.198 A 
HETATM    6  C   UNL     1      41.618  -8.914   8.080  1.00  0.00     0.266 A 
HETATM    7  O   UNL     1      40.425  -8.651   8.005  1.00  0.00    -0.269 OA
HETATM    8  N   UNL     1      42.192 -10.136   7.744  1.00  0.00    -0.323 N 
HETATM    9  C   UNL     1      45.333  -8.533   8.441  1.00  0.00     0.013 A 
HETATM   10  C   UNL     1      46.257  -9.549   8.188  1.00  0.00     0.001 A 
HETATM   11  C   UNL     1      45.832 -10.820   7.755  1.00  0.00     0.009 A 
HETATM   12  H   UNL     1      41.647 -10.924   7.431  1.00  0.00     0.169 HD
ENDROOT
BRANCH   5  13
HETATM   13  O   UNL     1      42.853  -6.852   7.547  1.00  0.00    -0.371 OA
HETATM   14  H   UNL     1      43.336  -6.157   8.028  1.00  0.00     0.212 HD
ENDBRANCH   5  13
BRANCH   5  15
HETATM   15  C   UNL     1      42.672  -7.482   9.901  1.00  0.00     0.018 A 
HETATM   16  C   UNL     1      42.593  -8.254  11.123  1.00  0.00     0.002 A 
HETATM   17  C   UNL     1      42.467  -7.354  12.186  1.00  0.00     0.043 A 
HETATM   18  C   UNL     1      42.617  -9.632  11.441  1.00  0.00     0.014 A 
HETATM   19  C   UNL     1      42.374  -7.753  13.525  1.00  0.00     0.030 A 
HETATM   20  N   UNL     1      42.453  -6.091  11.651  1.00  0.00    -0.365 N 
HETATM   21  C   UNL     1      42.417  -9.121  13.803  1.00  0.00     0.002 A 
HETATM   22  C   UNL     1      42.538 -10.049  12.776  1.00  0.00     0.001 A 
HETATM   23  H   UNL     1      42.359  -5.242  12.192  1.00  0.00     0.165 HD
HETATM   24  C   UNL     1      42.580  -6.152  10.294  1.00  0.00     0.100 A 
ENDBRANCH   5  15
TORSDOF 2
ENDMDL
MODEL 8
REMARK VINA RESULT:      -7.1     15.019     15.926
REMARK  2 active torsions:
REMARK  status: ('A' for Active; 'I' for Inactive)
REMARK    1  A    between atoms: C_5  and  O_6 
REMARK    2  A    between atoms: C_5  and  C_7 
ROOT
HETATM    1  C   UNL     1      44.019 -29.131  -3.005  1.00  0.00     0.050 C 
HETATM    2  C   UNL     1      45.094 -28.805  -2.018  1.00  0.00    -0.035 A 
HETATM    3  C   UNL     1      44.991 -29.116  -0.672  1.00  0.00     0.051 A 
HETATM    4  C   UNL     1      46.008 -28.836   0.253  1.00  0.00     0.018 A 
HETATM    5  C   UNL     1      45.572 -29.273   1.627  1.00  0.00     0.198 A 
HETATM    6  C   UNL     1      44.154 -29.863   1.333  1.00  0.00     0.266 A 
HETATM    7  O   UNL     1      43.349 -30.293   2.149  1.00  0.00    -0.269 OA
HETATM    8  N   UNL     1      43.922 -29.734  -0.032  1.00  0.00    -0.323 N 
HETATM    9  C   UNL     1      47.177 -28.215  -0.159  1.00  0.00     0.013 A 
HETATM   10  C   UNL     1      47.319 -27.912  -1.515  1.00  0.00     0.001 A 
HETATM   11  C   UNL     1      46.293 -28.208  -2.433  1.00  0.00     0.009 A 
HETATM   12  H   UNL     1      43.056 -30.018  -0.464  1.00  0.00     0.169 HD
ENDROOT
BRANCH   5  13
HETATM   13  O   UNL     1      45.481 -28.125   2.466  1.00  0.00    -0.371 OA
HETATM   14  H   UNL     1      44.854 -28.382   3.165  1.00  0.00     0.212 HD
ENDBRANCH   5  13
BRANCH   5  15
HETATM   15  C   UNL     1      46.513 -30.322   2.174  1.00  0.00     0.018 A 
HETATM   16  C   UNL     1      47.753 -30.175   2.905  1.00  0.00     0.002 A 
HETATM   17  C   UNL     1      48.258 -31.457   3.146  1.00  0.00     0.043 A 
HETATM   18  C   UNL     1      48.505 -29.081   3.392  1.00  0.00     0.014 A 
HETATM   19  C   UNL     1      49.449 -31.696   3.843  1.00  0.00     0.030 A 
HETATM   20  N   UNL     1      47.385 -32.351   2.582  1.00  0.00    -0.365 N 
HETATM   21  C   UNL     1      50.157 -30.593   4.323  1.00  0.00     0.002 A 
HETATM   22  C   UNL     1      49.693 -29.302   4.102  1.00  0.00     0.001 A 
HETATM   23  H   UNL     1      47.507 -33.355   2.593  1.00  0.00     0.165 HD
HETATM   24  C   UNL     1      46.339 -31.691   2.005  1.00  0.00     0.100 A 
ENDBRANCH   5  15
TORSDOF 2
ENDMDL
MODEL 9
REMARK VINA RESULT:      -7.0     15.480     17.016
REMARK  2 active torsions:
REMARK  status: ('A' for Active; 'I' for Inactive)
REMARK    1  A    between atoms: C_5  and  O_6 
REMARK    2  A    between atoms: C_5  and  C_7 
ROOT
HETATM    1  C   UNL     1      50.769 -30.960   3.701  1.00  0.00     0.050 C 
HETATM    2  C   UNL     1      49.512 -30.294   3.244  1.00  0.00    -0.035 A 
HETATM    3  C   UNL     1      49.280 -29.966   1.918  1.00  0.00     0.051 A 
HETATM    4  C   UNL     1      48.090 -29.365   1.480  1.00  0.00     0.018 A 
HETATM    5  C   UNL     1      48.169 -29.117  -0.004  1.00  0.00     0.198 A 
HETATM    6  C   UNL     1      49.585 -29.689  -0.343  1.00  0.00     0.266 A 
HETATM    7  O   UNL     1      50.154 -29.660  -1.426  1.00  0.00    -0.269 OA
HETATM    8  N   UNL     1      50.137 -30.168   0.841  1.00  0.00    -0.323 N 
HETATM    9  C   UNL     1      47.083 -29.066   2.384  1.00  0.00     0.013 A 
HETATM   10  C   UNL     1      47.278 -29.408   3.724  1.00  0.00     0.001 A 
HETATM   11  C   UNL     1      48.475 -30.018   4.147  1.00  0.00     0.009 A 
HETATM   12  H   UNL     1      51.063 -30.562   0.886  1.00  0.00     0.169 HD
ENDROOT
BRANCH   5  13
HETATM   13  O   UNL     1      48.119 -27.712  -0.237  1.00  0.00    -0.371 OA
HETATM   14  H   UNL     1      48.561 -27.319   0.536  1.00  0.00     0.212 HD
ENDBRANCH   5  13
BRANCH   5  15
HETATM   15  C   UNL     1      47.075 -29.867  -0.727  1.00  0.00     0.018 A 
HETATM   16  C   UNL     1      46.163 -29.423  -1.760  1.00  0.00     0.002 A 
HETATM   17  C   UNL     1      45.315 -30.493  -2.065  1.00  0.00     0.043 A 
HETATM   18  C   UNL     1      45.968 -28.218  -2.473  1.00  0.00     0.014 A 
HETATM   19  C   UNL     1      44.307 -30.422  -3.034  1.00  0.00     0.030 A 
HETATM   20  N   UNL     1      45.672 -31.540  -1.255  1.00  0.00    -0.365 N 
HETATM   21  C   UNL     1      44.153 -29.222  -3.730  1.00  0.00     0.002 A 
HETATM   22  C   UNL     1      44.972 -28.134  -3.455  1.00  0.00     0.001 A 
HETATM   23  H   UNL     1      45.216 -32.443  -1.252  1.00  0.00     0.165 HD
HETATM   24  C   UNL     1      46.721 -31.184  -0.458  1.00  0.00     0.100 A 
ENDBRANCH   5  15
TORSDOF 2
ENDMDL
MODEL 10
REMARK VINA RESULT:      -6.9      8.597     10.232
REMARK  2 active torsions:
REMARK  status: ('A' for Active; 'I' for Inactive)
REMARK    1  A    between atoms: C_5  and  O_6 
REMARK    2  A    between atoms: C_5  and  C_7 
ROOT
HETATM    1  C   UNL     1      39.440  -6.445  15.018  1.00  0.00     0.050 C 
HETATM    2  C   UNL     1      40.715  -7.001  14.472  1.00  0.00    -0.035 A 
HETATM    3  C   UNL     1      40.744  -8.035  13.549  1.00  0.00     0.051 A 
HETATM    4  C   UNL     1      41.938  -8.542  13.013  1.00  0.00     0.018 A 
HETATM    5  C   UNL     1      41.623  -9.672  12.068  1.00  0.00     0.198 A 
HETATM    6  C   UNL     1      40.061  -9.713  12.137  1.00  0.00     0.266 A 
HETATM    7  O   UNL     1      39.318 -10.517  11.589  1.00  0.00    -0.269 OA
HETATM    8  N   UNL     1      39.654  -8.714  13.015  1.00  0.00    -0.323 N 
HETATM    9  C   UNL     1      43.159  -8.017  13.404  1.00  0.00     0.013 A 
HETATM   10  C   UNL     1      43.160  -6.958  14.314  1.00  0.00     0.001 A 
HETATM   11  C   UNL     1      41.954  -6.453  14.837  1.00  0.00     0.009 A 
HETATM   12  H   UNL     1      38.686  -8.559  13.249  1.00  0.00     0.169 HD
ENDROOT
BRANCH   5  13
HETATM   13  O   UNL     1      42.186 -10.874  12.584  1.00  0.00    -0.371 OA
HETATM   14  H   UNL     1      41.530 -11.561  12.378  1.00  0.00     0.212 HD
ENDBRANCH   5  13
BRANCH   5  15
HETATM   15  C   UNL     1      42.113  -9.350  10.675  1.00  0.00     0.018 A 
HETATM   16  C   UNL     1      43.451  -9.383  10.124  1.00  0.00     0.002 A 
HETATM   17  C   UNL     1      43.374  -8.956   8.795  1.00  0.00     0.043 A 
HETATM   18  C   UNL     1      44.729  -9.735  10.618  1.00  0.00     0.014 A 
HETATM   19  C   UNL     1      44.486  -8.873   7.948  1.00  0.00     0.030 A 
HETATM   20  N   UNL     1      42.060  -8.660   8.538  1.00  0.00    -0.365 N 
HETATM   21  C   UNL     1      45.729  -9.243   8.464  1.00  0.00     0.002 A 
HETATM   22  C   UNL     1      45.851  -9.669   9.780  1.00  0.00     0.001 A 
HETATM   23  H   UNL     1      41.713  -8.314   7.653  1.00  0.00     0.165 HD
HETATM   24  C   UNL     1      41.298  -8.894   9.645  1.00  0.00     0.100 A 
ENDBRANCH   5  15
TORSDOF 2
ENDMDL
