MODEL 1
REMARK VINA RESULT:      -9.4      0.000      0.000
REMARK  5 active torsions:
REMARK  status: ('A' for Active; 'I' for Inactive)
REMARK    1  A    between atoms: C_7  and  C_8 
REMARK    2  A    between atoms: C_16  and  C_17 
REMARK    3  A    between atoms: C_20  and  O_21 
REMARK    4  A    between atoms: C_24  and  C_25 
REMARK       I    between atoms: C_25  and  N_26 
REMARK    5  A    between atoms: N_26  and  C_27 
ROOT
HETATM    1  C   UNL     1      38.647 -12.745  -1.114  1.00  0.00     0.070 C 
HETATM    2  C   UNL     1      39.648 -12.983  -0.011  1.00  0.00     0.037 C 
HETATM    3  N   UNL     1      39.664 -14.264   0.533  1.00  0.00    -0.192 N 
HETATM    4  C   UNL     1      40.632 -14.689   1.369  1.00  0.00     0.726 A 
HETATM    5  N   UNL     1      41.517 -13.784   1.884  1.00  0.00    -0.083 N 
HETATM    6  N   UNL     1      42.528 -14.398   2.530  1.00  0.00    -0.135 NA
HETATM    7  C   UNL     1      42.139 -15.686   2.464  1.00  0.00     0.199 A 
HETATM    8  N   UNL     1      40.965 -15.889   1.758  1.00  0.00    -0.041 NA
HETATM    9  C   UNL     1      41.493 -12.350   1.574  1.00  0.00     0.202 C 
HETATM   10  C   UNL     1      40.528 -12.054   0.436  1.00  0.00     0.062 C 
HETATM   11  H   UNL     1      39.052 -14.957   0.109  1.00  0.00     0.184 HD
ENDROOT
BRANCH  10  12
HETATM   12  C   UNL     1      40.556 -10.685  -0.146  1.00  0.00     0.256 C 
HETATM   13  N   UNL     1      41.531 -10.540  -1.110  1.00  0.00    -0.323 N 
HETATM   14  H   UNL     1      42.115 -11.337  -1.322  1.00  0.00     0.169 HD
HETATM   15  O   UNL     1      39.747  -9.850   0.233  1.00  0.00    -0.267 OA
BRANCH  13  16
HETATM   16  C   UNL     1      41.791  -9.393  -1.893  1.00  0.00     0.035 A 
HETATM   17  C   UNL     1      41.160  -9.115  -3.105  1.00  0.00     0.029 A 
HETATM   18  C   UNL     1      41.497  -7.967  -3.831  1.00  0.00     0.002 A 
HETATM   19  C   UNL     1      42.457  -7.084  -3.344  1.00  0.00     0.000 A 
HETATM   20  C   UNL     1      43.087  -7.348  -2.132  1.00  0.00     0.002 A 
HETATM   21  C   UNL     1      42.761  -8.501  -1.412  1.00  0.00     0.029 A 
ENDBRANCH  13  16
ENDBRANCH  10  12
BRANCH   9  22
HETATM   22  C   UNL     1      41.199 -11.539   2.831  1.00  0.00    -0.028 A 
HETATM   23  C   UNL     1      42.205 -10.739   3.401  1.00  0.00     0.012 A 
HETATM   24  C   UNL     1      41.951  -9.979   4.546  1.00  0.00     0.037 A 
HETATM   25  C   UNL     1      40.689 -10.018   5.128  1.00  0.00     0.065 A 
HETATM   26  C   UNL     1      39.679 -10.801   4.584  1.00  0.00     0.037 A 
HETATM   27  C   UNL     1      39.931 -11.560   3.439  1.00  0.00     0.012 A 
BRANCH  25  28
HETATM   28  O   UNL     1      40.398  -9.292   6.245  1.00  0.00    -0.361 OA
HETATM   29  H   UNL     1      41.219  -8.899   6.582  1.00  0.00     0.217 HD
ENDBRANCH  25  28
ENDBRANCH   9  22
BRANCH   7  30
HETATM   30  C   UNL     1      42.911 -16.798   3.013  1.00  0.00     0.016 A 
HETATM   31  C   UNL     1      43.057 -17.995   2.298  1.00  0.00     0.039 A 
HETATM   32  C   UNL     1      43.772 -19.058   2.851  1.00  0.00     0.035 A 
HETATM   33 CL   UNL     1      43.933 -20.528   1.968  1.00  0.00    -0.084 Cl
HETATM   34  C   UNL     1      44.351 -18.945   4.113  1.00  0.00     0.024 A 
HETATM   35  C   UNL     1      44.217 -17.758   4.831  1.00  0.00     0.003 A 
HETATM   36  C   UNL     1      43.500 -16.691   4.283  1.00  0.00     0.015 A 
ENDBRANCH   7  30
TORSDOF 5
ENDMDL
MODEL 2
REMARK VINA RESULT:      -8.8      3.269      4.080
REMARK  5 active torsions:
REMARK  status: ('A' for Active; 'I' for Inactive)
REMARK    1  A    between atoms: C_7  and  C_8 
REMARK    2  A    between atoms: C_16  and  C_17 
REMARK    3  A    between atoms: C_20  and  O_21 
REMARK    4  A    between atoms: C_24  and  C_25 
REMARK       I    between atoms: C_25  and  N_26 
REMARK    5  A    between atoms: N_26  and  C_27 
ROOT
HETATM    1  C   UNL     1      38.864 -12.191   2.731  1.00  0.00     0.070 C 
HETATM    2  C   UNL     1      40.128 -12.947   3.054  1.00  0.00     0.037 C 
HETATM    3  N   UNL     1      39.975 -14.303   3.330  1.00  0.00    -0.192 N 
HETATM    4  C   UNL     1      41.019 -15.149   3.428  1.00  0.00     0.726 A 
HETATM    5  N   UNL     1      42.288 -14.645   3.478  1.00  0.00    -0.083 N 
HETATM    6  N   UNL     1      43.210 -15.622   3.371  1.00  0.00    -0.135 NA
HETATM    7  C   UNL     1      42.431 -16.721   3.368  1.00  0.00     0.199 A 
HETATM    8  N   UNL     1      41.073 -16.453   3.410  1.00  0.00    -0.041 NA
HETATM    9  C   UNL     1      42.600 -13.212   3.419  1.00  0.00     0.202 C 
HETATM   10  C   UNL     1      41.368 -12.399   3.054  1.00  0.00     0.062 C 
HETATM   11  H   UNL     1      39.042 -14.695   3.230  1.00  0.00     0.184 HD
ENDROOT
BRANCH  10  12
HETATM   12  C   UNL     1      41.567 -10.960   2.734  1.00  0.00     0.256 C 
HETATM   13  N   UNL     1      40.926 -10.127   3.627  1.00  0.00    -0.323 N 
HETATM   14  H   UNL     1      40.400 -10.549   4.381  1.00  0.00     0.169 HD
HETATM   15  O   UNL     1      42.260 -10.642   1.778  1.00  0.00    -0.267 OA
BRANCH  13  16
HETATM   16  C   UNL     1      40.953  -8.715   3.645  1.00  0.00     0.035 A 
HETATM   17  C   UNL     1      41.544  -7.958   4.656  1.00  0.00     0.029 A 
HETATM   18  C   UNL     1      41.502  -6.560   4.609  1.00  0.00     0.002 A 
HETATM   19  C   UNL     1      40.881  -5.910   3.546  1.00  0.00     0.000 A 
HETATM   20  C   UNL     1      40.295  -6.656   2.528  1.00  0.00     0.002 A 
HETATM   21  C   UNL     1      40.325  -8.053   2.580  1.00  0.00     0.029 A 
ENDBRANCH  13  16
ENDBRANCH  10  12
BRANCH   9  22
HETATM   22  C   UNL     1      43.252 -12.756   4.720  1.00  0.00    -0.028 A 
HETATM   23  C   UNL     1      44.159 -11.682   4.711  1.00  0.00     0.012 A 
HETATM   24  C   UNL     1      44.756 -11.242   5.896  1.00  0.00     0.037 A 
HETATM   25  C   UNL     1      44.450 -11.877   7.094  1.00  0.00     0.065 A 
HETATM   26  C   UNL     1      43.559 -12.941   7.128  1.00  0.00     0.037 A 
HETATM   27  C   UNL     1      42.959 -13.380   5.946  1.00  0.00     0.012 A 
BRANCH  25  28
HETATM   28  O   UNL     1      45.010 -11.480   8.273  1.00  0.00    -0.361 OA
HETATM   29  H   UNL     1      45.544 -12.210   8.624  1.00  0.00     0.217 HD
ENDBRANCH  25  28
ENDBRANCH   9  22
BRANCH   7  30
HETATM   30  C   UNL     1      42.946 -18.082   3.251  1.00  0.00     0.016 A 
HETATM   31  C   UNL     1      43.481 -18.747   4.364  1.00  0.00     0.039 A 
HETATM   32  C   UNL     1      43.997 -20.037   4.228  1.00  0.00     0.035 A 
HETATM   33 CL   UNL     1      44.662 -20.838   5.599  1.00  0.00    -0.084 Cl
HETATM   34  C   UNL     1      43.984 -20.680   2.992  1.00  0.00     0.024 A 
HETATM   35  C   UNL     1      43.450 -20.031   1.880  1.00  0.00     0.003 A 
HETATM   36  C   UNL     1      42.934 -18.739   2.010  1.00  0.00     0.015 A 
ENDBRANCH   7  30
TORSDOF 5
ENDMDL
MODEL 3
REMARK VINA RESULT:      -8.7      3.950      7.795
REMARK  5 active torsions:
REMARK  status: ('A' for Active; 'I' for Inactive)
REMARK    1  A    between atoms: C_7  and  C_8 
REMARK    2  A    between atoms: C_16  and  C_17 
REMARK    3  A    between atoms: C_20  and  O_21 
REMARK    4  A    between atoms: C_24  and  C_25 
REMARK       I    between atoms: C_25  and  N_26 
REMARK    5  A    between atoms: N_26  and  C_27 
ROOT
HETATM    1  C   UNL     1      39.754 -11.949   6.514  1.00  0.00     0.070 C 
HETATM    2  C   UNL     1      40.249 -12.584   5.238  1.00  0.00     0.037 C 
HETATM    3  N   UNL     1      39.292 -12.792   4.249  1.00  0.00    -0.192 N 
HETATM    4  C   UNL     1      39.611 -13.151   2.990  1.00  0.00     0.726 A 
HETATM    5  N   UNL     1      40.891 -13.539   2.708  1.00  0.00    -0.083 N 
HETATM    6  N   UNL     1      41.084 -13.666   1.380  1.00  0.00    -0.135 NA
HETATM    7  C   UNL     1      39.842 -13.444   0.910  1.00  0.00     0.199 A 
HETATM    8  N   UNL     1      38.913 -13.131   1.888  1.00  0.00    -0.041 NA
HETATM    9  C   UNL     1      41.969 -13.582   3.702  1.00  0.00     0.202 C 
HETATM   10  C   UNL     1      41.542 -12.916   5.000  1.00  0.00     0.062 C 
HETATM   11  H   UNL     1      38.353 -12.447   4.430  1.00  0.00     0.184 HD
ENDROOT
BRANCH  10  12
HETATM   12  C   UNL     1      42.592 -12.678   6.026  1.00  0.00     0.256 C 
HETATM   13  N   UNL     1      43.195 -11.445   5.890  1.00  0.00    -0.323 N 
HETATM   14  H   UNL     1      42.886 -10.843   5.138  1.00  0.00     0.169 HD
HETATM   15  O   UNL     1      42.814 -13.530   6.876  1.00  0.00    -0.267 OA
BRANCH  13  16
HETATM   16  C   UNL     1      44.187 -10.885   6.724  1.00  0.00     0.035 A 
HETATM   17  C   UNL     1      45.539 -11.225   6.667  1.00  0.00     0.029 A 
HETATM   18  C   UNL     1      46.454 -10.641   7.550  1.00  0.00     0.002 A 
HETATM   19  C   UNL     1      46.027  -9.703   8.486  1.00  0.00     0.000 A 
HETATM   20  C   UNL     1      44.682  -9.350   8.547  1.00  0.00     0.002 A 
HETATM   21  C   UNL     1      43.765  -9.944   7.674  1.00  0.00     0.029 A 
ENDBRANCH  13  16
ENDBRANCH  10  12
BRANCH   9  22
HETATM   22  C   UNL     1      42.455 -15.014   3.898  1.00  0.00    -0.028 A 
HETATM   23  C   UNL     1      43.356 -15.581   2.979  1.00  0.00     0.012 A 
HETATM   24  C   UNL     1      43.821 -16.888   3.148  1.00  0.00     0.037 A 
HETATM   25  C   UNL     1      43.386 -17.634   4.238  1.00  0.00     0.065 A 
HETATM   26  C   UNL     1      42.495 -17.096   5.158  1.00  0.00     0.037 A 
HETATM   27  C   UNL     1      42.031 -15.790   4.991  1.00  0.00     0.012 A 
BRANCH  25  28
HETATM   28  O   UNL     1      43.815 -18.912   4.442  1.00  0.00    -0.361 OA
HETATM   29  H   UNL     1      43.168 -19.523   4.052  1.00  0.00     0.217 HD
ENDBRANCH  25  28
ENDBRANCH   9  22
BRANCH   7  30
HETATM   30  C   UNL     1      39.496 -13.450  -0.509  1.00  0.00     0.016 A 
HETATM   31  C   UNL     1      39.206 -12.255  -1.184  1.00  0.00     0.039 A 
HETATM   32  C   UNL     1      38.847 -12.281  -2.532  1.00  0.00     0.035 A 
HETATM   33 CL   UNL     1      38.479 -10.809  -3.345  1.00  0.00    -0.084 Cl
HETATM   34  C   UNL     1      38.777 -13.488  -3.225  1.00  0.00     0.024 A 
HETATM   35  C   UNL     1      39.070 -14.681  -2.566  1.00  0.00     0.003 A 
HETATM   36  C   UNL     1      39.427 -14.660  -1.216  1.00  0.00     0.015 A 
ENDBRANCH   7  30
TORSDOF 5
ENDMDL
MODEL 4
REMARK VINA RESULT:      -8.6      3.386      8.915
REMARK  5 active torsions:
REMARK  status: ('A' for Active; 'I' for Inactive)
REMARK    1  A    between atoms: C_7  and  C_8 
REMARK    2  A    between atoms: C_16  and  C_17 
REMARK    3  A    between atoms: C_20  and  O_21 
REMARK    4  A    between atoms: C_24  and  C_25 
REMARK       I    between atoms: C_25  and  N_26 
REMARK    5  A    between atoms: N_26  and  C_27 
ROOT
HETATM    1  C   UNL     1      39.885 -12.181   4.033  1.00  0.00     0.070 C 
HETATM    2  C   UNL     1      40.269 -11.806   2.624  1.00  0.00     0.037 C 
HETATM    3  N   UNL     1      40.164 -10.456   2.301  1.00  0.00    -0.192 N 
HETATM    4  C   UNL     1      40.664  -9.938   1.162  1.00  0.00     0.726 A 
HETATM    5  N   UNL     1      41.102 -10.780   0.178  1.00  0.00    -0.083 N 
HETATM    6  N   UNL     1      41.749 -10.106  -0.793  1.00  0.00    -0.135 NA
HETATM    7  C   UNL     1      41.577  -8.833  -0.391  1.00  0.00     0.199 A 
HETATM    8  N   UNL     1      40.902  -8.704   0.811  1.00  0.00    -0.041 NA
HETATM    9  C   UNL     1      41.074 -12.243   0.283  1.00  0.00     0.202 C 
HETATM   10  C   UNL     1      40.732 -12.683   1.699  1.00  0.00     0.062 C 
HETATM   11  H   UNL     1      39.901  -9.819   3.048  1.00  0.00     0.184 HD
ENDROOT
BRANCH  10  12
HETATM   12  C   UNL     1      40.883 -14.126   2.023  1.00  0.00     0.256 C 
HETATM   13  N   UNL     1      42.180 -14.461   2.353  1.00  0.00    -0.323 N 
HETATM   14  H   UNL     1      42.879 -13.731   2.341  1.00  0.00     0.169 HD
HETATM   15  O   UNL     1      39.904 -14.859   1.998  1.00  0.00    -0.267 OA
BRANCH  13  16
HETATM   16  C   UNL     1      42.656 -15.726   2.761  1.00  0.00     0.035 A 
HETATM   17  C   UNL     1      42.842 -16.806   1.898  1.00  0.00     0.029 A 
HETATM   18  C   UNL     1      43.293 -18.036   2.390  1.00  0.00     0.002 A 
HETATM   19  C   UNL     1      43.574 -18.191   3.745  1.00  0.00     0.000 A 
HETATM   20  C   UNL     1      43.400 -17.117   4.613  1.00  0.00     0.002 A 
HETATM   21  C   UNL     1      42.936 -15.892   4.125  1.00  0.00     0.029 A 
ENDBRANCH  13  16
ENDBRANCH  10  12
BRANCH   9  22
HETATM   22  C   UNL     1      40.139 -12.834  -0.766  1.00  0.00    -0.028 A 
HETATM   23  C   UNL     1      38.812 -12.377  -0.861  1.00  0.00     0.012 A 
HETATM   24  C   UNL     1      37.944 -12.898  -1.825  1.00  0.00     0.037 A 
HETATM   25  C   UNL     1      38.399 -13.880  -2.697  1.00  0.00     0.065 A 
HETATM   26  C   UNL     1      39.705 -14.349  -2.622  1.00  0.00     0.037 A 
HETATM   27  C   UNL     1      40.574 -13.828  -1.661  1.00  0.00     0.012 A 
BRANCH  25  28
HETATM   28  O   UNL     1      37.587 -14.416  -3.652  1.00  0.00    -0.361 OA
HETATM   29  H   UNL     1      37.308 -15.300  -3.363  1.00  0.00     0.217 HD
ENDBRANCH  25  28
ENDBRANCH   9  22
BRANCH   7  30
HETATM   30  C   UNL     1      42.113  -7.675  -1.103  1.00  0.00     0.016 A 
HETATM   31  C   UNL     1      42.353  -7.728  -2.483  1.00  0.00     0.039 A 
HETATM   32  C   UNL     1      42.895  -6.624  -3.142  1.00  0.00     0.035 A 
HETATM   33 CL   UNL     1      43.199  -6.705  -4.835  1.00  0.00    -0.084 Cl
HETATM   34  C   UNL     1      43.200  -5.458  -2.442  1.00  0.00     0.024 A 
HETATM   35  C   UNL     1      42.959  -5.392  -1.071  1.00  0.00     0.003 A 
HETATM   36  C   UNL     1      42.419  -6.496  -0.406  1.00  0.00     0.015 A 
ENDBRANCH   7  30
TORSDOF 5
ENDMDL
MODEL 5
REMARK VINA RESULT:      -8.5      4.542      8.533
REMARK  5 active torsions:
REMARK  status: ('A' for Active; 'I' for Inactive)
REMARK    1  A    between atoms: C_7  and  C_8 
REMARK    2  A    between atoms: C_16  and  C_17 
REMARK    3  A    between atoms: C_20  and  O_21 
REMARK    4  A    between atoms: C_24  and  C_25 
REMARK       I    between atoms: C_25  and  N_26 
REMARK    5  A    between atoms: N_26  and  C_27 
ROOT
HETATM    1  C   UNL     1      45.693  -9.935   7.898  1.00  0.00     0.070 C 
HETATM    2  C   UNL     1      44.433 -10.405   7.215  1.00  0.00     0.037 C 
HETATM    3  N   UNL     1      44.609 -11.236   6.112  1.00  0.00    -0.192 N 
HETATM    4  C   UNL     1      43.593 -11.902   5.531  1.00  0.00     0.726 A 
HETATM    5  N   UNL     1      42.306 -11.598   5.880  1.00  0.00    -0.083 N 
HETATM    6  N   UNL     1      41.434 -12.486   5.362  1.00  0.00    -0.135 NA
HETATM    7  C   UNL     1      42.250 -13.249   4.610  1.00  0.00     0.199 A 
HETATM    8  N   UNL     1      43.588 -12.902   4.693  1.00  0.00    -0.041 NA
HETATM    9  C   UNL     1      41.949 -10.583   6.877  1.00  0.00     0.202 C 
HETATM   10  C   UNL     1      43.178 -10.100   7.630  1.00  0.00     0.062 C 
HETATM   11  H   UNL     1      45.561 -11.516   5.889  1.00  0.00     0.184 HD
ENDROOT
BRANCH  10  12
HETATM   12  C   UNL     1      42.957  -9.238   8.822  1.00  0.00     0.256 C 
HETATM   13  N   UNL     1      42.819  -9.968   9.984  1.00  0.00    -0.323 N 
HETATM   14  H   UNL     1      42.873 -10.976   9.923  1.00  0.00     0.169 HD
HETATM   15  O   UNL     1      42.939  -8.022   8.696  1.00  0.00    -0.267 OA
BRANCH  13  16
HETATM   16  C   UNL     1      42.650  -9.464  11.292  1.00  0.00     0.035 A 
HETATM   17  C   UNL     1      43.522  -8.560  11.899  1.00  0.00     0.029 A 
HETATM   18  C   UNL     1      43.295  -8.131  13.211  1.00  0.00     0.002 A 
HETATM   19  C   UNL     1      42.188  -8.591  13.920  1.00  0.00     0.000 A 
HETATM   20  C   UNL     1      41.308  -9.487  13.321  1.00  0.00     0.002 A 
HETATM   21  C   UNL     1      41.541  -9.927  12.015  1.00  0.00     0.029 A 
ENDBRANCH  13  16
ENDBRANCH  10  12
BRANCH   9  22
HETATM   22  C   UNL     1      41.166  -9.449   6.223  1.00  0.00    -0.028 A 
HETATM   23  C   UNL     1      39.883  -9.119   6.695  1.00  0.00     0.012 A 
HETATM   24  C   UNL     1      39.156  -8.075   6.116  1.00  0.00     0.037 A 
HETATM   25  C   UNL     1      39.708  -7.358   5.061  1.00  0.00     0.065 A 
HETATM   26  C   UNL     1      40.973  -7.666   4.577  1.00  0.00     0.037 A 
HETATM   27  C   UNL     1      41.702  -8.708   5.155  1.00  0.00     0.012 A 
BRANCH  25  28
HETATM   28  O   UNL     1      39.033  -6.332   4.468  1.00  0.00    -0.361 OA
HETATM   29  H   UNL     1      39.558  -5.520   4.563  1.00  0.00     0.217 HD
ENDBRANCH  25  28
ENDBRANCH   9  22
BRANCH   7  30
HETATM   30  C   UNL     1      41.798 -14.398   3.829  1.00  0.00     0.016 A 
HETATM   31  C   UNL     1      42.634 -15.507   3.631  1.00  0.00     0.039 A 
HETATM   32  C   UNL     1      42.197 -16.582   2.856  1.00  0.00     0.035 A 
HETATM   33 CL   UNL     1      43.237 -17.931   2.608  1.00  0.00    -0.084 Cl
HETATM   34  C   UNL     1      40.931 -16.572   2.276  1.00  0.00     0.024 A 
HETATM   35  C   UNL     1      40.089 -15.479   2.472  1.00  0.00     0.003 A 
HETATM   36  C   UNL     1      40.522 -14.398   3.244  1.00  0.00     0.015 A 
ENDBRANCH   7  30
TORSDOF 5
ENDMDL
MODEL 6
REMARK VINA RESULT:      -8.4      1.638      2.061
REMARK  5 active torsions:
REMARK  status: ('A' for Active; 'I' for Inactive)
REMARK    1  A    between atoms: C_7  and  C_8 
REMARK    2  A    between atoms: C_16  and  C_17 
REMARK    3  A    between atoms: C_20  and  O_21 
REMARK    4  A    between atoms: C_24  and  C_25 
REMARK       I    between atoms: C_25  and  N_26 
REMARK    5  A    between atoms: N_26  and  C_27 
ROOT
HETATM    1  C   UNL     1      38.634 -13.230  -1.551  1.00  0.00     0.070 C 
HETATM    2  C   UNL     1      39.621 -13.380  -0.421  1.00  0.00     0.037 C 
HETATM    3  N   UNL     1      39.642 -14.621   0.210  1.00  0.00    -0.192 N 
HETATM    4  C   UNL     1      40.602 -14.977   1.086  1.00  0.00     0.726 A 
HETATM    5  N   UNL     1      41.470 -14.029   1.551  1.00  0.00    -0.083 N 
HETATM    6  N   UNL     1      42.477 -14.587   2.252  1.00  0.00    -0.135 NA
HETATM    7  C   UNL     1      42.103 -15.880   2.269  1.00  0.00     0.199 A 
HETATM    8  N   UNL     1      40.942 -16.144   1.562  1.00  0.00    -0.041 NA
HETATM    9  C   UNL     1      41.436 -12.620   1.143  1.00  0.00     0.202 C 
HETATM   10  C   UNL     1      40.485 -12.413  -0.026  1.00  0.00     0.062 C 
HETATM   11  H   UNL     1      39.044 -15.348  -0.174  1.00  0.00     0.184 HD
ENDROOT
BRANCH  10  12
HETATM   12  C   UNL     1      40.507 -11.087  -0.700  1.00  0.00     0.256 C 
HETATM   13  N   UNL     1      39.544 -10.230  -0.212  1.00  0.00    -0.323 N 
HETATM   14  H   UNL     1      38.934 -10.565   0.522  1.00  0.00     0.169 HD
HETATM   15  O   UNL     1      41.341 -10.861  -1.566  1.00  0.00    -0.267 OA
BRANCH  13  16
HETATM   16  C   UNL     1      39.326  -8.887  -0.592  1.00  0.00     0.035 A 
HETATM   17  C   UNL     1      40.001  -7.800  -0.039  1.00  0.00     0.029 A 
HETATM   18  C   UNL     1      39.706  -6.497  -0.455  1.00  0.00     0.002 A 
HETATM   19  C   UNL     1      38.743  -6.273  -1.436  1.00  0.00     0.000 A 
HETATM   20  C   UNL     1      38.070  -7.352  -2.001  1.00  0.00     0.002 A 
HETATM   21  C   UNL     1      38.355  -8.653  -1.576  1.00  0.00     0.029 A 
ENDBRANCH  13  16
ENDBRANCH  10  12
BRANCH   9  22
HETATM   22  C   UNL     1      41.115 -11.728   2.337  1.00  0.00    -0.028 A 
HETATM   23  C   UNL     1      39.899 -11.887   3.025  1.00  0.00     0.012 A 
HETATM   24  C   UNL     1      39.593 -11.087   4.130  1.00  0.00     0.037 A 
HETATM   25  C   UNL     1      40.502 -10.122   4.549  1.00  0.00     0.065 A 
HETATM   26  C   UNL     1      41.708  -9.945   3.885  1.00  0.00     0.037 A 
HETATM   27  C   UNL     1      42.017 -10.745   2.783  1.00  0.00     0.012 A 
BRANCH  25  28
HETATM   28  O   UNL     1      40.243  -9.321   5.622  1.00  0.00    -0.361 OA
HETATM   29  H   UNL     1      41.027  -9.307   6.195  1.00  0.00     0.217 HD
ENDBRANCH  25  28
ENDBRANCH   9  22
BRANCH   7  30
HETATM   30  C   UNL     1      42.878 -16.943   2.904  1.00  0.00     0.016 A 
HETATM   31  C   UNL     1      43.040 -18.187   2.278  1.00  0.00     0.039 A 
HETATM   32  C   UNL     1      43.757 -19.202   2.912  1.00  0.00     0.035 A 
HETATM   33 CL   UNL     1      43.937 -20.730   2.140  1.00  0.00    -0.084 Cl
HETATM   34  C   UNL     1      44.323 -18.993   4.168  1.00  0.00     0.024 A 
HETATM   35  C   UNL     1      44.174 -17.758   4.797  1.00  0.00     0.003 A 
HETATM   36  C   UNL     1      43.455 -16.740   4.167  1.00  0.00     0.015 A 
ENDBRANCH   7  30
TORSDOF 5
ENDMDL
MODEL 7
REMARK VINA RESULT:      -8.3      4.587      8.619
REMARK  5 active torsions:
REMARK  status: ('A' for Active; 'I' for Inactive)
REMARK    1  A    between atoms: C_7  and  C_8 
REMARK    2  A    between atoms: C_16  and  C_17 
REMARK    3  A    between atoms: C_20  and  O_21 
REMARK    4  A    between atoms: C_24  and  C_25 
REMARK       I    between atoms: C_25  and  N_26 
REMARK    5  A    between atoms: N_26  and  C_27 
ROOT
HETATM    1  C   UNL     1      40.056 -15.079   0.661  1.00  0.00     0.070 C 
HETATM    2  C   UNL     1      40.047 -13.924   1.631  1.00  0.00     0.037 C 
HETATM    3  N   UNL     1      39.570 -12.714   1.136  1.00  0.00    -0.192 N 
HETATM    4  C   UNL     1      39.305 -11.656   1.927  1.00  0.00     0.726 A 
HETATM    5  N   UNL     1      39.715 -11.676   3.231  1.00  0.00    -0.083 N 
HETATM    6  N   UNL     1      39.197 -10.641   3.924  1.00  0.00    -0.135 NA
HETATM    7  C   UNL     1      38.562  -9.962   2.950  1.00  0.00     0.199 A 
HETATM    8  N   UNL     1      38.622 -10.566   1.705  1.00  0.00    -0.041 NA
HETATM    9  C   UNL     1      40.429 -12.800   3.846  1.00  0.00     0.202 C 
HETATM   10  C   UNL     1      40.433 -14.012   2.928  1.00  0.00     0.062 C 
HETATM   11  H   UNL     1      39.205 -12.712   0.187  1.00  0.00     0.184 HD
ENDROOT
BRANCH  10  12
HETATM   12  C   UNL     1      40.920 -15.298   3.494  1.00  0.00     0.256 C 
HETATM   13  N   UNL     1      42.191 -15.618   3.066  1.00  0.00    -0.323 N 
HETATM   14  H   UNL     1      42.655 -14.982   2.431  1.00  0.00     0.169 HD
HETATM   15  O   UNL     1      40.211 -15.926   4.268  1.00  0.00    -0.267 OA
BRANCH  13  16
HETATM   16  C   UNL     1      42.964 -16.735   3.451  1.00  0.00     0.035 A 
HETATM   17  C   UNL     1      43.639 -16.837   4.667  1.00  0.00     0.029 A 
HETATM   18  C   UNL     1      44.406 -17.970   4.959  1.00  0.00     0.002 A 
HETATM   19  C   UNL     1      44.493 -19.015   4.043  1.00  0.00     0.000 A 
HETATM   20  C   UNL     1      43.817 -18.927   2.829  1.00  0.00     0.002 A 
HETATM   21  C   UNL     1      43.062 -17.790   2.531  1.00  0.00     0.029 A 
ENDBRANCH  13  16
ENDBRANCH  10  12
BRANCH   9  22
HETATM   22  C   UNL     1      41.828 -12.370   4.274  1.00  0.00    -0.028 A 
HETATM   23  C   UNL     1      42.784 -12.025   3.301  1.00  0.00     0.012 A 
HETATM   24  C   UNL     1      44.068 -11.618   3.675  1.00  0.00     0.037 A 
HETATM   25  C   UNL     1      44.402 -11.556   5.023  1.00  0.00     0.065 A 
HETATM   26  C   UNL     1      43.476 -11.893   6.001  1.00  0.00     0.037 A 
HETATM   27  C   UNL     1      42.192 -12.299   5.630  1.00  0.00     0.012 A 
BRANCH  25  28
HETATM   28  O   UNL     1      45.642 -11.164   5.431  1.00  0.00    -0.361 OA
HETATM   29  H   UNL     1      45.562 -10.729   6.295  1.00  0.00     0.217 HD
ENDBRANCH  25  28
ENDBRANCH   9  22
BRANCH   7  30
HETATM   30  C   UNL     1      37.804  -8.735   3.176  1.00  0.00     0.016 A 
HETATM   31  C   UNL     1      37.729  -8.160   4.453  1.00  0.00     0.039 A 
HETATM   32  C   UNL     1      36.974  -7.005   4.657  1.00  0.00     0.035 A 
HETATM   33 CL   UNL     1      36.878  -6.316   6.232  1.00  0.00    -0.084 Cl
HETATM   34  C   UNL     1      36.292  -6.405   3.600  1.00  0.00     0.024 A 
HETATM   35  C   UNL     1      36.365  -6.964   2.325  1.00  0.00     0.003 A 
HETATM   36  C   UNL     1      37.117  -8.122   2.116  1.00  0.00     0.015 A 
ENDBRANCH   7  30
TORSDOF 5
ENDMDL
MODEL 8
REMARK VINA RESULT:      -8.3      2.329      2.684
REMARK  5 active torsions:
REMARK  status: ('A' for Active; 'I' for Inactive)
REMARK    1  A    between atoms: C_7  and  C_8 
REMARK    2  A    between atoms: C_16  and  C_17 
REMARK    3  A    between atoms: C_20  and  O_21 
REMARK    4  A    between atoms: C_24  and  C_25 
REMARK       I    between atoms: C_25  and  N_26 
REMARK    5  A    between atoms: N_26  and  C_27 
ROOT
HETATM    1  C   UNL     1      38.902 -12.239  -0.380  1.00  0.00     0.070 C 
HETATM    2  C   UNL     1      39.774 -12.716   0.754  1.00  0.00     0.037 C 
HETATM    3  N   UNL     1      39.770 -14.087   0.993  1.00  0.00    -0.192 N 
HETATM    4  C   UNL     1      40.647 -14.685   1.822  1.00  0.00     0.726 A 
HETATM    5  N   UNL     1      41.435 -13.916   2.632  1.00  0.00    -0.083 N 
HETATM    6  N   UNL     1      42.384 -14.656   3.241  1.00  0.00    -0.135 NA
HETATM    7  C   UNL     1      42.050 -15.897   2.839  1.00  0.00     0.199 A 
HETATM    8  N   UNL     1      40.974 -15.941   1.968  1.00  0.00    -0.041 NA
HETATM    9  C   UNL     1      41.399 -12.450   2.654  1.00  0.00     0.202 C 
HETATM   10  C   UNL     1      40.565 -11.908   1.503  1.00  0.00     0.062 C 
HETATM   11  H   UNL     1      39.237 -14.669   0.352  1.00  0.00     0.184 HD
ENDROOT
BRANCH  10  12
HETATM   12  C   UNL     1      40.613 -10.442   1.253  1.00  0.00     0.256 C 
HETATM   13  N   UNL     1      39.629  -9.757   1.934  1.00  0.00    -0.323 N 
HETATM   14  H   UNL     1      38.990 -10.287   2.511  1.00  0.00     0.169 HD
HETATM   15  O   UNL     1      41.482  -9.980   0.527  1.00  0.00    -0.267 OA
BRANCH  13  16
HETATM   16  C   UNL     1      39.427  -8.359   1.960  1.00  0.00     0.035 A 
HETATM   17  C   UNL     1      38.754  -7.649   0.966  1.00  0.00     0.029 A 
HETATM   18  C   UNL     1      38.621  -6.259   1.057  1.00  0.00     0.002 A 
HETATM   19  C   UNL     1      39.146  -5.572   2.148  1.00  0.00     0.000 A 
HETATM   20  C   UNL     1      39.812  -6.272   3.149  1.00  0.00     0.002 A 
HETATM   21  C   UNL     1      39.957  -7.659   3.053  1.00  0.00     0.029 A 
ENDBRANCH  13  16
ENDBRANCH  10  12
BRANCH   9  22
HETATM   22  C   UNL     1      40.932 -11.949   4.016  1.00  0.00    -0.028 A 
HETATM   23  C   UNL     1      41.720 -11.032   4.734  1.00  0.00     0.012 A 
HETATM   24  C   UNL     1      41.303 -10.553   5.979  1.00  0.00     0.037 A 
HETATM   25  C   UNL     1      40.097 -10.991   6.512  1.00  0.00     0.065 A 
HETATM   26  C   UNL     1      39.301 -11.897   5.823  1.00  0.00     0.037 A 
HETATM   27  C   UNL     1      39.715 -12.375   4.578  1.00  0.00     0.012 A 
BRANCH  25  28
HETATM   28  O   UNL     1      39.652 -10.548   7.723  1.00  0.00    -0.361 OA
HETATM   29  H   UNL     1      39.862 -11.218   8.394  1.00  0.00     0.217 HD
ENDBRANCH  25  28
ENDBRANCH   9  22
BRANCH   7  30
HETATM   30  C   UNL     1      42.789 -17.100   3.213  1.00  0.00     0.016 A 
HETATM   31  C   UNL     1      42.957 -18.153   2.302  1.00  0.00     0.039 A 
HETATM   32  C   UNL     1      43.640 -19.308   2.686  1.00  0.00     0.035 A 
HETATM   33 CL   UNL     1      43.828 -20.600   1.563  1.00  0.00    -0.084 Cl
HETATM   34  C   UNL     1      44.165 -19.429   3.971  1.00  0.00     0.024 A 
HETATM   35  C   UNL     1      44.009 -18.386   4.882  1.00  0.00     0.003 A 
HETATM   36  C   UNL     1      43.324 -17.228   4.504  1.00  0.00     0.015 A 
ENDBRANCH   7  30
TORSDOF 5
ENDMDL
MODEL 9
REMARK VINA RESULT:      -8.1      3.396      4.554
REMARK  5 active torsions:
REMARK  status: ('A' for Active; 'I' for Inactive)
REMARK    1  A    between atoms: C_7  and  C_8 
REMARK    2  A    between atoms: C_16  and  C_17 
REMARK    3  A    between atoms: C_20  and  O_21 
REMARK    4  A    between atoms: C_24  and  C_25 
REMARK       I    between atoms: C_25  and  N_26 
REMARK    5  A    between atoms: N_26  and  C_27 
ROOT
HETATM    1  C   UNL     1      38.710 -12.195   6.182  1.00  0.00     0.070 C 
HETATM    2  C   UNL     1      39.999 -12.793   5.675  1.00  0.00     0.037 C 
HETATM    3  N   UNL     1      40.161 -14.160   5.883  1.00  0.00    -0.192 N 
HETATM    4  C   UNL     1      41.150 -14.872   5.309  1.00  0.00     0.726 A 
HETATM    5  N   UNL     1      42.165 -14.216   4.672  1.00  0.00    -0.083 N 
HETATM    6  N   UNL     1      42.951 -15.073   3.988  1.00  0.00    -0.135 NA
HETATM    7  C   UNL     1      42.418 -16.258   4.341  1.00  0.00     0.199 A 
HETATM    8  N   UNL     1      41.309 -16.160   5.163  1.00  0.00    -0.041 NA
HETATM    9  C   UNL     1      42.249 -12.756   4.557  1.00  0.00     0.202 C 
HETATM   10  C   UNL     1      40.958 -12.097   5.016  1.00  0.00     0.062 C 
HETATM   11  H   UNL     1      39.381 -14.663   6.298  1.00  0.00     0.184 HD
ENDROOT
BRANCH  10  12
HETATM   12  C   UNL     1      40.800 -10.642   4.752  1.00  0.00     0.256 C 
HETATM   13  N   UNL     1      40.127 -10.388   3.575  1.00  0.00    -0.323 N 
HETATM   14  H   UNL     1      39.819 -11.176   3.021  1.00  0.00     0.169 HD
HETATM   15  O   UNL     1      41.231  -9.830   5.558  1.00  0.00    -0.267 OA
BRANCH  13  16
HETATM   16  C   UNL     1      39.764  -9.125   3.057  1.00  0.00     0.035 A 
HETATM   17  C   UNL     1      38.607  -8.435   3.418  1.00  0.00     0.029 A 
HETATM   18  C   UNL     1      38.310  -7.199   2.835  1.00  0.00     0.002 A 
HETATM   19  C   UNL     1      39.173  -6.637   1.898  1.00  0.00     0.000 A 
HETATM   20  C   UNL     1      40.334  -7.313   1.536  1.00  0.00     0.002 A 
HETATM   21  C   UNL     1      40.626  -8.555   2.108  1.00  0.00     0.029 A 
ENDBRANCH  13  16
ENDBRANCH  10  12
BRANCH   9  22
HETATM   22  C   UNL     1      43.479 -12.235   5.293  1.00  0.00    -0.028 A 
HETATM   23  C   UNL     1      44.553 -11.692   4.567  1.00  0.00     0.012 A 
HETATM   24  C   UNL     1      45.683 -11.198   5.224  1.00  0.00     0.037 A 
HETATM   25  C   UNL     1      45.744 -11.247   6.612  1.00  0.00     0.065 A 
HETATM   26  C   UNL     1      44.696 -11.780   7.351  1.00  0.00     0.037 A 
HETATM   27  C   UNL     1      43.566 -12.272   6.696  1.00  0.00     0.012 A 
BRANCH  25  28
HETATM   28  O   UNL     1      46.827 -10.776   7.294  1.00  0.00    -0.361 OA
HETATM   29  H   UNL     1      46.645 -10.838   8.246  1.00  0.00     0.217 HD
ENDBRANCH  25  28
ENDBRANCH   9  22
BRANCH   7  30
HETATM   30  C   UNL     1      42.903 -17.546   3.849  1.00  0.00     0.016 A 
HETATM   31  C   UNL     1      43.495 -18.472   4.720  1.00  0.00     0.039 A 
HETATM   32  C   UNL     1      43.980 -19.684   4.229  1.00  0.00     0.035 A 
HETATM   33 CL   UNL     1      44.718 -20.807   5.305  1.00  0.00    -0.084 Cl
HETATM   34  C   UNL     1      43.879 -19.992   2.874  1.00  0.00     0.024 A 
HETATM   35  C   UNL     1      43.287 -19.082   2.000  1.00  0.00     0.003 A 
HETATM   36  C   UNL     1      42.802 -17.866   2.486  1.00  0.00     0.015 A 
ENDBRANCH   7  30
TORSDOF 5
ENDMDL
MODEL 10
REMARK VINA RESULT:      -7.9      4.011      6.869
REMARK  5 active torsions:
REMARK  status: ('A' for Active; 'I' for Inactive)
REMARK    1  A    between atoms: C_7  and  C_8 
REMARK    2  A    between atoms: C_16  and  C_17 
REMARK    3  A    between atoms: C_20  and  O_21 
REMARK    4  A    between atoms: C_24  and  C_25 
REMARK       I    between atoms: C_25  and  N_26 
REMARK    5  A    between atoms: N_26  and  C_27 
ROOT
HETATM    1  C   UNL     1      40.290  -9.108   0.879  1.00  0.00     0.070 C 
HETATM    2  C   UNL     1      40.575  -9.875   2.146  1.00  0.00     0.037 C 
HETATM    3  N   UNL     1      41.401  -9.242   3.071  1.00  0.00    -0.192 N 
HETATM    4  C   UNL     1      41.575  -9.701   4.325  1.00  0.00     0.726 A 
HETATM    5  N   UNL     1      41.110 -10.942   4.656  1.00  0.00    -0.083 N 
HETATM    6  N   UNL     1      41.187 -11.158   5.985  1.00  0.00    -0.135 NA
HETATM    7  C   UNL     1      41.814 -10.040   6.398  1.00  0.00     0.199 A 
HETATM    8  N   UNL     1      42.072  -9.128   5.388  1.00  0.00    -0.041 NA
HETATM    9  C   UNL     1      40.406 -11.826   3.721  1.00  0.00     0.202 C 
HETATM   10  C   UNL     1      40.054 -11.093   2.436  1.00  0.00     0.062 C 
HETATM   11  H   UNL     1      41.696  -8.293   2.856  1.00  0.00     0.184 HD
ENDROOT
BRANCH  10  12
HETATM   12  C   UNL     1      39.145 -11.782   1.481  1.00  0.00     0.256 C 
HETATM   13  N   UNL     1      39.803 -12.235   0.358  1.00  0.00    -0.323 N 
HETATM   14  H   UNL     1      40.796 -12.063   0.284  1.00  0.00     0.169 HD
HETATM   15  O   UNL     1      37.960 -11.908   1.757  1.00  0.00    -0.267 OA
BRANCH  13  16
HETATM   16  C   UNL     1      39.251 -12.971  -0.714  1.00  0.00     0.035 A 
HETATM   17  C   UNL     1      39.615 -14.279  -1.033  1.00  0.00     0.029 A 
HETATM   18  C   UNL     1      39.038 -14.927  -2.130  1.00  0.00     0.002 A 
HETATM   19  C   UNL     1      38.082 -14.278  -2.907  1.00  0.00     0.000 A 
HETATM   20  C   UNL     1      37.705 -12.975  -2.593  1.00  0.00     0.002 A 
HETATM   21  C   UNL     1      38.292 -12.322  -1.505  1.00  0.00     0.029 A 
ENDBRANCH  13  16
ENDBRANCH  10  12
BRANCH   9  22
HETATM   22  C   UNL     1      41.213 -13.097   3.480  1.00  0.00    -0.028 A 
HETATM   23  C   UNL     1      42.421 -13.035   2.762  1.00  0.00     0.012 A 
HETATM   24  C   UNL     1      43.181 -14.188   2.541  1.00  0.00     0.037 A 
HETATM   25  C   UNL     1      42.735 -15.407   3.037  1.00  0.00     0.065 A 
HETATM   26  C   UNL     1      41.545 -15.494   3.749  1.00  0.00     0.037 A 
HETATM   27  C   UNL     1      40.785 -14.343   3.971  1.00  0.00     0.012 A 
BRANCH  25  28
HETATM   28  O   UNL     1      43.445 -16.555   2.846  1.00  0.00    -0.361 OA
HETATM   29  H   UNL     1      44.348 -16.321   2.576  1.00  0.00     0.217 HD
ENDBRANCH  25  28
ENDBRANCH   9  22
BRANCH   7  30
HETATM   30  C   UNL     1      42.134  -9.756   7.794  1.00  0.00     0.016 A 
HETATM   31  C   UNL     1      43.421  -9.993   8.299  1.00  0.00     0.039 A 
HETATM   32  C   UNL     1      43.702  -9.746   9.643  1.00  0.00     0.035 A 
HETATM   33 CL   UNL     1      45.282 -10.053  10.255  1.00  0.00    -0.084 Cl
HETATM   34  C   UNL     1      42.715  -9.258  10.497  1.00  0.00     0.024 A 
HETATM   35  C   UNL     1      41.434  -9.013  10.005  1.00  0.00     0.003 A 
HETATM   36  C   UNL     1      41.147  -9.262   8.660  1.00  0.00     0.015 A 
ENDBRANCH   7  30
TORSDOF 5
ENDMDL
