MODEL 1
REMARK VINA RESULT:      -8.1      0.000      0.000
REMARK  6 active torsions:
REMARK  status: ('A' for Active; 'I' for Inactive)
REMARK    1  A    between atoms: C_6  and  C_7 
REMARK       I    between atoms: C_7  and  N_8 
REMARK    2  A    between atoms: N_8  and  C_9 
REMARK    3  A    between atoms: C_9  and  C_10 
REMARK    4  A    between atoms: C_10  and  O_11 
REMARK    5  A    between atoms: C_10  and  C_12 
REMARK    6  A    between atoms: C_15  and  O_16 
ROOT
HETATM    1  C   UNL     1      42.914 -15.743   3.122  1.00  0.00     0.258 C 
HETATM    2  N   UNL     1      41.710 -15.219   3.518  1.00  0.00    -0.350 N 
HETATM    3  O   UNL     1      43.539 -15.282   2.169  1.00  0.00    -0.267 OA
HETATM    4  H   UNL     1      41.235 -15.690   4.287  1.00  0.00     0.163 HD
ENDROOT
BRANCH   2   5
HETATM    5  C   UNL     1      41.109 -14.023   2.931  1.00  0.00     0.114 C 
HETATM    6  C   UNL     1      40.736 -13.047   4.046  1.00  0.00     0.035 C 
BRANCH   5   7
HETATM    7  C   UNL     1      39.909 -14.298   1.967  1.00  0.00     0.173 C 
BRANCH   7   8
HETATM    8  O   UNL     1      38.672 -13.778   2.470  1.00  0.00    -0.389 OA
HETATM    9  H   UNL     1      38.879 -13.020   3.055  1.00  0.00     0.210 HD
ENDBRANCH   7   8
BRANCH   7  10
HETATM   10  C   UNL     1      40.097 -13.834   0.536  1.00  0.00    -0.028 A 
HETATM   11  C   UNL     1      40.705 -12.599   0.267  1.00  0.00     0.012 A 
HETATM   12  C   UNL     1      40.905 -12.174  -1.049  1.00  0.00     0.037 A 
HETATM   13  C   UNL     1      40.521 -12.978  -2.122  1.00  0.00     0.068 A 
HETATM   14  C   UNL     1      39.898 -14.198  -1.868  1.00  0.00     0.037 A 
HETATM   15  C   UNL     1      39.687 -14.621  -0.550  1.00  0.00     0.012 A 
BRANCH  13  16
HETATM   16  O   UNL     1      40.795 -12.460  -3.358  1.00  0.00    -0.356 OA
HETATM   17  C   UNL     1      40.861 -11.041  -3.444  1.00  0.00     0.210 C 
ENDBRANCH  13  16
ENDBRANCH   7  10
ENDBRANCH   5   7
ENDBRANCH   2   5
BRANCH   1  18
HETATM   18  C   UNL     1      43.390 -16.872   3.901  1.00  0.00     0.105 A 
HETATM   19  C   UNL     1      43.833 -16.878   5.250  1.00  0.00     0.071 A 
HETATM   20  C   UNL     1      43.935 -15.722   6.180  1.00  0.00     0.073 C 
HETATM   21  N   UNL     1      44.183 -18.100   5.668  1.00  0.00    -0.170 NA
HETATM   22  N   UNL     1      43.964 -18.904   4.605  1.00  0.00    -0.225 N 
HETATM   23  C   UNL     1      43.494 -18.193   3.497  1.00  0.00     0.168 A 
HETATM   24  C   UNL     1      44.147 -20.281   4.534  1.00  0.00     0.122 A 
HETATM   25  N   UNL     1      43.210 -18.812   2.303  1.00  0.00    -0.240 NA
HETATM   26  C   UNL     1      43.394 -20.100   2.276  1.00  0.00     0.120 A 
HETATM   27  C   UNL     1      43.878 -20.944   3.402  1.00  0.00     0.038 A 
ENDBRANCH   1  18
TORSDOF 6
ENDMDL
MODEL 2
REMARK VINA RESULT:      -7.8      3.614      6.264
REMARK  6 active torsions:
REMARK  status: ('A' for Active; 'I' for Inactive)
REMARK    1  A    between atoms: C_6  and  C_7 
REMARK       I    between atoms: C_7  and  N_8 
REMARK    2  A    between atoms: N_8  and  C_9 
REMARK    3  A    between atoms: C_9  and  C_10 
REMARK    4  A    between atoms: C_10  and  O_11 
REMARK    5  A    between atoms: C_10  and  C_12 
REMARK    6  A    between atoms: C_15  and  O_16 
ROOT
HETATM    1  C   UNL     1      42.094 -14.602   5.004  1.00  0.00     0.258 C 
HETATM    2  N   UNL     1      42.767 -13.785   4.131  1.00  0.00    -0.350 N 
HETATM    3  O   UNL     1      41.007 -14.283   5.482  1.00  0.00    -0.267 OA
HETATM    4  H   UNL     1      43.683 -14.104   3.818  1.00  0.00     0.163 HD
ENDROOT
BRANCH   2   5
HETATM    5  C   UNL     1      42.229 -12.532   3.608  1.00  0.00     0.114 C 
HETATM    6  C   UNL     1      41.943 -12.689   2.115  1.00  0.00     0.035 C 
BRANCH   5   7
HETATM    7  C   UNL     1      43.100 -11.268   3.908  1.00  0.00     0.173 C 
BRANCH   7   8
HETATM    8  O   UNL     1      42.405 -10.046   3.633  1.00  0.00    -0.389 OA
HETATM    9  H   UNL     1      42.642  -9.400   4.331  1.00  0.00     0.210 HD
ENDBRANCH   7   8
BRANCH   7  10
HETATM   10  C   UNL     1      43.697 -11.199   5.301  1.00  0.00    -0.028 A 
HETATM   11  C   UNL     1      45.063 -11.446   5.498  1.00  0.00     0.012 A 
HETATM   12  C   UNL     1      45.626 -11.361   6.774  1.00  0.00     0.037 A 
HETATM   13  C   UNL     1      44.844 -11.010   7.874  1.00  0.00     0.068 A 
HETATM   14  C   UNL     1      43.481 -10.781   7.695  1.00  0.00     0.037 A 
HETATM   15  C   UNL     1      42.913 -10.876   6.419  1.00  0.00     0.012 A 
BRANCH  13  16
HETATM   16  O   UNL     1      45.519 -10.935   9.062  1.00  0.00    -0.356 OA
HETATM   17  C   UNL     1      45.045  -9.969   9.993  1.00  0.00     0.210 C 
ENDBRANCH  13  16
ENDBRANCH   7  10
ENDBRANCH   5   7
ENDBRANCH   2   5
BRANCH   1  18
HETATM   18  C   UNL     1      42.753 -15.855   5.322  1.00  0.00     0.105 A 
HETATM   19  C   UNL     1      43.161 -16.328   6.598  1.00  0.00     0.071 A 
HETATM   20  C   UNL     1      43.029 -15.640   7.909  1.00  0.00     0.073 C 
HETATM   21  N   UNL     1      43.723 -17.541   6.538  1.00  0.00    -0.170 NA
HETATM   22  N   UNL     1      43.678 -17.877   5.230  1.00  0.00    -0.225 N 
HETATM   23  C   UNL     1      43.108 -16.869   4.448  1.00  0.00     0.168 A 
HETATM   24  C   UNL     1      44.115 -19.062   4.646  1.00  0.00     0.122 A 
HETATM   25  N   UNL     1      42.969 -16.996   3.087  1.00  0.00    -0.240 NA
HETATM   26  C   UNL     1      43.388 -18.118   2.578  1.00  0.00     0.120 A 
HETATM   27  C   UNL     1      43.997 -19.252   3.326  1.00  0.00     0.038 A 
ENDBRANCH   1  18
TORSDOF 6
ENDMDL
MODEL 3
REMARK VINA RESULT:      -7.7      2.876      8.282
REMARK  6 active torsions:
REMARK  status: ('A' for Active; 'I' for Inactive)
REMARK    1  A    between atoms: C_6  and  C_7 
REMARK       I    between atoms: C_7  and  N_8 
REMARK    2  A    between atoms: N_8  and  C_9 
REMARK    3  A    between atoms: C_9  and  C_10 
REMARK    4  A    between atoms: C_10  and  O_11 
REMARK    5  A    between atoms: C_10  and  C_12 
REMARK    6  A    between atoms: C_15  and  O_16 
ROOT
HETATM    1  C   UNL     1      40.247 -14.557   0.051  1.00  0.00     0.258 C 
HETATM    2  N   UNL     1      41.031 -13.962   1.007  1.00  0.00    -0.350 N 
HETATM    3  O   UNL     1      39.748 -15.668   0.223  1.00  0.00    -0.267 OA
HETATM    4  H   UNL     1      41.444 -13.062   0.767  1.00  0.00     0.163 HD
ENDROOT
BRANCH   2   5
HETATM    5  C   UNL     1      41.262 -14.522   2.337  1.00  0.00     0.114 C 
HETATM    6  C   UNL     1      40.496 -13.698   3.372  1.00  0.00     0.035 C 
BRANCH   5   7
HETATM    7  C   UNL     1      42.767 -14.696   2.723  1.00  0.00     0.173 C 
BRANCH   7   8
HETATM    8  O   UNL     1      43.200 -13.731   3.688  1.00  0.00    -0.389 OA
HETATM    9  H   UNL     1      42.628 -12.940   3.603  1.00  0.00     0.210 HD
ENDBRANCH   7   8
BRANCH   7  10
HETATM   10  C   UNL     1      43.169 -16.082   3.190  1.00  0.00    -0.028 A 
HETATM   11  C   UNL     1      43.180 -17.156   2.289  1.00  0.00     0.012 A 
HETATM   12  C   UNL     1      43.572 -18.432   2.705  1.00  0.00     0.037 A 
HETATM   13  C   UNL     1      43.978 -18.657   4.020  1.00  0.00     0.068 A 
HETATM   14  C   UNL     1      43.952 -17.602   4.930  1.00  0.00     0.037 A 
HETATM   15  C   UNL     1      43.550 -16.326   4.518  1.00  0.00     0.012 A 
BRANCH  13  16
HETATM   16  O   UNL     1      44.361 -19.941   4.293  1.00  0.00    -0.356 OA
HETATM   17  C   UNL     1      43.944 -20.932   3.361  1.00  0.00     0.210 C 
ENDBRANCH  13  16
ENDBRANCH   7  10
ENDBRANCH   5   7
ENDBRANCH   2   5
BRANCH   1  18
HETATM   18  C   UNL     1      40.056 -13.790  -1.166  1.00  0.00     0.105 A 
HETATM   19  C   UNL     1      39.369 -14.182  -2.346  1.00  0.00     0.071 A 
HETATM   20  C   UNL     1      38.699 -15.480  -2.621  1.00  0.00     0.073 C 
HETATM   21  N   UNL     1      39.361 -13.220  -3.276  1.00  0.00    -0.170 NA
HETATM   22  N   UNL     1      40.032 -12.191  -2.714  1.00  0.00    -0.225 N 
HETATM   23  C   UNL     1      40.489 -12.502  -1.430  1.00  0.00     0.168 A 
HETATM   24  C   UNL     1      40.277 -10.938  -3.267  1.00  0.00     0.122 A 
HETATM   25  N   UNL     1      41.202 -11.601  -0.675  1.00  0.00    -0.240 NA
HETATM   26  C   UNL     1      41.411 -10.442  -1.226  1.00  0.00     0.120 A 
HETATM   27  C   UNL     1      40.958 -10.013  -2.577  1.00  0.00     0.038 A 
ENDBRANCH   1  18
TORSDOF 6
ENDMDL
MODEL 4
REMARK VINA RESULT:      -7.4      3.655      6.626
REMARK  6 active torsions:
REMARK  status: ('A' for Active; 'I' for Inactive)
REMARK    1  A    between atoms: C_6  and  C_7 
REMARK       I    between atoms: C_7  and  N_8 
REMARK    2  A    between atoms: N_8  and  C_9 
REMARK    3  A    between atoms: C_9  and  C_10 
REMARK    4  A    between atoms: C_10  and  O_11 
REMARK    5  A    between atoms: C_10  and  C_12 
REMARK    6  A    between atoms: C_15  and  O_16 
ROOT
HETATM    1  C   UNL     1      41.212 -14.359   4.310  1.00  0.00     0.258 C 
HETATM    2  N   UNL     1      41.782 -13.221   3.799  1.00  0.00    -0.350 N 
HETATM    3  O   UNL     1      40.367 -14.315   5.202  1.00  0.00    -0.267 OA
HETATM    4  H   UNL     1      42.508 -13.347   3.095  1.00  0.00     0.163 HD
ENDROOT
BRANCH   2   5
HETATM    5  C   UNL     1      41.379 -11.867   4.174  1.00  0.00     0.114 C 
HETATM    6  C   UNL     1      40.253 -11.401   3.252  1.00  0.00     0.035 C 
BRANCH   5   7
HETATM    7  C   UNL     1      42.548 -10.831   4.243  1.00  0.00     0.173 C 
BRANCH   7   8
HETATM    8  O   UNL     1      42.105  -9.489   4.007  1.00  0.00    -0.389 OA
HETATM    9  H   UNL     1      42.808  -8.880   4.313  1.00  0.00     0.210 HD
ENDBRANCH   7   8
BRANCH   7  10
HETATM   10  C   UNL     1      43.380 -10.864   5.511  1.00  0.00    -0.028 A 
HETATM   11  C   UNL     1      42.892 -10.288   6.692  1.00  0.00     0.012 A 
HETATM   12  C   UNL     1      43.642 -10.335   7.871  1.00  0.00     0.037 A 
HETATM   13  C   UNL     1      44.883 -10.972   7.899  1.00  0.00     0.068 A 
HETATM   14  C   UNL     1      45.388 -11.530   6.727  1.00  0.00     0.037 A 
HETATM   15  C   UNL     1      44.643 -11.475   5.543  1.00  0.00     0.012 A 
BRANCH  13  16
HETATM   16  O   UNL     1      45.503 -10.972   9.118  1.00  0.00    -0.356 OA
HETATM   17  C   UNL     1      45.113  -9.943  10.021  1.00  0.00     0.210 C 
ENDBRANCH  13  16
ENDBRANCH   7  10
ENDBRANCH   5   7
ENDBRANCH   2   5
BRANCH   1  18
HETATM   18  C   UNL     1      41.677 -15.605   3.731  1.00  0.00     0.105 A 
HETATM   19  C   UNL     1      41.211 -16.248   2.553  1.00  0.00     0.071 A 
HETATM   20  C   UNL     1      40.119 -15.807   1.646  1.00  0.00     0.073 C 
HETATM   21  N   UNL     1      41.878 -17.378   2.289  1.00  0.00    -0.170 NA
HETATM   22  N   UNL     1      42.790 -17.479   3.281  1.00  0.00    -0.225 N 
HETATM   23  C   UNL     1      42.692 -16.425   4.193  1.00  0.00     0.168 A 
HETATM   24  C   UNL     1      43.752 -18.471   3.447  1.00  0.00     0.122 A 
HETATM   25  N   UNL     1      43.520 -16.332   5.287  1.00  0.00    -0.240 NA
HETATM   26  C   UNL     1      44.406 -17.277   5.408  1.00  0.00     0.120 A 
HETATM   27  C   UNL     1      44.595 -18.430   4.487  1.00  0.00     0.038 A 
ENDBRANCH   1  18
TORSDOF 6
ENDMDL
MODEL 5
REMARK VINA RESULT:      -7.3      2.308      4.620
REMARK  6 active torsions:
REMARK  status: ('A' for Active; 'I' for Inactive)
REMARK    1  A    between atoms: C_6  and  C_7 
REMARK       I    between atoms: C_7  and  N_8 
REMARK    2  A    between atoms: N_8  and  C_9 
REMARK    3  A    between atoms: C_9  and  C_10 
REMARK    4  A    between atoms: C_10  and  O_11 
REMARK    5  A    between atoms: C_10  and  C_12 
REMARK    6  A    between atoms: C_15  and  O_16 
ROOT
HETATM    1  C   UNL     1      42.931 -15.827   2.628  1.00  0.00     0.258 C 
HETATM    2  N   UNL     1      41.654 -15.363   2.819  1.00  0.00    -0.350 N 
HETATM    3  O   UNL     1      43.640 -15.412   1.713  1.00  0.00    -0.267 OA
HETATM    4  H   UNL     1      41.117 -15.793   3.571  1.00  0.00     0.163 HD
ENDROOT
BRANCH   2   5
HETATM    5  C   UNL     1      41.055 -14.280   2.042  1.00  0.00     0.114 C 
HETATM    6  C   UNL     1      40.723 -14.788   0.639  1.00  0.00     0.035 C 
BRANCH   5   7
HETATM    7  C   UNL     1      41.892 -12.960   2.005  1.00  0.00     0.173 C 
BRANCH   7   8
HETATM    8  O   UNL     1      41.226 -11.910   1.294  1.00  0.00    -0.389 OA
HETATM    9  H   UNL     1      40.275 -11.940   1.529  1.00  0.00     0.210 HD
ENDBRANCH   7   8
BRANCH   7  10
HETATM   10  C   UNL     1      42.351 -12.435   3.352  1.00  0.00    -0.028 A 
HETATM   11  C   UNL     1      43.686 -12.056   3.545  1.00  0.00     0.012 A 
HETATM   12  C   UNL     1      44.113 -11.549   4.776  1.00  0.00     0.037 A 
HETATM   13  C   UNL     1      43.214 -11.393   5.831  1.00  0.00     0.068 A 
HETATM   14  C   UNL     1      41.887 -11.785   5.657  1.00  0.00     0.037 A 
HETATM   15  C   UNL     1      41.461 -12.302   4.428  1.00  0.00     0.012 A 
BRANCH  13  16
HETATM   16  O   UNL     1      43.749 -10.863   6.972  1.00  0.00    -0.356 OA
HETATM   17  C   UNL     1      45.170 -10.856   7.054  1.00  0.00     0.210 C 
ENDBRANCH  13  16
ENDBRANCH   7  10
ENDBRANCH   5   7
ENDBRANCH   2   5
BRANCH   1  18
HETATM   18  C   UNL     1      43.377 -16.835   3.572  1.00  0.00     0.105 A 
HETATM   19  C   UNL     1      43.744 -16.656   4.932  1.00  0.00     0.071 A 
HETATM   20  C   UNL     1      43.779 -15.387   5.706  1.00  0.00     0.073 C 
HETATM   21  N   UNL     1      44.086 -17.806   5.525  1.00  0.00    -0.170 NA
HETATM   22  N   UNL     1      43.937 -18.746   4.567  1.00  0.00    -0.225 N 
HETATM   23  C   UNL     1      43.520 -18.194   3.352  1.00  0.00     0.168 A 
HETATM   24  C   UNL     1      44.142 -20.116   4.687  1.00  0.00     0.122 A 
HETATM   25  N   UNL     1      43.312 -18.970   2.236  1.00  0.00    -0.240 NA
HETATM   26  C   UNL     1      43.514 -20.246   2.388  1.00  0.00     0.120 A 
HETATM   27  C   UNL     1      43.945 -20.927   3.639  1.00  0.00     0.038 A 
ENDBRANCH   1  18
TORSDOF 6
ENDMDL
MODEL 6
REMARK VINA RESULT:      -7.3      3.053      7.023
REMARK  6 active torsions:
REMARK  status: ('A' for Active; 'I' for Inactive)
REMARK    1  A    between atoms: C_6  and  C_7 
REMARK       I    between atoms: C_7  and  N_8 
REMARK    2  A    between atoms: N_8  and  C_9 
REMARK    3  A    between atoms: C_9  and  C_10 
REMARK    4  A    between atoms: C_10  and  O_11 
REMARK    5  A    between atoms: C_10  and  C_12 
REMARK    6  A    between atoms: C_15  and  O_16 
ROOT
HETATM    1  C   UNL     1      40.748 -12.948   4.413  1.00  0.00     0.258 C 
HETATM    2  N   UNL     1      41.857 -13.562   4.939  1.00  0.00    -0.350 N 
HETATM    3  O   UNL     1      39.654 -12.998   4.971  1.00  0.00    -0.267 OA
HETATM    4  H   UNL     1      42.713 -13.513   4.389  1.00  0.00     0.163 HD
ENDROOT
BRANCH   2   5
HETATM    5  C   UNL     1      41.878 -14.232   6.237  1.00  0.00     0.114 C 
HETATM    6  C   UNL     1      43.251 -14.040   6.882  1.00  0.00     0.035 C 
BRANCH   5   7
HETATM    7  C   UNL     1      41.451 -15.736   6.207  1.00  0.00     0.173 C 
BRANCH   7   8
HETATM    8  O   UNL     1      40.042 -15.900   6.007  1.00  0.00    -0.389 OA
HETATM    9  H   UNL     1      39.761 -16.709   6.483  1.00  0.00     0.210 HD
ENDBRANCH   7   8
BRANCH   7  10
HETATM   10  C   UNL     1      42.198 -16.611   5.218  1.00  0.00    -0.028 A 
HETATM   11  C   UNL     1      43.202 -17.482   5.664  1.00  0.00     0.012 A 
HETATM   12  C   UNL     1      43.880 -18.309   4.764  1.00  0.00     0.037 A 
HETATM   13  C   UNL     1      43.558 -18.297   3.407  1.00  0.00     0.068 A 
HETATM   14  C   UNL     1      42.575 -17.422   2.948  1.00  0.00     0.037 A 
HETATM   15  C   UNL     1      41.903 -16.585   3.847  1.00  0.00     0.012 A 
BRANCH  13  16
HETATM   16  O   UNL     1      44.274 -19.171   2.636  1.00  0.00    -0.356 OA
HETATM   17  C   UNL     1      43.526 -20.189   1.981  1.00  0.00     0.210 C 
ENDBRANCH  13  16
ENDBRANCH   7  10
ENDBRANCH   5   7
ENDBRANCH   2   5
BRANCH   1  18
HETATM   18  C   UNL     1      40.959 -12.247   3.159  1.00  0.00     0.105 A 
HETATM   19  C   UNL     1      41.518 -10.956   2.965  1.00  0.00     0.071 A 
HETATM   20  C   UNL     1      42.001 -10.007   4.002  1.00  0.00     0.073 C 
HETATM   21  N   UNL     1      41.589 -10.620   1.671  1.00  0.00    -0.170 NA
HETATM   22  N   UNL     1      41.089 -11.686   1.010  1.00  0.00    -0.225 N 
HETATM   23  C   UNL     1      40.677 -12.698   1.881  1.00  0.00     0.168 A 
HETATM   24  C   UNL     1      40.969 -11.847  -0.367  1.00  0.00     0.122 A 
HETATM   25  N   UNL     1      40.130 -13.873   1.423  1.00  0.00    -0.240 NA
HETATM   26  C   UNL     1      40.034 -13.986   0.131  1.00  0.00     0.120 A 
HETATM   27  C   UNL     1      40.454 -12.974  -0.876  1.00  0.00     0.038 A 
ENDBRANCH   1  18
TORSDOF 6
ENDMDL
MODEL 7
REMARK VINA RESULT:      -7.2      2.865      7.592
REMARK  6 active torsions:
REMARK  status: ('A' for Active; 'I' for Inactive)
REMARK    1  A    between atoms: C_6  and  C_7 
REMARK       I    between atoms: C_7  and  N_8 
REMARK    2  A    between atoms: N_8  and  C_9 
REMARK    3  A    between atoms: C_9  and  C_10 
REMARK    4  A    between atoms: C_10  and  O_11 
REMARK    5  A    between atoms: C_10  and  C_12 
REMARK    6  A    between atoms: C_15  and  O_16 
ROOT
HETATM    1  C   UNL     1      40.377 -12.959   1.837  1.00  0.00     0.258 C 
HETATM    2  N   UNL     1      41.575 -13.206   2.459  1.00  0.00    -0.350 N 
HETATM    3  O   UNL     1      39.334 -12.818   2.474  1.00  0.00    -0.267 OA
HETATM    4  H   UNL     1      42.382 -13.357   1.855  1.00  0.00     0.163 HD
ENDROOT
BRANCH   2   5
HETATM    5  C   UNL     1      41.753 -13.221   3.909  1.00  0.00     0.114 C 
HETATM    6  C   UNL     1      43.160 -12.729   4.250  1.00  0.00     0.035 C 
BRANCH   5   7
HETATM    7  C   UNL     1      41.429 -14.588   4.595  1.00  0.00     0.173 C 
BRANCH   7   8
HETATM    8  O   UNL     1      40.023 -14.860   4.635  1.00  0.00    -0.389 OA
HETATM    9  H   UNL     1      39.558 -14.020   4.831  1.00  0.00     0.210 HD
ENDBRANCH   7   8
BRANCH   7  10
HETATM   10  C   UNL     1      42.153 -15.795   4.029  1.00  0.00    -0.028 A 
HETATM   11  C   UNL     1      43.229 -16.364   4.723  1.00  0.00     0.012 A 
HETATM   12  C   UNL     1      43.887 -17.491   4.221  1.00  0.00     0.037 A 
HETATM   13  C   UNL     1      43.473 -18.082   3.028  1.00  0.00     0.068 A 
HETATM   14  C   UNL     1      42.416 -17.514   2.318  1.00  0.00     0.037 A 
HETATM   15  C   UNL     1      41.763 -16.380   2.814  1.00  0.00     0.012 A 
BRANCH  13  16
HETATM   16  O   UNL     1      44.180 -19.193   2.659  1.00  0.00    -0.356 OA
HETATM   17  C   UNL     1      43.423 -20.263   2.104  1.00  0.00     0.210 C 
ENDBRANCH  13  16
ENDBRANCH   7  10
ENDBRANCH   5   7
ENDBRANCH   2   5
BRANCH   1  18
HETATM   18  C   UNL     1      40.429 -12.882   0.389  1.00  0.00     0.105 A 
HETATM   19  C   UNL     1      40.162 -13.913  -0.551  1.00  0.00     0.071 A 
HETATM   20  C   UNL     1      39.788 -15.325  -0.272  1.00  0.00     0.073 C 
HETATM   21  N   UNL     1      40.280 -13.494  -1.816  1.00  0.00    -0.170 NA
HETATM   22  N   UNL     1      40.613 -12.189  -1.718  1.00  0.00    -0.225 N 
HETATM   23  C   UNL     1      40.730 -11.776  -0.388  1.00  0.00     0.168 A 
HETATM   24  C   UNL     1      40.824 -11.289  -2.758  1.00  0.00     0.122 A 
HETATM   25  N   UNL     1      41.068 -10.486  -0.055  1.00  0.00    -0.240 NA
HETATM   26  C   UNL     1      41.257  -9.675  -1.054  1.00  0.00     0.120 A 
HETATM   27  C   UNL     1      41.145 -10.015  -2.499  1.00  0.00     0.038 A 
ENDBRANCH   1  18
TORSDOF 6
ENDMDL
MODEL 8
REMARK VINA RESULT:      -7.2      3.000      8.232
REMARK  6 active torsions:
REMARK  status: ('A' for Active; 'I' for Inactive)
REMARK    1  A    between atoms: C_6  and  C_7 
REMARK       I    between atoms: C_7  and  N_8 
REMARK    2  A    between atoms: N_8  and  C_9 
REMARK    3  A    between atoms: C_9  and  C_10 
REMARK    4  A    between atoms: C_10  and  O_11 
REMARK    5  A    between atoms: C_10  and  C_12 
REMARK    6  A    between atoms: C_15  and  O_16 
ROOT
HETATM    1  C   UNL     1      40.521 -12.995   1.050  1.00  0.00     0.258 C 
HETATM    2  N   UNL     1      41.326 -14.069   0.767  1.00  0.00    -0.350 N 
HETATM    3  O   UNL     1      39.514 -13.106   1.746  1.00  0.00    -0.267 OA
HETATM    4  H   UNL     1      42.115 -13.899   0.144  1.00  0.00     0.163 HD
ENDROOT
BRANCH   2   5
HETATM    5  C   UNL     1      41.137 -15.402   1.335  1.00  0.00     0.114 C 
HETATM    6  C   UNL     1      39.809 -15.976   0.845  1.00  0.00     0.035 C 
BRANCH   5   7
HETATM    7  C   UNL     1      41.270 -15.475   2.892  1.00  0.00     0.173 C 
BRANCH   7   8
HETATM    8  O   UNL     1      39.998 -15.563   3.545  1.00  0.00    -0.389 OA
HETATM    9  H   UNL     1      39.784 -14.679   3.910  1.00  0.00     0.210 HD
ENDBRANCH   7   8
BRANCH   7  10
HETATM   10  C   UNL     1      42.178 -16.568   3.422  1.00  0.00    -0.028 A 
HETATM   11  C   UNL     1      42.715 -17.526   2.550  1.00  0.00     0.012 A 
HETATM   12  C   UNL     1      43.573 -18.522   3.026  1.00  0.00     0.037 A 
HETATM   13  C   UNL     1      43.926 -18.572   4.374  1.00  0.00     0.068 A 
HETATM   14  C   UNL     1      43.383 -17.637   5.254  1.00  0.00     0.037 A 
HETATM   15  C   UNL     1      42.516 -16.645   4.781  1.00  0.00     0.012 A 
BRANCH  13  16
HETATM   16  O   UNL     1      44.791 -19.577   4.707  1.00  0.00    -0.356 OA
HETATM   17  C   UNL     1      44.200 -20.783   5.179  1.00  0.00     0.210 C 
ENDBRANCH  13  16
ENDBRANCH   7  10
ENDBRANCH   5   7
ENDBRANCH   2   5
BRANCH   1  18
HETATM   18  C   UNL     1      40.937 -11.731   0.469  1.00  0.00     0.105 A 
HETATM   19  C   UNL     1      41.627 -10.664   1.104  1.00  0.00     0.071 A 
HETATM   20  C   UNL     1      42.066 -10.579   2.522  1.00  0.00     0.073 C 
HETATM   21  N   UNL     1      41.878  -9.649   0.268  1.00  0.00    -0.170 NA
HETATM   22  N   UNL     1      41.368 -10.045  -0.918  1.00  0.00    -0.225 N 
HETATM   23  C   UNL     1      40.769 -11.305  -0.837  1.00  0.00     0.168 A 
HETATM   24  C   UNL     1      41.397  -9.352  -2.124  1.00  0.00     0.122 A 
HETATM   25  N   UNL     1      40.179 -11.900  -1.927  1.00  0.00    -0.240 NA
HETATM   26  C   UNL     1      40.226 -11.222  -3.036  1.00  0.00     0.120 A 
HETATM   27  C   UNL     1      40.848  -9.883  -3.225  1.00  0.00     0.038 A 
ENDBRANCH   1  18
TORSDOF 6
ENDMDL
MODEL 9
REMARK VINA RESULT:      -7.2      4.898      8.400
REMARK  6 active torsions:
REMARK  status: ('A' for Active; 'I' for Inactive)
REMARK    1  A    between atoms: C_6  and  C_7 
REMARK       I    between atoms: C_7  and  N_8 
REMARK    2  A    between atoms: N_8  and  C_9 
REMARK    3  A    between atoms: C_9  and  C_10 
REMARK    4  A    between atoms: C_10  and  O_11 
REMARK    5  A    between atoms: C_10  and  C_12 
REMARK    6  A    between atoms: C_15  and  O_16 
ROOT
HETATM    1  C   UNL     1      43.784 -11.451   6.438  1.00  0.00     0.258 C 
HETATM    2  N   UNL     1      42.851 -12.374   6.039  1.00  0.00    -0.350 N 
HETATM    3  O   UNL     1      44.956 -11.515   6.073  1.00  0.00    -0.267 OA
HETATM    4  H   UNL     1      41.913 -12.275   6.424  1.00  0.00     0.163 HD
ENDROOT
BRANCH   2   5
HETATM    5  C   UNL     1      43.120 -13.443   5.079  1.00  0.00     0.114 C 
HETATM    6  C   UNL     1      43.012 -12.886   3.660  1.00  0.00     0.035 C 
BRANCH   5   7
HETATM    7  C   UNL     1      42.254 -14.730   5.272  1.00  0.00     0.173 C 
BRANCH   7   8
HETATM    8  O   UNL     1      40.892 -14.538   4.871  1.00  0.00    -0.389 OA
HETATM    9  H   UNL     1      40.546 -15.398   4.553  1.00  0.00     0.210 HD
ENDBRANCH   7   8
BRANCH   7  10
HETATM   10  C   UNL     1      42.793 -15.988   4.617  1.00  0.00    -0.028 A 
HETATM   11  C   UNL     1      42.297 -16.406   3.375  1.00  0.00     0.012 A 
HETATM   12  C   UNL     1      42.804 -17.550   2.752  1.00  0.00     0.037 A 
HETATM   13  C   UNL     1      43.827 -18.288   3.347  1.00  0.00     0.068 A 
HETATM   14  C   UNL     1      44.316 -17.894   4.592  1.00  0.00     0.037 A 
HETATM   15  C   UNL     1      43.801 -16.754   5.221  1.00  0.00     0.012 A 
BRANCH  13  16
HETATM   16  O   UNL     1      44.254 -19.369   2.626  1.00  0.00    -0.356 OA
HETATM   17  C   UNL     1      43.238 -20.247   2.152  1.00  0.00     0.210 C 
ENDBRANCH  13  16
ENDBRANCH   7  10
ENDBRANCH   5   7
ENDBRANCH   2   5
BRANCH   1  18
HETATM   18  C   UNL     1      43.292 -10.405   7.316  1.00  0.00     0.105 A 
HETATM   19  C   UNL     1      42.336  -9.396   7.022  1.00  0.00     0.071 A 
HETATM   20  C   UNL     1      41.628  -9.159   5.736  1.00  0.00     0.073 C 
HETATM   21  N   UNL     1      42.091  -8.603   8.072  1.00  0.00    -0.170 NA
HETATM   22  N   UNL     1      42.872  -9.088   9.061  1.00  0.00    -0.225 N 
HETATM   23  C   UNL     1      43.635 -10.181   8.638  1.00  0.00     0.168 A 
HETATM   24  C   UNL     1      42.964  -8.627  10.370  1.00  0.00     0.122 A 
HETATM   25  N   UNL     1      44.507 -10.827   9.482  1.00  0.00    -0.240 NA
HETATM   26  C   UNL     1      44.565 -10.367  10.697  1.00  0.00     0.120 A 
HETATM   27  C   UNL     1      43.787  -9.221  11.243  1.00  0.00     0.038 A 
ENDBRANCH   1  18
TORSDOF 6
ENDMDL
MODEL 10
REMARK VINA RESULT:      -7.1      3.264      8.615
REMARK  6 active torsions:
REMARK  status: ('A' for Active; 'I' for Inactive)
REMARK    1  A    between atoms: C_6  and  C_7 
REMARK       I    between atoms: C_7  and  N_8 
REMARK    2  A    between atoms: N_8  and  C_9 
REMARK    3  A    between atoms: C_9  and  C_10 
REMARK    4  A    between atoms: C_10  and  O_11 
REMARK    5  A    between atoms: C_10  and  C_12 
REMARK    6  A    between atoms: C_15  and  O_16 
ROOT
HETATM    1  C   UNL     1      39.955 -13.954  -0.043  1.00  0.00     0.258 C 
HETATM    2  N   UNL     1      40.691 -13.870   1.112  1.00  0.00    -0.350 N 
HETATM    3  O   UNL     1      39.679 -15.036  -0.558  1.00  0.00    -0.267 OA
HETATM    4  H   UNL     1      40.915 -12.934   1.446  1.00  0.00     0.163 HD
ENDROOT
BRANCH   2   5
HETATM    5  C   UNL     1      41.121 -15.030   1.890  1.00  0.00     0.114 C 
HETATM    6  C   UNL     1      40.381 -15.044   3.228  1.00  0.00     0.035 C 
BRANCH   5   7
HETATM    7  C   UNL     1      42.669 -15.157   2.076  1.00  0.00     0.173 C 
BRANCH   7   8
HETATM    8  O   UNL     1      43.232 -14.032   2.761  1.00  0.00    -0.389 OA
HETATM    9  H   UNL     1      42.844 -13.218   2.377  1.00  0.00     0.210 HD
ENDBRANCH   7   8
BRANCH   7  10
HETATM   10  C   UNL     1      43.148 -16.434   2.738  1.00  0.00    -0.028 A 
HETATM   11  C   UNL     1      43.613 -16.413   4.061  1.00  0.00     0.012 A 
HETATM   12  C   UNL     1      44.034 -17.589   4.688  1.00  0.00     0.037 A 
HETATM   13  C   UNL     1      43.981 -18.811   4.016  1.00  0.00     0.068 A 
HETATM   14  C   UNL     1      43.539 -18.842   2.695  1.00  0.00     0.037 A 
HETATM   15  C   UNL     1      43.127 -17.663   2.062  1.00  0.00     0.012 A 
BRANCH  13  16
HETATM   16  O   UNL     1      44.395 -19.889   4.747  1.00  0.00    -0.356 OA
HETATM   17  C   UNL     1      43.610 -20.212   5.890  1.00  0.00     0.210 C 
ENDBRANCH  13  16
ENDBRANCH   7  10
ENDBRANCH   5   7
ENDBRANCH   2   5
BRANCH   1  18
HETATM   18  C   UNL     1      39.535 -12.686  -0.609  1.00  0.00     0.105 A 
HETATM   19  C   UNL     1      39.861 -12.148  -1.883  1.00  0.00     0.071 A 
HETATM   20  C   UNL     1      40.728 -12.748  -2.931  1.00  0.00     0.073 C 
HETATM   21  N   UNL     1      39.284 -10.959  -2.098  1.00  0.00    -0.170 NA
HETATM   22  N   UNL     1      38.571 -10.714  -0.978  1.00  0.00    -0.225 N 
HETATM   23  C   UNL     1      38.709 -11.736  -0.034  1.00  0.00     0.168 A 
HETATM   24  C   UNL     1      37.765  -9.611  -0.713  1.00  0.00     0.122 A 
HETATM   25  N   UNL     1      38.074 -11.689   1.184  1.00  0.00    -0.240 NA
HETATM   26  C   UNL     1      37.330 -10.643   1.395  1.00  0.00     0.120 A 
HETATM   27  C   UNL     1      37.112  -9.512   0.452  1.00  0.00     0.038 A 
ENDBRANCH   1  18
TORSDOF 6
ENDMDL
