MODEL 1
REMARK VINA RESULT:      -9.0      0.000      0.000
REMARK  3 active torsions:
REMARK  status: ('A' for Active; 'I' for Inactive)
REMARK    1  A    between atoms: C_4  and  C_5 
REMARK       I    between atoms: C_5  and  N_6 
REMARK    2  A    between atoms: C_16  and  C_17 
REMARK    3  A    between atoms: C_27  and  O_28 
ROOT
HETATM    1  C   UNL     1      42.562 -11.204   4.352  1.00  0.00     0.275 C 
HETATM    2  N   UNL     1      42.562 -12.284   3.458  1.00  0.00    -0.339 N 
HETATM    3  C   UNL     1      41.637 -12.267   2.338  1.00  0.00     0.123 C 
HETATM    4  C   UNL     1      42.043 -13.477   1.461  1.00  0.00     0.221 C 
HETATM    5  N   UNL     1      40.809 -14.344   1.196  1.00  0.00    -0.064 N 
HETATM    6  H   UNL     1      41.074 -15.151   0.615  1.00  0.00     0.280 HD
HETATM    7  C   UNL     1      40.089 -14.860   2.433  1.00  0.00     0.236 C 
HETATM    8  C   UNL     1      39.841 -13.695   3.383  1.00  0.00     0.034 C 
HETATM    9  C   UNL     1      40.133 -12.362   2.678  1.00  0.00     0.014 C 
HETATM   10  C   UNL     1      39.350 -12.345   1.344  1.00  0.00     0.034 C 
HETATM   11  C   UNL     1      39.801 -13.490   0.423  1.00  0.00     0.236 C 
HETATM   12  C   UNL     1      43.295 -14.120   2.122  1.00  0.00     0.070 C 
HETATM   13  C   UNL     1      43.772 -13.008   3.075  1.00  0.00     0.138 C 
HETATM   14  O   UNL     1      41.767 -10.270   4.211  1.00  0.00    -0.266 OA
ENDROOT
BRANCH   1  15
HETATM   15  C   UNL     1      43.533 -11.141   5.493  1.00  0.00     0.157 A 
HETATM   16  N   UNL     1      44.856 -11.225   5.188  1.00  0.00    -0.253 NA
HETATM   17  C   UNL     1      45.720 -11.171   6.229  1.00  0.00     0.117 A 
HETATM   18  C   UNL     1      45.330 -11.038   7.553  1.00  0.00     0.022 A 
HETATM   19  C   UNL     1      43.970 -10.973   7.841  1.00  0.00     0.040 A 
HETATM   20  C   UNL     1      43.052 -11.039   6.801  1.00  0.00     0.100 A 
BRANCH  20  21
HETATM   21  O   UNL     1      41.729 -10.998   7.140  1.00  0.00    -0.358 OA
HETATM   22  H   UNL     1      41.577 -10.212   7.710  1.00  0.00     0.218 HD
ENDBRANCH  20  21
ENDBRANCH   1  15
BRANCH  12  23
HETATM   23  C   UNL     1      43.180 -15.494   2.751  1.00  0.00    -0.044 A 
HETATM   24  C   UNL     1      43.226 -16.630   1.924  1.00  0.00     0.050 A 
HETATM   25  C   UNL     1      43.131 -17.912   2.471  1.00  0.00     0.119 A 
HETATM   26  F   UNL     1      43.162 -18.970   1.652  1.00  0.00    -0.206 F 
HETATM   27  C   UNL     1      42.995 -18.105   3.835  1.00  0.00     0.084 A 
HETATM   28  C   UNL     1      42.962 -16.990   4.658  1.00  0.00     0.119 A 
HETATM   29  F   UNL     1      42.819 -17.151   5.979  1.00  0.00    -0.206 F 
HETATM   30  C   UNL     1      43.055 -15.699   4.137  1.00  0.00     0.050 A 
ENDBRANCH  12  23
TORSDOF 3
ENDMDL
MODEL 2
REMARK VINA RESULT:      -8.6      3.141      5.038
REMARK  3 active torsions:
REMARK  status: ('A' for Active; 'I' for Inactive)
REMARK    1  A    between atoms: C_4  and  C_5 
REMARK       I    between atoms: C_5  and  N_6 
REMARK    2  A    between atoms: C_16  and  C_17 
REMARK    3  A    between atoms: C_27  and  O_28 
ROOT
HETATM    1  C   UNL     1      41.410 -12.843   5.086  1.00  0.00     0.275 C 
HETATM    2  N   UNL     1      41.012 -13.617   3.986  1.00  0.00    -0.339 N 
HETATM    3  C   UNL     1      41.414 -15.012   3.929  1.00  0.00     0.123 C 
HETATM    4  C   UNL     1      40.645 -15.605   2.722  1.00  0.00     0.221 C 
HETATM    5  N   UNL     1      41.638 -16.301   1.787  1.00  0.00    -0.064 N 
HETATM    6  H   UNL     1      41.133 -16.695   0.982  1.00  0.00     0.280 HD
HETATM    7  C   UNL     1      42.770 -15.431   1.262  1.00  0.00     0.236 C 
HETATM    8  C   UNL     1      43.421 -14.708   2.434  1.00  0.00     0.034 C 
HETATM    9  C   UNL     1      42.924 -15.293   3.765  1.00  0.00     0.014 C 
HETATM   10  C   UNL     1      43.111 -16.828   3.710  1.00  0.00     0.034 C 
HETATM   11  C   UNL     1      42.286 -17.446   2.569  1.00  0.00     0.236 C 
HETATM   12  C   UNL     1      39.737 -14.475   2.161  1.00  0.00     0.070 C 
HETATM   13  C   UNL     1      39.723 -13.458   3.318  1.00  0.00     0.138 C 
HETATM   14  O   UNL     1      42.118 -13.326   5.973  1.00  0.00    -0.266 OA
ENDROOT
BRANCH   1  15
HETATM   15  C   UNL     1      40.977 -11.414   5.225  1.00  0.00     0.157 A 
HETATM   16  N   UNL     1      41.547 -10.507   4.386  1.00  0.00    -0.253 NA
HETATM   17  C   UNL     1      41.148  -9.221   4.527  1.00  0.00     0.117 A 
HETATM   18  C   UNL     1      40.213  -8.798   5.458  1.00  0.00     0.022 A 
HETATM   19  C   UNL     1      39.657  -9.741   6.317  1.00  0.00     0.040 A 
HETATM   20  C   UNL     1      40.051 -11.069   6.214  1.00  0.00     0.100 A 
BRANCH  20  21
HETATM   21  O   UNL     1      39.496 -11.950   7.099  1.00  0.00    -0.358 OA
HETATM   22  H   UNL     1      40.100 -12.041   7.868  1.00  0.00     0.218 HD
ENDBRANCH  20  21
ENDBRANCH   1  15
BRANCH  12  23
HETATM   23  C   UNL     1      40.041 -13.886   0.798  1.00  0.00    -0.044 A 
HETATM   24  C   UNL     1      40.636 -12.615   0.720  1.00  0.00     0.050 A 
HETATM   25  C   UNL     1      40.937 -12.046  -0.519  1.00  0.00     0.119 A 
HETATM   26  F   UNL     1      41.488 -10.826  -0.556  1.00  0.00    -0.206 F 
HETATM   27  C   UNL     1      40.666 -12.711  -1.703  1.00  0.00     0.084 A 
HETATM   28  C   UNL     1      40.092 -13.971  -1.634  1.00  0.00     0.119 A 
HETATM   29  F   UNL     1      39.810 -14.629  -2.765  1.00  0.00    -0.206 F 
HETATM   30  C   UNL     1      39.782 -14.562  -0.408  1.00  0.00     0.050 A 
ENDBRANCH  12  23
TORSDOF 3
ENDMDL
MODEL 3
REMARK VINA RESULT:      -8.5      2.315      5.835
REMARK  3 active torsions:
REMARK  status: ('A' for Active; 'I' for Inactive)
REMARK    1  A    between atoms: C_4  and  C_5 
REMARK       I    between atoms: C_5  and  N_6 
REMARK    2  A    between atoms: C_16  and  C_17 
REMARK    3  A    between atoms: C_27  and  O_28 
ROOT
HETATM    1  C   UNL     1      39.987 -11.765   0.796  1.00  0.00     0.275 C 
HETATM    2  N   UNL     1      40.275 -12.416   2.004  1.00  0.00    -0.339 N 
HETATM    3  C   UNL     1      40.582 -11.614   3.176  1.00  0.00     0.123 C 
HETATM    4  C   UNL     1      40.639 -12.621   4.351  1.00  0.00     0.221 C 
HETATM    5  N   UNL     1      41.963 -12.447   5.099  1.00  0.00    -0.064 N 
HETATM    6  H   UNL     1      42.008 -13.116   5.880  1.00  0.00     0.280 HD
HETATM    7  C   UNL     1      43.222 -12.610   4.258  1.00  0.00     0.236 C 
HETATM    8  C   UNL     1      43.094 -11.749   3.008  1.00  0.00     0.034 C 
HETATM    9  C   UNL     1      41.894 -10.799   3.134  1.00  0.00     0.014 C 
HETATM   10  C   UNL     1      42.020 -10.047   4.481  1.00  0.00     0.034 C 
HETATM   11  C   UNL     1      41.992 -11.026   5.666  1.00  0.00     0.236 C 
HETATM   12  C   UNL     1      40.271 -14.017   3.773  1.00  0.00     0.070 C 
HETATM   13  C   UNL     1      39.623 -13.654   2.423  1.00  0.00     0.138 C 
HETATM   14  O   UNL     1      40.027 -10.534   0.718  1.00  0.00    -0.266 OA
ENDROOT
BRANCH   1  15
HETATM   15  C   UNL     1      39.607 -12.541  -0.431  1.00  0.00     0.157 A 
HETATM   16  N   UNL     1      40.599 -13.219  -1.069  1.00  0.00    -0.253 NA
HETATM   17  C   UNL     1      40.241 -13.910  -2.176  1.00  0.00     0.117 A 
HETATM   18  C   UNL     1      38.949 -13.959  -2.675  1.00  0.00     0.022 A 
HETATM   19  C   UNL     1      37.955 -13.243  -2.015  1.00  0.00     0.040 A 
HETATM   20  C   UNL     1      38.285 -12.509  -0.883  1.00  0.00     0.100 A 
BRANCH  20  21
HETATM   21  O   UNL     1      37.278 -11.802  -0.288  1.00  0.00    -0.358 OA
HETATM   22  H   UNL     1      37.351 -11.914   0.686  1.00  0.00     0.218 HD
ENDBRANCH  20  21
ENDBRANCH   1  15
BRANCH  12  23
HETATM   23  C   UNL     1      41.333 -15.095   3.703  1.00  0.00    -0.044 A 
HETATM   24  C   UNL     1      41.590 -15.876   4.843  1.00  0.00     0.050 A 
HETATM   25  C   UNL     1      42.556 -16.885   4.811  1.00  0.00     0.119 A 
HETATM   26  F   UNL     1      42.787 -17.596   5.921  1.00  0.00    -0.206 F 
HETATM   27  C   UNL     1      43.283 -17.150   3.662  1.00  0.00     0.084 A 
HETATM   28  C   UNL     1      43.025 -16.394   2.530  1.00  0.00     0.119 A 
HETATM   29  F   UNL     1      43.723 -16.624   1.411  1.00  0.00    -0.206 F 
HETATM   30  C   UNL     1      42.065 -15.381   2.536  1.00  0.00     0.050 A 
ENDBRANCH  12  23
TORSDOF 3
ENDMDL
MODEL 4
REMARK VINA RESULT:      -8.5      3.085      5.672
REMARK  3 active torsions:
REMARK  status: ('A' for Active; 'I' for Inactive)
REMARK    1  A    between atoms: C_4  and  C_5 
REMARK       I    between atoms: C_5  and  N_6 
REMARK    2  A    between atoms: C_16  and  C_17 
REMARK    3  A    between atoms: C_27  and  O_28 
ROOT
HETATM    1  C   UNL     1      42.635 -15.376   4.602  1.00  0.00     0.275 C 
HETATM    2  N   UNL     1      42.352 -14.277   3.779  1.00  0.00    -0.339 N 
HETATM    3  C   UNL     1      42.003 -13.010   4.397  1.00  0.00     0.123 C 
HETATM    4  C   UNL     1      41.963 -11.989   3.233  1.00  0.00     0.221 C 
HETATM    5  N   UNL     1      40.624 -11.248   3.259  1.00  0.00    -0.064 N 
HETATM    6  H   UNL     1      40.591 -10.570   2.486  1.00  0.00     0.280 HD
HETATM    7  C   UNL     1      39.383 -12.126   3.179  1.00  0.00     0.236 C 
HETATM    8  C   UNL     1      39.499 -13.240   4.211  1.00  0.00     0.034 C 
HETATM    9  C   UNL     1      40.666 -12.960   5.170  1.00  0.00     0.014 C 
HETATM   10  C   UNL     1      40.497 -11.524   5.720  1.00  0.00     0.034 C 
HETATM   11  C   UNL     1      40.541 -10.487   4.585  1.00  0.00     0.236 C 
HETATM   12  C   UNL     1      42.385 -12.751   1.945  1.00  0.00     0.070 C 
HETATM   13  C   UNL     1      43.038 -14.025   2.514  1.00  0.00     0.138 C 
HETATM   14  O   UNL     1      42.556 -15.281   5.830  1.00  0.00    -0.266 OA
ENDROOT
BRANCH   1  15
HETATM   15  C   UNL     1      43.056 -16.693   4.019  1.00  0.00     0.157 A 
HETATM   16  N   UNL     1      42.371 -17.139   2.933  1.00  0.00    -0.253 NA
HETATM   17  C   UNL     1      42.760 -18.331   2.421  1.00  0.00     0.117 A 
HETATM   18  C   UNL     1      43.795 -19.094   2.938  1.00  0.00     0.022 A 
HETATM   19  C   UNL     1      44.470 -18.625   4.061  1.00  0.00     0.040 A 
HETATM   20  C   UNL     1      44.090 -17.413   4.624  1.00  0.00     0.100 A 
BRANCH  20  21
HETATM   21  O   UNL     1      44.767 -17.011   5.741  1.00  0.00    -0.358 OA
HETATM   22  H   UNL     1      45.401 -17.718   5.993  1.00  0.00     0.218 HD
ENDBRANCH  20  21
ENDBRANCH   1  15
BRANCH  12  23
HETATM   23  C   UNL     1      41.359 -12.992   0.855  1.00  0.00    -0.044 A 
HETATM   24  C   UNL     1      40.792 -14.272   0.722  1.00  0.00     0.050 A 
HETATM   25  C   UNL     1      39.839 -14.527  -0.266  1.00  0.00     0.119 A 
HETATM   26  F   UNL     1      39.333 -15.761  -0.375  1.00  0.00    -0.206 F 
HETATM   27  C   UNL     1      39.419 -13.535  -1.136  1.00  0.00     0.084 A 
HETATM   28  C   UNL     1      39.963 -12.267  -1.002  1.00  0.00     0.119 A 
HETATM   29  F   UNL     1      39.582 -11.295  -1.839  1.00  0.00    -0.206 F 
HETATM   30  C   UNL     1      40.918 -11.986  -0.023  1.00  0.00     0.050 A 
ENDBRANCH  12  23
TORSDOF 3
ENDMDL
MODEL 5
REMARK VINA RESULT:      -8.3      2.299      5.720
REMARK  3 active torsions:
REMARK  status: ('A' for Active; 'I' for Inactive)
REMARK    1  A    between atoms: C_4  and  C_5 
REMARK       I    between atoms: C_5  and  N_6 
REMARK    2  A    between atoms: C_16  and  C_17 
REMARK    3  A    between atoms: C_27  and  O_28 
ROOT
HETATM    1  C   UNL     1      39.723 -11.524   1.019  1.00  0.00     0.275 C 
HETATM    2  N   UNL     1      40.087 -12.242   2.167  1.00  0.00    -0.339 N 
HETATM    3  C   UNL     1      40.496 -11.510   3.352  1.00  0.00     0.123 C 
HETATM    4  C   UNL     1      40.620 -12.578   4.466  1.00  0.00     0.221 C 
HETATM    5  N   UNL     1      42.000 -12.466   5.120  1.00  0.00    -0.064 N 
HETATM    6  H   UNL     1      42.088 -13.176   5.860  1.00  0.00     0.280 HD
HETATM    7  C   UNL     1      43.188 -12.604   4.180  1.00  0.00     0.236 C 
HETATM    8  C   UNL     1      42.985 -11.676   2.989  1.00  0.00     0.034 C 
HETATM    9  C   UNL     1      41.817 -10.715   3.254  1.00  0.00     0.014 C 
HETATM   10  C   UNL     1      42.058 -10.038   4.625  1.00  0.00     0.034 C 
HETATM   11  C   UNL     1      42.099 -11.077   5.756  1.00  0.00     0.236 C 
HETATM   12  C   UNL     1      40.182 -13.935   3.846  1.00  0.00     0.070 C 
HETATM   13  C   UNL     1      39.443 -13.491   2.569  1.00  0.00     0.138 C 
HETATM   14  O   UNL     1      39.781 -10.292   1.002  1.00  0.00    -0.266 OA
ENDROOT
BRANCH   1  15
HETATM   15  C   UNL     1      39.238 -12.227  -0.214  1.00  0.00     0.157 A 
HETATM   16  N   UNL     1      37.961 -11.977  -0.610  1.00  0.00    -0.253 NA
HETATM   17  C   UNL     1      37.537 -12.622  -1.722  1.00  0.00     0.117 A 
HETATM   18  C   UNL     1      38.321 -13.500  -2.455  1.00  0.00     0.022 A 
HETATM   19  C   UNL     1      39.618 -13.753  -2.020  1.00  0.00     0.040 A 
HETATM   20  C   UNL     1      40.085 -13.121  -0.874  1.00  0.00     0.100 A 
BRANCH  20  21
HETATM   21  O   UNL     1      41.356 -13.425  -0.474  1.00  0.00    -0.358 OA
HETATM   22  H   UNL     1      41.675 -14.189  -1.004  1.00  0.00     0.218 HD
ENDBRANCH  20  21
ENDBRANCH   1  15
BRANCH  12  23
HETATM   23  C   UNL     1      41.214 -15.025   3.640  1.00  0.00    -0.044 A 
HETATM   24  C   UNL     1      41.825 -15.158   2.380  1.00  0.00     0.050 A 
HETATM   25  C   UNL     1      42.786 -16.146   2.157  1.00  0.00     0.119 A 
HETATM   26  F   UNL     1      43.334 -16.255   0.940  1.00  0.00    -0.206 F 
HETATM   27  C   UNL     1      43.170 -17.018   3.162  1.00  0.00     0.084 A 
HETATM   28  C   UNL     1      42.583 -16.885   4.410  1.00  0.00     0.119 A 
HETATM   29  F   UNL     1      42.929 -17.723   5.394  1.00  0.00    -0.206 F 
HETATM   30  C   UNL     1      41.620 -15.905   4.659  1.00  0.00     0.050 A 
ENDBRANCH  12  23
TORSDOF 3
ENDMDL
MODEL 6
REMARK VINA RESULT:      -8.2      3.200      5.056
REMARK  3 active torsions:
REMARK  status: ('A' for Active; 'I' for Inactive)
REMARK    1  A    between atoms: C_4  and  C_5 
REMARK       I    between atoms: C_5  and  N_6 
REMARK    2  A    between atoms: C_16  and  C_17 
REMARK    3  A    between atoms: C_27  and  O_28 
ROOT
HETATM    1  C   UNL     1      41.322 -12.523   4.841  1.00  0.00     0.275 C 
HETATM    2  N   UNL     1      40.940 -13.361   3.784  1.00  0.00    -0.339 N 
HETATM    3  C   UNL     1      41.342 -14.757   3.815  1.00  0.00     0.123 C 
HETATM    4  C   UNL     1      40.591 -15.420   2.635  1.00  0.00     0.221 C 
HETATM    5  N   UNL     1      41.597 -16.170   1.756  1.00  0.00    -0.064 N 
HETATM    6  H   UNL     1      41.104 -16.611   0.968  1.00  0.00     0.280 HD
HETATM    7  C   UNL     1      42.737 -15.331   1.198  1.00  0.00     0.236 C 
HETATM    8  C   UNL     1      43.371 -14.540   2.335  1.00  0.00     0.034 C 
HETATM    9  C   UNL     1      42.855 -15.046   3.690  1.00  0.00     0.014 C 
HETATM   10  C   UNL     1      43.042 -16.581   3.729  1.00  0.00     0.034 C 
HETATM   11  C   UNL     1      42.234 -17.266   2.614  1.00  0.00     0.236 C 
HETATM   12  C   UNL     1      39.692 -14.326   1.994  1.00  0.00     0.070 C 
HETATM   13  C   UNL     1      39.661 -13.242   3.089  1.00  0.00     0.138 C 
HETATM   14  O   UNL     1      42.017 -12.953   5.766  1.00  0.00    -0.266 OA
ENDROOT
BRANCH   1  15
HETATM   15  C   UNL     1      40.887 -11.089   4.889  1.00  0.00     0.157 A 
HETATM   16  N   UNL     1      39.834 -10.785   5.695  1.00  0.00    -0.253 NA
HETATM   17  C   UNL     1      39.451  -9.487   5.724  1.00  0.00     0.117 A 
HETATM   18  C   UNL     1      40.065  -8.482   4.993  1.00  0.00     0.022 A 
HETATM   19  C   UNL     1      41.129  -8.820   4.163  1.00  0.00     0.040 A 
HETATM   20  C   UNL     1      41.543 -10.145   4.094  1.00  0.00     0.100 A 
BRANCH  20  21
HETATM   21  O   UNL     1      42.574 -10.428   3.243  1.00  0.00    -0.358 OA
HETATM   22  H   UNL     1      42.776 -11.387   3.307  1.00  0.00     0.218 HD
ENDBRANCH  20  21
ENDBRANCH   1  15
BRANCH  12  23
HETATM   23  C   UNL     1      40.015 -13.819   0.603  1.00  0.00    -0.044 A 
HETATM   24  C   UNL     1      39.627 -14.585  -0.510  1.00  0.00     0.050 A 
HETATM   25  C   UNL     1      39.901 -14.144  -1.807  1.00  0.00     0.119 A 
HETATM   26  F   UNL     1      39.533 -14.907  -2.843  1.00  0.00    -0.206 F 
HETATM   27  C   UNL     1      40.554 -12.944  -2.037  1.00  0.00     0.084 A 
HETATM   28  C   UNL     1      40.927 -12.177  -0.945  1.00  0.00     0.119 A 
HETATM   29  F   UNL     1      41.570 -11.019  -1.141  1.00  0.00    -0.206 F 
HETATM   30  C   UNL     1      40.665 -12.595   0.361  1.00  0.00     0.050 A 
ENDBRANCH  12  23
TORSDOF 3
ENDMDL
MODEL 7
REMARK VINA RESULT:      -8.0      3.377      5.592
REMARK  3 active torsions:
REMARK  status: ('A' for Active; 'I' for Inactive)
REMARK    1  A    between atoms: C_4  and  C_5 
REMARK       I    between atoms: C_5  and  N_6 
REMARK    2  A    between atoms: C_16  and  C_17 
REMARK    3  A    between atoms: C_27  and  O_28 
ROOT
HETATM    1  C   UNL     1      41.766 -14.568   4.167  1.00  0.00     0.275 C 
HETATM    2  N   UNL     1      41.556 -13.593   3.182  1.00  0.00    -0.339 N 
HETATM    3  C   UNL     1      40.996 -12.311   3.572  1.00  0.00     0.123 C 
HETATM    4  C   UNL     1      41.095 -11.424   2.307  1.00  0.00     0.221 C 
HETATM    5  N   UNL     1      39.720 -10.823   2.005  1.00  0.00    -0.064 N 
HETATM    6  H   UNL     1      39.779 -10.234   1.163  1.00  0.00     0.280 HD
HETATM    7  C   UNL     1      38.591 -11.825   1.808  1.00  0.00     0.236 C 
HETATM    8  C   UNL     1      38.600 -12.811   2.970  1.00  0.00     0.034 C 
HETATM    9  C   UNL     1      39.537 -12.318   4.082  1.00  0.00     0.014 C 
HETATM   10  C   UNL     1      39.152 -10.858   4.418  1.00  0.00     0.034 C 
HETATM   11  C   UNL     1      39.327  -9.943   3.195  1.00  0.00     0.236 C 
HETATM   12  C   UNL     1      41.812 -12.266   1.215  1.00  0.00     0.070 C 
HETATM   13  C   UNL     1      42.447 -13.403   2.039  1.00  0.00     0.138 C 
HETATM   14  O   UNL     1      41.449 -14.357   5.340  1.00  0.00    -0.266 OA
ENDROOT
BRANCH   1  15
HETATM   15  C   UNL     1      42.394 -15.888   3.829  1.00  0.00     0.157 A 
HETATM   16  N   UNL     1      41.914 -16.545   2.739  1.00  0.00    -0.253 NA
HETATM   17  C   UNL     1      42.489 -17.736   2.451  1.00  0.00     0.117 A 
HETATM   18  C   UNL     1      43.515 -18.301   3.192  1.00  0.00     0.022 A 
HETATM   19  C   UNL     1      43.977 -17.618   4.314  1.00  0.00     0.040 A 
HETATM   20  C   UNL     1      43.403 -16.399   4.651  1.00  0.00     0.100 A 
BRANCH  20  21
HETATM   21  O   UNL     1      43.875 -15.784   5.776  1.00  0.00    -0.358 OA
HETATM   22  H   UNL     1      44.585 -16.342   6.163  1.00  0.00     0.218 HD
ENDBRANCH  20  21
ENDBRANCH   1  15
BRANCH  12  23
HETATM   23  C   UNL     1      41.035 -12.719  -0.004  1.00  0.00    -0.044 A 
HETATM   24  C   UNL     1      40.969 -11.873  -1.125  1.00  0.00     0.050 A 
HETATM   25  C   UNL     1      40.268 -12.262  -2.269  1.00  0.00     0.119 A 
HETATM   26  F   UNL     1      40.211 -11.423  -3.311  1.00  0.00    -0.206 F 
HETATM   27  C   UNL     1      39.624 -13.486  -2.338  1.00  0.00     0.084 A 
HETATM   28  C   UNL     1      39.697 -14.332  -1.243  1.00  0.00     0.119 A 
HETATM   29  F   UNL     1      39.073 -15.515  -1.281  1.00  0.00    -0.206 F 
HETATM   30  C   UNL     1      40.391 -13.966  -0.088  1.00  0.00     0.050 A 
ENDBRANCH  12  23
TORSDOF 3
ENDMDL
MODEL 8
REMARK VINA RESULT:      -8.0      3.380      6.407
REMARK  3 active torsions:
REMARK  status: ('A' for Active; 'I' for Inactive)
REMARK    1  A    between atoms: C_4  and  C_5 
REMARK       I    between atoms: C_5  and  N_6 
REMARK    2  A    between atoms: C_16  and  C_17 
REMARK    3  A    between atoms: C_27  and  O_28 
ROOT
HETATM    1  C   UNL     1      40.127 -14.207   0.539  1.00  0.00     0.275 C 
HETATM    2  N   UNL     1      41.207 -14.119   1.428  1.00  0.00    -0.339 N 
HETATM    3  C   UNL     1      41.991 -15.311   1.700  1.00  0.00     0.123 C 
HETATM    4  C   UNL     1      43.199 -14.819   2.535  1.00  0.00     0.221 C 
HETATM    5  N   UNL     1      43.300 -15.655   3.814  1.00  0.00    -0.064 N 
HETATM    6  H   UNL     1      44.100 -15.330   4.375  1.00  0.00     0.280 HD
HETATM    7  C   UNL     1      42.063 -15.654   4.701  1.00  0.00     0.236 C 
HETATM    8  C   UNL     1      40.843 -15.969   3.845  1.00  0.00     0.034 C 
HETATM    9  C   UNL     1      41.277 -16.454   2.454  1.00  0.00     0.014 C 
HETATM   10  C   UNL     1      42.300 -17.599   2.646  1.00  0.00     0.034 C 
HETATM   11  C   UNL     1      43.546 -17.107   3.400  1.00  0.00     0.236 C 
HETATM   12  C   UNL     1      43.077 -13.273   2.646  1.00  0.00     0.070 C 
HETATM   13  C   UNL     1      42.066 -12.942   1.531  1.00  0.00     0.138 C 
HETATM   14  O   UNL     1      39.824 -15.286   0.021  1.00  0.00    -0.266 OA
ENDROOT
BRANCH   1  15
HETATM   15  C   UNL     1      39.319 -12.997   0.178  1.00  0.00     0.157 A 
HETATM   16  N   UNL     1      38.755 -12.299   1.200  1.00  0.00    -0.253 NA
HETATM   17  C   UNL     1      38.025 -11.211   0.857  1.00  0.00     0.117 A 
HETATM   18  C   UNL     1      37.832 -10.787  -0.449  1.00  0.00     0.022 A 
HETATM   19  C   UNL     1      38.405 -11.528  -1.478  1.00  0.00     0.040 A 
HETATM   20  C   UNL     1      39.149 -12.659  -1.168  1.00  0.00     0.100 A 
BRANCH  20  21
HETATM   21  O   UNL     1      39.667 -13.366  -2.217  1.00  0.00    -0.358 OA
HETATM   22  H   UNL     1      40.386 -13.944  -1.879  1.00  0.00     0.218 HD
ENDBRANCH  20  21
ENDBRANCH   1  15
BRANCH  12  23
HETATM   23  C   UNL     1      42.772 -12.646   3.991  1.00  0.00    -0.044 A 
HETATM   24  C   UNL     1      43.833 -12.357   4.867  1.00  0.00     0.050 A 
HETATM   25  C   UNL     1      43.589 -11.772   6.111  1.00  0.00     0.119 A 
HETATM   26  F   UNL     1      44.622 -11.527   6.926  1.00  0.00    -0.206 F 
HETATM   27  C   UNL     1      42.304 -11.454   6.518  1.00  0.00     0.084 A 
HETATM   28  C   UNL     1      41.254 -11.723   5.655  1.00  0.00     0.119 A 
HETATM   29  F   UNL     1      40.002 -11.436   6.031  1.00  0.00    -0.206 F 
HETATM   30  C   UNL     1      41.471 -12.308   4.406  1.00  0.00     0.050 A 
ENDBRANCH  12  23
TORSDOF 3
ENDMDL
MODEL 9
REMARK VINA RESULT:      -7.9     16.162     17.535
REMARK  3 active torsions:
REMARK  status: ('A' for Active; 'I' for Inactive)
REMARK    1  A    between atoms: C_4  and  C_5 
REMARK       I    between atoms: C_5  and  N_6 
REMARK    2  A    between atoms: C_16  and  C_17 
REMARK    3  A    between atoms: C_27  and  O_28 
ROOT
HETATM    1  C   UNL     1      48.294 -29.596   0.102  1.00  0.00     0.275 C 
HETATM    2  N   UNL     1      47.094 -30.234  -0.242  1.00  0.00    -0.339 N 
HETATM    3  C   UNL     1      46.640 -30.177  -1.621  1.00  0.00     0.123 C 
HETATM    4  C   UNL     1      45.427 -31.138  -1.687  1.00  0.00     0.221 C 
HETATM    5  N   UNL     1      44.232 -30.399  -2.296  1.00  0.00    -0.064 N 
HETATM    6  H   UNL     1      43.423 -31.033  -2.340  1.00  0.00     0.280 HD
HETATM    7  C   UNL     1      43.807 -29.129  -1.574  1.00  0.00     0.236 C 
HETATM    8  C   UNL     1      45.033 -28.253  -1.351  1.00  0.00     0.034 C 
HETATM    9  C   UNL     1      46.225 -28.789  -2.158  1.00  0.00     0.014 C 
HETATM   10  C   UNL     1      45.765 -28.974  -3.624  1.00  0.00     0.034 C 
HETATM   11  C   UNL     1      44.616 -29.991  -3.720  1.00  0.00     0.236 C 
HETATM   12  C   UNL     1      45.283 -31.788  -0.282  1.00  0.00     0.070 C 
HETATM   13  C   UNL     1      46.652 -31.489   0.361  1.00  0.00     0.138 C 
HETATM   14  O   UNL     1      48.938 -28.968  -0.743  1.00  0.00    -0.266 OA
ENDROOT
BRANCH   1  15
HETATM   15  C   UNL     1      48.839 -29.671   1.497  1.00  0.00     0.157 A 
HETATM   16  N   UNL     1      49.892 -30.505   1.709  1.00  0.00    -0.253 NA
HETATM   17  C   UNL     1      50.370 -30.564   2.975  1.00  0.00     0.117 A 
HETATM   18  C   UNL     1      49.851 -29.834   4.033  1.00  0.00     0.022 A 
HETATM   19  C   UNL     1      48.763 -29.000   3.795  1.00  0.00     0.040 A 
HETATM   20  C   UNL     1      48.235 -28.924   2.512  1.00  0.00     0.100 A 
BRANCH  20  21
HETATM   21  O   UNL     1      47.149 -28.111   2.337  1.00  0.00    -0.358 OA
HETATM   22  H   UNL     1      46.503 -28.575   1.760  1.00  0.00     0.218 HD
ENDBRANCH  20  21
ENDBRANCH   1  15
BRANCH  12  23
HETATM   23  C   UNL     1      44.085 -31.441   0.577  1.00  0.00    -0.044 A 
HETATM   24  C   UNL     1      44.197 -30.404   1.520  1.00  0.00     0.050 A 
HETATM   25  C   UNL     1      43.110 -30.052   2.323  1.00  0.00     0.119 A 
HETATM   26  F   UNL     1      43.259 -29.072   3.222  1.00  0.00    -0.206 F 
HETATM   27  C   UNL     1      41.893 -30.705   2.215  1.00  0.00     0.084 A 
HETATM   28  C   UNL     1      41.770 -31.718   1.278  1.00  0.00     0.119 A 
HETATM   29  F   UNL     1      40.608 -32.371   1.163  1.00  0.00    -0.206 F 
HETATM   30  C   UNL     1      42.842 -32.089   0.463  1.00  0.00     0.050 A 
ENDBRANCH  12  23
TORSDOF 3
ENDMDL
MODEL 10
REMARK VINA RESULT:      -7.9      3.099      6.284
REMARK  3 active torsions:
REMARK  status: ('A' for Active; 'I' for Inactive)
REMARK    1  A    between atoms: C_4  and  C_5 
REMARK       I    between atoms: C_5  and  N_6 
REMARK    2  A    between atoms: C_16  and  C_17 
REMARK    3  A    between atoms: C_27  and  O_28 
ROOT
HETATM    1  C   UNL     1      40.742 -13.328   3.214  1.00  0.00     0.275 C 
HETATM    2  N   UNL     1      41.062 -12.666   4.407  1.00  0.00    -0.339 N 
HETATM    3  C   UNL     1      40.206 -11.583   4.860  1.00  0.00     0.123 C 
HETATM    4  C   UNL     1      40.717 -11.229   6.278  1.00  0.00     0.221 C 
HETATM    5  N   UNL     1      40.996  -9.725   6.351  1.00  0.00    -0.064 N 
HETATM    6  H   UNL     1      41.339  -9.485   7.291  1.00  0.00     0.280 HD
HETATM    7  C   UNL     1      41.987  -9.188   5.329  1.00  0.00     0.236 C 
HETATM    8  C   UNL     1      41.584  -9.680   3.945  1.00  0.00     0.034 C 
HETATM    9  C   UNL     1      40.182 -10.307   3.989  1.00  0.00     0.014 C 
HETATM   10  C   UNL     1      39.228  -9.296   4.667  1.00  0.00     0.034 C 
HETATM   11  C   UNL     1      39.672  -8.997   6.108  1.00  0.00     0.236 C 
HETATM   12  C   UNL     1      41.859 -12.230   6.614  1.00  0.00     0.070 C 
HETATM   13  C   UNL     1      41.643 -13.339   5.566  1.00  0.00     0.138 C 
HETATM   14  O   UNL     1      39.770 -12.976   2.539  1.00  0.00    -0.266 OA
ENDROOT
BRANCH   1  15
HETATM   15  C   UNL     1      41.557 -14.489   2.729  1.00  0.00     0.157 A 
HETATM   16  N   UNL     1      42.776 -14.212   2.193  1.00  0.00    -0.253 NA
HETATM   17  C   UNL     1      43.499 -15.271   1.756  1.00  0.00     0.117 A 
HETATM   18  C   UNL     1      43.066 -16.586   1.828  1.00  0.00     0.022 A 
HETATM   19  C   UNL     1      41.808 -16.843   2.364  1.00  0.00     0.040 A 
HETATM   20  C   UNL     1      41.031 -15.781   2.810  1.00  0.00     0.100 A 
BRANCH  20  21
HETATM   21  O   UNL     1      39.792 -16.086   3.302  1.00  0.00    -0.358 OA
HETATM   22  H   UNL     1      39.244 -15.270   3.293  1.00  0.00     0.218 HD
ENDBRANCH  20  21
ENDBRANCH   1  15
BRANCH  12  23
HETATM   23  C   UNL     1      43.282 -11.724   6.724  1.00  0.00    -0.044 A 
HETATM   24  C   UNL     1      43.731 -11.206   7.952  1.00  0.00     0.050 A 
HETATM   25  C   UNL     1      45.039 -10.738   8.091  1.00  0.00     0.119 A 
HETATM   26  F   UNL     1      45.426 -10.235   9.269  1.00  0.00    -0.206 F 
HETATM   27  C   UNL     1      45.933 -10.774   7.034  1.00  0.00     0.084 A 
HETATM   28  C   UNL     1      45.504 -11.296   5.824  1.00  0.00     0.119 A 
HETATM   29  F   UNL     1      46.346 -11.330   4.785  1.00  0.00    -0.206 F 
HETATM   30  C   UNL     1      44.201 -11.769   5.660  1.00  0.00     0.050 A 
ENDBRANCH  12  23
TORSDOF 3
ENDMDL
