MODEL 1
REMARK VINA RESULT:      -8.7      0.000      0.000
REMARK  6 active torsions:
REMARK  status: ('A' for Active; 'I' for Inactive)
REMARK    1  A    between atoms: N_4  and  C_5 
REMARK    2  A    between atoms: C_13  and  C_14 
REMARK       I    between atoms: C_14  and  N_15 
REMARK    3  A    between atoms: N_15  and  C_16 
REMARK    4  A    between atoms: C_16  and  C_17 
REMARK    5  A    between atoms: C_17  and  O_18 
REMARK    6  A    between atoms: C_17  and  C_19 
ROOT
HETATM    1  C   UNL     1      42.412 -13.510   3.682  1.00  0.00     0.257 C 
HETATM    2  N   UNL     1      41.047 -13.364   3.642  1.00  0.00    -0.354 N 
HETATM    3  O   UNL     1      43.170 -12.573   3.450  1.00  0.00    -0.267 OA
HETATM    4  H   UNL     1      40.460 -14.106   4.006  1.00  0.00     0.162 HD
ENDROOT
BRANCH   1   5
HETATM    5  C   UNL     1      42.909 -14.828   4.053  1.00  0.00     0.098 C 
HETATM    6  C   UNL     1      43.357 -15.229   5.341  1.00  0.00     0.070 C 
HETATM    7  C   UNL     1      43.408 -14.418   6.586  1.00  0.00     0.073 C 
HETATM    8  N   UNL     1      43.789 -16.493   5.362  1.00  0.00    -0.170 NA
HETATM    9  N   UNL     1      43.540 -16.982   4.113  1.00  0.00    -0.221 N 
HETATM   10  C   UNL     1      43.110 -15.957   3.284  1.00  0.00     0.145 C 
HETATM   11 CL   UNL     1      43.030 -16.128   1.581  1.00  0.00    -0.061 Cl
BRANCH   9  12
HETATM   12  C   UNL     1      43.718 -18.383   3.887  1.00  0.00     0.060 A 
HETATM   13  C   UNL     1      43.510 -18.980   2.638  1.00  0.00     0.031 A 
HETATM   14  C   UNL     1      43.682 -20.360   2.477  1.00  0.00     0.002 A 
HETATM   15  C   UNL     1      44.048 -21.156   3.558  1.00  0.00     0.000 A 
HETATM   16  C   UNL     1      44.235 -20.579   4.811  1.00  0.00     0.002 A 
HETATM   17  C   UNL     1      44.064 -19.203   4.977  1.00  0.00     0.031 A 
ENDBRANCH   9  12
ENDBRANCH   1   5
BRANCH   2  18
HETATM   18  C   UNL     1      40.423 -12.060   3.489  1.00  0.00     0.159 C 
BRANCH  18  19
HETATM   19  C   UNL     1      39.293 -12.055   2.444  1.00  0.00     0.169 C 
BRANCH  19  20
HETATM   20  O   UNL     1      38.380 -13.120   2.732  1.00  0.00    -0.389 OA
HETATM   21  H   UNL     1      37.708 -13.112   2.026  1.00  0.00     0.210 HD
ENDBRANCH  19  20
BRANCH  19  22
HETATM   22  C   UNL     1      39.798 -12.143   1.016  1.00  0.00    -0.025 A 
HETATM   23  C   UNL     1      39.683 -13.320   0.259  1.00  0.00     0.053 A 
HETATM   24  C   UNL     1      40.167 -13.369  -1.047  1.00  0.00     0.138 A 
HETATM   25  F   UNL     1      40.026 -14.508  -1.741  1.00  0.00    -0.204 F 
HETATM   26  C   UNL     1      40.779 -12.258  -1.620  1.00  0.00     0.072 A 
HETATM   27 CL   UNL     1      41.373 -12.313  -3.234  1.00  0.00    -0.081 Cl
HETATM   28  C   UNL     1      40.912 -11.085  -0.879  1.00  0.00     0.028 A 
HETATM   29  C   UNL     1      40.425 -11.028   0.432  1.00  0.00     0.012 A 
ENDBRANCH  19  22
ENDBRANCH  18  19
ENDBRANCH   2  18
TORSDOF 6
ENDMDL
MODEL 2
REMARK VINA RESULT:      -8.7      3.966      7.881
REMARK  6 active torsions:
REMARK  status: ('A' for Active; 'I' for Inactive)
REMARK    1  A    between atoms: N_4  and  C_5 
REMARK    2  A    between atoms: C_13  and  C_14 
REMARK       I    between atoms: C_14  and  N_15 
REMARK    3  A    between atoms: N_15  and  C_16 
REMARK    4  A    between atoms: C_16  and  C_17 
REMARK    5  A    between atoms: C_17  and  O_18 
REMARK    6  A    between atoms: C_17  and  C_19 
ROOT
HETATM    1  C   UNL     1      41.506 -13.532   4.944  1.00  0.00     0.257 C 
HETATM    2  N   UNL     1      41.986 -13.599   3.660  1.00  0.00    -0.354 N 
HETATM    3  O   UNL     1      40.736 -14.376   5.393  1.00  0.00    -0.267 OA
HETATM    4  H   UNL     1      42.748 -12.990   3.384  1.00  0.00     0.162 HD
ENDROOT
BRANCH   1   5
HETATM    5  C   UNL     1      41.992 -12.425   5.758  1.00  0.00     0.098 C 
HETATM    6  C   UNL     1      41.379 -11.151   5.900  1.00  0.00     0.070 C 
HETATM    7  C   UNL     1      40.118 -10.665   5.277  1.00  0.00     0.073 C 
HETATM    8  N   UNL     1      42.080 -10.331   6.688  1.00  0.00    -0.170 NA
HETATM    9  N   UNL     1      43.116 -11.081   7.161  1.00  0.00    -0.221 N 
HETATM   10  C   UNL     1      43.135 -12.312   6.523  1.00  0.00     0.145 C 
HETATM   11 CL   UNL     1      44.478 -13.371   6.615  1.00  0.00    -0.061 Cl
BRANCH   9  12
HETATM   12  C   UNL     1      43.938 -10.526   8.191  1.00  0.00     0.060 A 
HETATM   13  C   UNL     1      43.591 -10.579   9.547  1.00  0.00     0.031 A 
HETATM   14  C   UNL     1      44.422 -10.003  10.513  1.00  0.00     0.002 A 
HETATM   15  C   UNL     1      45.599  -9.359  10.139  1.00  0.00     0.000 A 
HETATM   16  C   UNL     1      45.944  -9.277   8.793  1.00  0.00     0.002 A 
HETATM   17  C   UNL     1      45.116  -9.849   7.825  1.00  0.00     0.031 A 
ENDBRANCH   9  12
ENDBRANCH   1   5
BRANCH   2  18
HETATM   18  C   UNL     1      41.745 -14.757   2.816  1.00  0.00     0.159 C 
BRANCH  18  19
HETATM   19  C   UNL     1      43.044 -15.409   2.306  1.00  0.00     0.169 C 
BRANCH  19  20
HETATM   20  O   UNL     1      42.947 -15.611   0.892  1.00  0.00    -0.389 OA
HETATM   21  H   UNL     1      42.422 -16.421   0.760  1.00  0.00     0.210 HD
ENDBRANCH  19  20
BRANCH  19  22
HETATM   22  C   UNL     1      43.382 -16.705   3.019  1.00  0.00    -0.025 A 
HETATM   23  C   UNL     1      43.408 -17.937   2.345  1.00  0.00     0.053 A 
HETATM   24  C   UNL     1      43.713 -19.110   3.033  1.00  0.00     0.138 A 
HETATM   25  F   UNL     1      43.741 -20.265   2.350  1.00  0.00    -0.204 F 
HETATM   26  C   UNL     1      43.988 -19.084   4.397  1.00  0.00     0.072 A 
HETATM   27 CL   UNL     1      44.369 -20.529   5.248  1.00  0.00    -0.081 Cl
HETATM   28  C   UNL     1      43.954 -17.871   5.084  1.00  0.00     0.028 A 
HETATM   29  C   UNL     1      43.652 -16.689   4.398  1.00  0.00     0.012 A 
ENDBRANCH  19  22
ENDBRANCH  18  19
ENDBRANCH   2  18
TORSDOF 6
ENDMDL
MODEL 3
REMARK VINA RESULT:      -8.6      5.547      7.826
REMARK  6 active torsions:
REMARK  status: ('A' for Active; 'I' for Inactive)
REMARK    1  A    between atoms: N_4  and  C_5 
REMARK    2  A    between atoms: C_13  and  C_14 
REMARK       I    between atoms: C_14  and  N_15 
REMARK    3  A    between atoms: N_15  and  C_16 
REMARK    4  A    between atoms: C_16  and  C_17 
REMARK    5  A    between atoms: C_17  and  O_18 
REMARK    6  A    between atoms: C_17  and  C_19 
ROOT
HETATM    1  C   UNL     1      42.038 -12.708   5.749  1.00  0.00     0.257 C 
HETATM    2  N   UNL     1      43.069 -12.079   6.403  1.00  0.00    -0.354 N 
HETATM    3  O   UNL     1      40.874 -12.337   5.869  1.00  0.00    -0.267 OA
HETATM    4  H   UNL     1      44.025 -12.300   6.145  1.00  0.00     0.162 HD
ENDROOT
BRANCH   1   5
HETATM    5  C   UNL     1      42.406 -13.813   4.875  1.00  0.00     0.098 C 
HETATM    6  C   UNL     1      42.895 -13.710   3.544  1.00  0.00     0.070 C 
HETATM    7  C   UNL     1      43.151 -12.475   2.755  1.00  0.00     0.073 C 
HETATM    8  N   UNL     1      43.111 -14.903   2.985  1.00  0.00    -0.170 NA
HETATM    9  N   UNL     1      42.867 -15.816   3.969  1.00  0.00    -0.221 N 
HETATM   10  C   UNL     1      42.337 -15.177   5.080  1.00  0.00     0.145 C 
HETATM   11 CL   UNL     1      41.602 -16.036   6.367  1.00  0.00    -0.061 Cl
BRANCH   9  12
HETATM   12  C   UNL     1      43.206 -17.183   3.724  1.00  0.00     0.060 A 
HETATM   13  C   UNL     1      43.941 -17.955   4.631  1.00  0.00     0.031 A 
HETATM   14  C   UNL     1      44.261 -19.284   4.333  1.00  0.00     0.002 A 
HETATM   15  C   UNL     1      43.863 -19.851   3.125  1.00  0.00     0.000 A 
HETATM   16  C   UNL     1      43.152 -19.088   2.203  1.00  0.00     0.002 A 
HETATM   17  C   UNL     1      42.832 -17.761   2.496  1.00  0.00     0.031 A 
ENDBRANCH   9  12
ENDBRANCH   1   5
BRANCH   2  18
HETATM   18  C   UNL     1      42.866 -10.842   7.138  1.00  0.00     0.159 C 
BRANCH  18  19
HETATM   19  C   UNL     1      44.137 -10.356   7.856  1.00  0.00     0.169 C 
BRANCH  19  20
HETATM   20  O   UNL     1      45.088 -11.425   7.909  1.00  0.00    -0.389 OA
HETATM   21  H   UNL     1      45.897 -11.102   7.474  1.00  0.00     0.210 HD
ENDBRANCH  19  20
BRANCH  19  22
HETATM   22  C   UNL     1      43.866  -9.802   9.242  1.00  0.00    -0.025 A 
HETATM   23  C   UNL     1      43.770 -10.635  10.369  1.00  0.00     0.053 A 
HETATM   24  C   UNL     1      43.510 -10.093  11.626  1.00  0.00     0.138 A 
HETATM   25  F   UNL     1      43.440 -10.921  12.680  1.00  0.00    -0.204 F 
HETATM   26  C   UNL     1      43.332  -8.722  11.787  1.00  0.00     0.072 A 
HETATM   27 CL   UNL     1      43.015  -8.049  13.338  1.00  0.00    -0.081 Cl
HETATM   28  C   UNL     1      43.411  -7.882  10.677  1.00  0.00     0.028 A 
HETATM   29  C   UNL     1      43.676  -8.419   9.412  1.00  0.00     0.012 A 
ENDBRANCH  19  22
ENDBRANCH  18  19
ENDBRANCH   2  18
TORSDOF 6
ENDMDL
MODEL 4
REMARK VINA RESULT:      -8.6      4.882      7.122
REMARK  6 active torsions:
REMARK  status: ('A' for Active; 'I' for Inactive)
REMARK    1  A    between atoms: N_4  and  C_5 
REMARK    2  A    between atoms: C_13  and  C_14 
REMARK       I    between atoms: C_14  and  N_15 
REMARK    3  A    between atoms: N_15  and  C_16 
REMARK    4  A    between atoms: C_16  and  C_17 
REMARK    5  A    between atoms: C_17  and  O_18 
REMARK    6  A    between atoms: C_17  and  C_19 
ROOT
HETATM    1  C   UNL     1      42.628 -13.691   5.610  1.00  0.00     0.257 C 
HETATM    2  N   UNL     1      43.500 -12.888   6.303  1.00  0.00    -0.354 N 
HETATM    3  O   UNL     1      41.617 -13.241   5.078  1.00  0.00    -0.267 OA
HETATM    4  H   UNL     1      44.403 -13.259   6.576  1.00  0.00     0.162 HD
ENDROOT
BRANCH   1   5
HETATM    5  C   UNL     1      42.989 -15.098   5.508  1.00  0.00     0.098 C 
HETATM    6  C   UNL     1      43.219 -15.991   6.590  1.00  0.00     0.070 C 
HETATM    7  C   UNL     1      43.133 -15.705   8.048  1.00  0.00     0.073 C 
HETATM    8  N   UNL     1      43.569 -17.212   6.180  1.00  0.00    -0.170 NA
HETATM    9  N   UNL     1      43.478 -17.179   4.820  1.00  0.00    -0.221 N 
HETATM   10  C   UNL     1      43.235 -15.881   4.398  1.00  0.00     0.145 C 
HETATM   11 CL   UNL     1      43.396 -15.405   2.760  1.00  0.00    -0.061 Cl
BRANCH   9  12
HETATM   12  C   UNL     1      43.607 -18.409   4.102  1.00  0.00     0.060 A 
HETATM   13  C   UNL     1      43.306 -18.526   2.740  1.00  0.00     0.031 A 
HETATM   14  C   UNL     1      43.431 -19.758   2.091  1.00  0.00     0.002 A 
HETATM   15  C   UNL     1      43.845 -20.887   2.793  1.00  0.00     0.000 A 
HETATM   16  C   UNL     1      44.124 -20.791   4.153  1.00  0.00     0.002 A 
HETATM   17  C   UNL     1      43.999 -19.563   4.806  1.00  0.00     0.031 A 
ENDBRANCH   9  12
ENDBRANCH   1   5
BRANCH   2  18
HETATM   18  C   UNL     1      43.367 -11.440   6.304  1.00  0.00     0.159 C 
BRANCH  18  19
HETATM   19  C   UNL     1      44.582 -10.727   6.925  1.00  0.00     0.169 C 
BRANCH  19  20
HETATM   20  O   UNL     1      45.687 -11.637   6.977  1.00  0.00    -0.389 OA
HETATM   21  H   UNL     1      45.699 -12.012   7.876  1.00  0.00     0.210 HD
ENDBRANCH  19  20
BRANCH  19  22
HETATM   22  C   UNL     1      44.296 -10.141   8.295  1.00  0.00    -0.025 A 
HETATM   23  C   UNL     1      43.063  -9.544   8.604  1.00  0.00     0.053 A 
HETATM   24  C   UNL     1      42.838  -9.007   9.870  1.00  0.00     0.138 A 
HETATM   25  F   UNL     1      41.641  -8.457  10.130  1.00  0.00    -0.204 F 
HETATM   26  C   UNL     1      43.830  -9.043  10.845  1.00  0.00     0.072 A 
HETATM   27 CL   UNL     1      43.554  -8.385  12.410  1.00  0.00    -0.081 Cl
HETATM   28  C   UNL     1      45.064  -9.621  10.551  1.00  0.00     0.028 A 
HETATM   29  C   UNL     1      45.296 -10.166   9.283  1.00  0.00     0.012 A 
ENDBRANCH  19  22
ENDBRANCH  18  19
ENDBRANCH   2  18
TORSDOF 6
ENDMDL
MODEL 5
REMARK VINA RESULT:      -8.4      5.939      9.386
REMARK  6 active torsions:
REMARK  status: ('A' for Active; 'I' for Inactive)
REMARK    1  A    between atoms: N_4  and  C_5 
REMARK    2  A    between atoms: C_13  and  C_14 
REMARK       I    between atoms: C_14  and  N_15 
REMARK    3  A    between atoms: N_15  and  C_16 
REMARK    4  A    between atoms: C_16  and  C_17 
REMARK    5  A    between atoms: C_17  and  O_18 
REMARK    6  A    between atoms: C_17  and  C_19 
ROOT
HETATM    1  C   UNL     1      43.973 -11.136   7.629  1.00  0.00     0.257 C 
HETATM    2  N   UNL     1      43.547 -12.440   7.568  1.00  0.00    -0.354 N 
HETATM    3  O   UNL     1      44.800 -10.688   6.840  1.00  0.00    -0.267 OA
HETATM    4  H   UNL     1      42.743 -12.723   8.118  1.00  0.00     0.162 HD
ENDROOT
BRANCH   1   5
HETATM    5  C   UNL     1      43.361 -10.304   8.656  1.00  0.00     0.098 C 
HETATM    6  C   UNL     1      42.173  -9.536   8.522  1.00  0.00     0.070 C 
HETATM    7  C   UNL     1      41.289  -9.416   7.331  1.00  0.00     0.073 C 
HETATM    8  N   UNL     1      41.882  -8.847   9.628  1.00  0.00    -0.170 NA
HETATM    9  N   UNL     1      42.815  -9.226  10.548  1.00  0.00    -0.221 N 
HETATM   10  C   UNL     1      43.776 -10.021   9.942  1.00  0.00     0.145 C 
HETATM   11 CL   UNL     1      45.265 -10.396  10.700  1.00  0.00    -0.061 Cl
BRANCH   9  12
HETATM   12  C   UNL     1      42.643  -8.798  11.902  1.00  0.00     0.060 A 
HETATM   13  C   UNL     1      43.408  -7.775  12.474  1.00  0.00     0.031 A 
HETATM   14  C   UNL     1      43.212  -7.408  13.810  1.00  0.00     0.002 A 
HETATM   15  C   UNL     1      42.263  -8.065  14.590  1.00  0.00     0.000 A 
HETATM   16  C   UNL     1      41.513  -9.100  14.041  1.00  0.00     0.002 A 
HETATM   17  C   UNL     1      41.706  -9.471  12.708  1.00  0.00     0.031 A 
ENDBRANCH   9  12
ENDBRANCH   1   5
BRANCH   2  18
HETATM   18  C   UNL     1      43.921 -13.315   6.470  1.00  0.00     0.159 C 
BRANCH  18  19
HETATM   19  C   UNL     1      42.722 -13.725   5.595  1.00  0.00     0.169 C 
BRANCH  19  20
HETATM   20  O   UNL     1      41.558 -13.849   6.420  1.00  0.00    -0.389 OA
HETATM   21  H   UNL     1      40.871 -13.284   6.021  1.00  0.00     0.210 HD
ENDBRANCH  19  20
BRANCH  19  22
HETATM   22  C   UNL     1      42.966 -14.997   4.805  1.00  0.00    -0.025 A 
HETATM   23  C   UNL     1      42.963 -15.010   3.401  1.00  0.00     0.053 A 
HETATM   24  C   UNL     1      43.180 -16.198   2.706  1.00  0.00     0.138 A 
HETATM   25  F   UNL     1      43.183 -16.166   1.365  1.00  0.00    -0.204 F 
HETATM   26  C   UNL     1      43.395 -17.392   3.389  1.00  0.00     0.072 A 
HETATM   27 CL   UNL     1      43.669 -18.860   2.535  1.00  0.00    -0.081 Cl
HETATM   28  C   UNL     1      43.389 -17.399   4.783  1.00  0.00     0.028 A 
HETATM   29  C   UNL     1      43.175 -16.208   5.487  1.00  0.00     0.012 A 
ENDBRANCH  19  22
ENDBRANCH  18  19
ENDBRANCH   2  18
TORSDOF 6
ENDMDL
MODEL 6
REMARK VINA RESULT:      -8.2      1.957      2.279
REMARK  6 active torsions:
REMARK  status: ('A' for Active; 'I' for Inactive)
REMARK    1  A    between atoms: N_4  and  C_5 
REMARK    2  A    between atoms: C_13  and  C_14 
REMARK       I    between atoms: C_14  and  N_15 
REMARK    3  A    between atoms: N_15  and  C_16 
REMARK    4  A    between atoms: C_16  and  C_17 
REMARK    5  A    between atoms: C_17  and  O_18 
REMARK    6  A    between atoms: C_17  and  C_19 
ROOT
HETATM    1  C   UNL     1      41.080 -12.621   3.163  1.00  0.00     0.257 C 
HETATM    2  N   UNL     1      40.076 -12.589   2.228  1.00  0.00    -0.354 N 
HETATM    3  O   UNL     1      41.576 -11.593   3.618  1.00  0.00    -0.267 OA
HETATM    4  H   UNL     1      39.577 -13.444   2.008  1.00  0.00     0.162 HD
ENDROOT
BRANCH   1   5
HETATM    5  C   UNL     1      41.498 -13.941   3.616  1.00  0.00     0.098 C 
HETATM    6  C   UNL     1      41.134 -14.568   4.839  1.00  0.00     0.070 C 
HETATM    7  C   UNL     1      40.248 -14.040   5.911  1.00  0.00     0.073 C 
HETATM    8  N   UNL     1      41.705 -15.766   4.989  1.00  0.00    -0.170 NA
HETATM    9  N   UNL     1      42.376 -15.997   3.824  1.00  0.00    -0.221 N 
HETATM   10  C   UNL     1      42.348 -14.859   3.033  1.00  0.00     0.145 C 
HETATM   11 CL   UNL     1      43.363 -14.669   1.665  1.00  0.00    -0.061 Cl
BRANCH   9  12
HETATM   12  C   UNL     1      42.931 -17.297   3.610  1.00  0.00     0.060 A 
HETATM   13  C   UNL     1      42.751 -18.010   2.419  1.00  0.00     0.031 A 
HETATM   14  C   UNL     1      43.301 -19.287   2.268  1.00  0.00     0.002 A 
HETATM   15  C   UNL     1      44.024 -19.871   3.306  1.00  0.00     0.000 A 
HETATM   16  C   UNL     1      44.191 -19.184   4.504  1.00  0.00     0.002 A 
HETATM   17  C   UNL     1      43.642 -17.909   4.659  1.00  0.00     0.031 A 
ENDBRANCH   9  12
ENDBRANCH   1   5
BRANCH   2  18
HETATM   18  C   UNL     1      39.428 -11.345   1.846  1.00  0.00     0.159 C 
BRANCH  18  19
HETATM   19  C   UNL     1      39.802 -10.886   0.425  1.00  0.00     0.169 C 
BRANCH  19  20
HETATM   20  O   UNL     1      39.221  -9.601   0.177  1.00  0.00    -0.389 OA
HETATM   21  H   UNL     1      39.958  -8.987   0.009  1.00  0.00     0.210 HD
ENDBRANCH  19  20
BRANCH  19  22
HETATM   22  C   UNL     1      39.403 -11.880  -0.649  1.00  0.00    -0.025 A 
HETATM   23  C   UNL     1      40.355 -12.638  -1.349  1.00  0.00     0.053 A 
HETATM   24  C   UNL     1      39.954 -13.536  -2.337  1.00  0.00     0.138 A 
HETATM   25  F   UNL     1      40.893 -14.252  -2.973  1.00  0.00    -0.204 F 
HETATM   26  C   UNL     1      38.607 -13.689  -2.653  1.00  0.00     0.072 A 
HETATM   27 CL   UNL     1      38.107 -14.799  -3.869  1.00  0.00    -0.081 Cl
HETATM   28  C   UNL     1      37.649 -12.934  -1.977  1.00  0.00     0.028 A 
HETATM   29  C   UNL     1      38.046 -12.035  -0.981  1.00  0.00     0.012 A 
ENDBRANCH  19  22
ENDBRANCH  18  19
ENDBRANCH   2  18
TORSDOF 6
ENDMDL
MODEL 7
REMARK VINA RESULT:      -8.2      7.073      9.756
REMARK  6 active torsions:
REMARK  status: ('A' for Active; 'I' for Inactive)
REMARK    1  A    between atoms: N_4  and  C_5 
REMARK    2  A    between atoms: C_13  and  C_14 
REMARK       I    between atoms: C_14  and  N_15 
REMARK    3  A    between atoms: N_15  and  C_16 
REMARK    4  A    between atoms: C_16  and  C_17 
REMARK    5  A    between atoms: C_17  and  O_18 
REMARK    6  A    between atoms: C_17  and  C_19 
ROOT
HETATM    1  C   UNL     1      42.593 -10.118   7.335  1.00  0.00     0.257 C 
HETATM    2  N   UNL     1      43.013 -10.488   8.589  1.00  0.00    -0.354 N 
HETATM    3  O   UNL     1      42.510  -8.939   7.001  1.00  0.00    -0.267 OA
HETATM    4  H   UNL     1      43.234 -11.461   8.769  1.00  0.00     0.162 HD
ENDROOT
BRANCH   1   5
HETATM    5  C   UNL     1      42.290 -11.202   6.410  1.00  0.00     0.098 C 
HETATM    6  C   UNL     1      41.033 -11.462   5.798  1.00  0.00     0.070 C 
HETATM    7  C   UNL     1      39.766 -10.697   5.947  1.00  0.00     0.073 C 
HETATM    8  N   UNL     1      41.056 -12.550   5.024  1.00  0.00    -0.170 NA
HETATM    9  N   UNL     1      42.354 -12.971   5.029  1.00  0.00    -0.221 N 
HETATM   10  C   UNL     1      43.084 -12.231   5.946  1.00  0.00     0.145 C 
HETATM   11 CL   UNL     1      44.650 -12.699   6.462  1.00  0.00    -0.061 Cl
BRANCH   9  12
HETATM   12  C   UNL     1      42.730 -14.013   4.124  1.00  0.00     0.060 A 
HETATM   13  C   UNL     1      43.037 -13.773   2.780  1.00  0.00     0.031 A 
HETATM   14  C   UNL     1      43.382 -14.832   1.933  1.00  0.00     0.002 A 
HETATM   15  C   UNL     1      43.412 -16.139   2.413  1.00  0.00     0.000 A 
HETATM   16  C   UNL     1      43.086 -16.394   3.742  1.00  0.00     0.002 A 
HETATM   17  C   UNL     1      42.740 -15.340   4.591  1.00  0.00     0.031 A 
ENDBRANCH   9  12
ENDBRANCH   1   5
BRANCH   2  18
HETATM   18  C   UNL     1      43.540  -9.518   9.534  1.00  0.00     0.159 C 
BRANCH  18  19
HETATM   19  C   UNL     1      43.882 -10.138  10.901  1.00  0.00     0.169 C 
BRANCH  19  20
HETATM   20  O   UNL     1      43.610 -11.544  10.862  1.00  0.00    -0.389 OA
HETATM   21  H   UNL     1      44.311 -11.979  11.380  1.00  0.00     0.210 HD
ENDBRANCH  19  20
BRANCH  19  22
HETATM   22  C   UNL     1      43.155  -9.476  12.056  1.00  0.00    -0.025 A 
HETATM   23  C   UNL     1      43.611  -8.279  12.632  1.00  0.00     0.053 A 
HETATM   24  C   UNL     1      42.924  -7.703  13.699  1.00  0.00     0.138 A 
HETATM   25  F   UNL     1      43.384  -6.552  14.212  1.00  0.00    -0.204 F 
HETATM   26  C   UNL     1      41.782  -8.307  14.218  1.00  0.00     0.072 A 
HETATM   27 CL   UNL     1      40.929  -7.596  15.532  1.00  0.00    -0.081 Cl
HETATM   28  C   UNL     1      41.322  -9.502  13.667  1.00  0.00     0.028 A 
HETATM   29  C   UNL     1      42.006 -10.083  12.592  1.00  0.00     0.012 A 
ENDBRANCH  19  22
ENDBRANCH  18  19
ENDBRANCH   2  18
TORSDOF 6
ENDMDL
MODEL 8
REMARK VINA RESULT:      -8.1      4.244      6.059
REMARK  6 active torsions:
REMARK  status: ('A' for Active; 'I' for Inactive)
REMARK    1  A    between atoms: N_4  and  C_5 
REMARK    2  A    between atoms: C_13  and  C_14 
REMARK       I    between atoms: C_14  and  N_15 
REMARK    3  A    between atoms: N_15  and  C_16 
REMARK    4  A    between atoms: C_16  and  C_17 
REMARK    5  A    between atoms: C_17  and  O_18 
REMARK    6  A    between atoms: C_17  and  C_19 
ROOT
HETATM    1  C   UNL     1      42.464 -13.403   4.159  1.00  0.00     0.257 C 
HETATM    2  N   UNL     1      43.290 -12.473   4.741  1.00  0.00    -0.354 N 
HETATM    3  O   UNL     1      41.501 -13.074   3.473  1.00  0.00    -0.267 OA
HETATM    4  H   UNL     1      44.166 -12.778   5.151  1.00  0.00     0.162 HD
ENDROOT
BRANCH   1   5
HETATM    5  C   UNL     1      42.817 -14.801   4.368  1.00  0.00     0.098 C 
HETATM    6  C   UNL     1      42.922 -15.466   5.619  1.00  0.00     0.070 C 
HETATM    7  C   UNL     1      42.688 -14.906   6.978  1.00  0.00     0.073 C 
HETATM    8  N   UNL     1      43.298 -16.741   5.491  1.00  0.00    -0.170 NA
HETATM    9  N   UNL     1      43.350 -16.971   4.147  1.00  0.00    -0.221 N 
HETATM   10  C   UNL     1      43.168 -15.780   3.460  1.00  0.00     0.145 C 
HETATM   11 CL   UNL     1      43.505 -15.627   1.788  1.00  0.00    -0.061 Cl
BRANCH   9  12
HETATM   12  C   UNL     1      43.539 -18.315   3.697  1.00  0.00     0.060 A 
HETATM   13  C   UNL     1      43.202 -18.734   2.405  1.00  0.00     0.031 A 
HETATM   14  C   UNL     1      43.389 -20.066   2.021  1.00  0.00     0.002 A 
HETATM   15  C   UNL     1      43.901 -20.995   2.924  1.00  0.00     0.000 A 
HETATM   16  C   UNL     1      44.217 -20.597   4.220  1.00  0.00     0.002 A 
HETATM   17  C   UNL     1      44.030 -19.269   4.607  1.00  0.00     0.031 A 
ENDBRANCH   9  12
ENDBRANCH   1   5
BRANCH   2  18
HETATM   18  C   UNL     1      43.173 -11.056   4.444  1.00  0.00     0.159 C 
BRANCH  18  19
HETATM   19  C   UNL     1      42.227 -10.317   5.408  1.00  0.00     0.169 C 
BRANCH  19  20
HETATM   20  O   UNL     1      41.824  -9.077   4.816  1.00  0.00    -0.389 OA
HETATM   21  H   UNL     1      41.316  -9.301   4.015  1.00  0.00     0.210 HD
ENDBRANCH  19  20
BRANCH  19  22
HETATM   22  C   UNL     1      42.829 -10.093   6.782  1.00  0.00    -0.025 A 
HETATM   23  C   UNL     1      44.097 -10.589   7.127  1.00  0.00     0.053 A 
HETATM   24  C   UNL     1      44.616 -10.373   8.402  1.00  0.00     0.138 A 
HETATM   25  F   UNL     1      45.837 -10.850   8.687  1.00  0.00    -0.204 F 
HETATM   26  C   UNL     1      43.885  -9.672   9.357  1.00  0.00     0.072 A 
HETATM   27 CL   UNL     1      44.524  -9.399  10.931  1.00  0.00    -0.081 Cl
HETATM   28  C   UNL     1      42.620  -9.184   9.036  1.00  0.00     0.028 A 
HETATM   29  C   UNL     1      42.095  -9.394   7.756  1.00  0.00     0.012 A 
ENDBRANCH  19  22
ENDBRANCH  18  19
ENDBRANCH   2  18
TORSDOF 6
ENDMDL
MODEL 9
REMARK VINA RESULT:      -8.0      6.604      9.171
REMARK  6 active torsions:
REMARK  status: ('A' for Active; 'I' for Inactive)
REMARK    1  A    between atoms: N_4  and  C_5 
REMARK    2  A    between atoms: C_13  and  C_14 
REMARK       I    between atoms: C_14  and  N_15 
REMARK    3  A    between atoms: N_15  and  C_16 
REMARK    4  A    between atoms: C_16  and  C_17 
REMARK    5  A    between atoms: C_17  and  O_18 
REMARK    6  A    between atoms: C_17  and  C_19 
ROOT
HETATM    1  C   UNL     1      43.971 -11.157   7.019  1.00  0.00     0.257 C 
HETATM    2  N   UNL     1      43.190 -11.016   8.139  1.00  0.00    -0.354 N 
HETATM    3  O   UNL     1      45.098 -10.676   6.951  1.00  0.00    -0.267 OA
HETATM    4  H   UNL     1      42.344 -11.569   8.225  1.00  0.00     0.162 HD
ENDROOT
BRANCH   1   5
HETATM    5  C   UNL     1      43.403 -11.940   5.930  1.00  0.00     0.098 C 
HETATM    6  C   UNL     1      42.573 -11.453   4.884  1.00  0.00     0.070 C 
HETATM    7  C   UNL     1      42.111 -10.058   4.655  1.00  0.00     0.073 C 
HETATM    8  N   UNL     1      42.179 -12.421   4.052  1.00  0.00    -0.170 NA
HETATM    9  N   UNL     1      42.823 -13.547   4.473  1.00  0.00    -0.221 N 
HETATM   10  C   UNL     1      43.478 -13.293   5.668  1.00  0.00     0.145 C 
HETATM   11 CL   UNL     1      44.103 -14.548   6.654  1.00  0.00    -0.061 Cl
BRANCH   9  12
HETATM   12  C   UNL     1      42.750 -14.715   3.652  1.00  0.00     0.060 A 
HETATM   13  C   UNL     1      42.129 -15.898   4.072  1.00  0.00     0.031 A 
HETATM   14  C   UNL     1      42.102 -17.019   3.235  1.00  0.00     0.002 A 
HETATM   15  C   UNL     1      42.703 -16.976   1.980  1.00  0.00     0.000 A 
HETATM   16  C   UNL     1      43.345 -15.815   1.559  1.00  0.00     0.002 A 
HETATM   17  C   UNL     1      43.375 -14.694   2.392  1.00  0.00     0.031 A 
ENDBRANCH   9  12
ENDBRANCH   1   5
BRANCH   2  18
HETATM   18  C   UNL     1      43.712 -10.438   9.366  1.00  0.00     0.159 C 
BRANCH  18  19
HETATM   19  C   UNL     1      43.089  -9.070   9.698  1.00  0.00     0.169 C 
BRANCH  19  20
HETATM   20  O   UNL     1      43.999  -8.033   9.315  1.00  0.00    -0.389 OA
HETATM   21  H   UNL     1      43.664  -7.207   9.709  1.00  0.00     0.210 HD
ENDBRANCH  19  20
BRANCH  19  22
HETATM   22  C   UNL     1      42.689  -8.932  11.155  1.00  0.00    -0.025 A 
HETATM   23  C   UNL     1      41.644  -9.687  11.712  1.00  0.00     0.053 A 
HETATM   24  C   UNL     1      41.296  -9.528  13.052  1.00  0.00     0.138 A 
HETATM   25  F   UNL     1      40.301 -10.277  13.550  1.00  0.00    -0.204 F 
HETATM   26  C   UNL     1      41.970  -8.615  13.858  1.00  0.00     0.072 A 
HETATM   27 CL   UNL     1      41.546  -8.419  15.513  1.00  0.00    -0.081 Cl
HETATM   28  C   UNL     1      43.002  -7.849  13.317  1.00  0.00     0.028 A 
HETATM   29  C   UNL     1      43.359  -8.007  11.973  1.00  0.00     0.012 A 
ENDBRANCH  19  22
ENDBRANCH  18  19
ENDBRANCH   2  18
TORSDOF 6
ENDMDL
MODEL 10
REMARK VINA RESULT:      -7.9      3.910      5.846
REMARK  6 active torsions:
REMARK  status: ('A' for Active; 'I' for Inactive)
REMARK    1  A    between atoms: N_4  and  C_5 
REMARK    2  A    between atoms: C_13  and  C_14 
REMARK       I    between atoms: C_14  and  N_15 
REMARK    3  A    between atoms: N_15  and  C_16 
REMARK    4  A    between atoms: C_16  and  C_17 
REMARK    5  A    between atoms: C_17  and  O_18 
REMARK    6  A    between atoms: C_17  and  C_19 
ROOT
HETATM    1  C   UNL     1      42.321 -13.007   3.486  1.00  0.00     0.257 C 
HETATM    2  N   UNL     1      41.296 -12.601   4.305  1.00  0.00    -0.354 N 
HETATM    3  O   UNL     1      43.194 -12.231   3.109  1.00  0.00    -0.267 OA
HETATM    4  H   UNL     1      40.699 -13.300   4.733  1.00  0.00     0.162 HD
ENDROOT
BRANCH   1   5
HETATM    5  C   UNL     1      42.336 -14.417   3.122  1.00  0.00     0.098 C 
HETATM    6  C   UNL     1      41.809 -14.986   1.931  1.00  0.00     0.070 C 
HETATM    7  C   UNL     1      41.144 -14.288   0.798  1.00  0.00     0.073 C 
HETATM    8  N   UNL     1      41.941 -16.315   1.897  1.00  0.00    -0.170 NA
HETATM    9  N   UNL     1      42.648 -16.638   3.017  1.00  0.00    -0.221 N 
HETATM   10  C   UNL     1      42.798 -15.516   3.818  1.00  0.00     0.145 C 
HETATM   11 CL   UNL     1      43.332 -15.615   5.443  1.00  0.00    -0.061 Cl
BRANCH   9  12
HETATM   12  C   UNL     1      43.117 -17.982   3.158  1.00  0.00     0.060 A 
HETATM   13  C   UNL     1      43.844 -18.417   4.272  1.00  0.00     0.031 A 
HETATM   14  C   UNL     1      44.295 -19.739   4.350  1.00  0.00     0.002 A 
HETATM   15  C   UNL     1      44.037 -20.635   3.315  1.00  0.00     0.000 A 
HETATM   16  C   UNL     1      43.335 -20.210   2.191  1.00  0.00     0.002 A 
HETATM   17  C   UNL     1      42.885 -18.890   2.108  1.00  0.00     0.031 A 
ENDBRANCH   9  12
ENDBRANCH   1   5
BRANCH   2  18
HETATM   18  C   UNL     1      41.278 -11.278   4.906  1.00  0.00     0.159 C 
BRANCH  18  19
HETATM   19  C   UNL     1      41.500 -11.308   6.429  1.00  0.00     0.169 C 
BRANCH  19  20
HETATM   20  O   UNL     1      40.475 -10.541   7.070  1.00  0.00    -0.389 OA
HETATM   21  H   UNL     1      40.923  -9.831   7.563  1.00  0.00     0.210 HD
ENDBRANCH  19  20
BRANCH  19  22
HETATM   22  C   UNL     1      42.878 -10.826   6.842  1.00  0.00    -0.025 A 
HETATM   23  C   UNL     1      44.050 -11.442   6.375  1.00  0.00     0.053 A 
HETATM   24  C   UNL     1      45.300 -10.979   6.783  1.00  0.00     0.138 A 
HETATM   25  F   UNL     1      46.397 -11.586   6.303  1.00  0.00    -0.204 F 
HETATM   26  C   UNL     1      45.409  -9.908   7.664  1.00  0.00     0.072 A 
HETATM   27 CL   UNL     1      46.950  -9.331   8.166  1.00  0.00    -0.081 Cl
HETATM   28  C   UNL     1      44.255  -9.293   8.147  1.00  0.00     0.028 A 
HETATM   29  C   UNL     1      42.997  -9.750   7.739  1.00  0.00     0.012 A 
ENDBRANCH  19  22
ENDBRANCH  18  19
ENDBRANCH   2  18
TORSDOF 6
ENDMDL
