MODEL 1
REMARK VINA RESULT:      -9.3      0.000      0.000
REMARK  9 active torsions:
REMARK  status: ('A' for Active; 'I' for Inactive)
REMARK       I    between atoms: N_2  and  C_3 
REMARK    1  A    between atoms: N_2  and  C_28 
REMARK    2  A    between atoms: C_3  and  C_4 
REMARK    3  A    between atoms: C_6  and  N_7 
REMARK       I    between atoms: N_7  and  C_8 
REMARK    4  A    between atoms: C_8  and  C_9 
REMARK    5  A    between atoms: C_9  and  O_10 
REMARK    6  A    between atoms: N_17  and  C_18 
REMARK    7  A    between atoms: C_18  and  C_19 
REMARK    8  A    between atoms: C_19  and  C_20 
REMARK    9  A    between atoms: C_28  and  C_29 
ROOT
HETATM    1  C   UNL     1      39.528 -12.105   5.243  1.00  0.00     0.036 A 
HETATM    2  C   UNL     1      39.373 -12.476   3.901  1.00  0.00     0.049 A 
HETATM    3  C   UNL     1      39.931 -13.659   3.381  1.00  0.00     0.065 A 
HETATM    4  C   UNL     1      40.697 -14.439   4.280  1.00  0.00     0.091 A 
HETATM    5  C   UNL     1      40.834 -14.079   5.629  1.00  0.00     0.088 A 
HETATM    6  N   UNL     1      41.605 -14.973   6.324  1.00  0.00    -0.242 NA
HETATM    7  C   UNL     1      41.968 -15.864   5.438  1.00  0.00     0.210 A 
HETATM    8  N   UNL     1      41.443 -15.598   4.199  1.00  0.00    -0.337 N 
HETATM    9  C   UNL     1      40.218 -12.927   6.130  1.00  0.00     0.051 A 
ENDROOT
BRANCH   1  10
HETATM   10  C   UNL     1      38.837 -10.884   5.722  1.00  0.00     0.253 C 
HETATM   11  N   UNL     1      39.127  -9.639   5.149  1.00  0.00    -0.350 N 
HETATM   12  C   UNL     1      38.541  -8.465   5.779  1.00  0.00     0.153 C 
HETATM   13  O   UNL     1      38.028 -11.035   6.637  1.00  0.00    -0.267 OA
BRANCH  11  14
HETATM   14  C   UNL     1      40.052  -9.439   4.014  1.00  0.00     0.158 C 
BRANCH  14  15
HETATM   15  C   UNL     1      41.533  -9.172   4.355  1.00  0.00     0.151 A 
HETATM   16  O   UNL     1      42.348 -10.268   3.859  1.00  0.00    -0.343 OA
HETATM   17  C   UNL     1      42.910 -10.833   4.971  1.00  0.00     0.075 A 
HETATM   18  C   UNL     1      42.600 -10.187   6.153  1.00  0.00    -0.022 A 
HETATM   19  C   UNL     1      43.726 -11.945   4.942  1.00  0.00     0.037 A 
HETATM   20  C   UNL     1      41.737  -9.022   5.877  1.00  0.00     0.075 A 
HETATM   21  C   UNL     1      43.102 -10.636   7.362  1.00  0.00     0.010 A 
HETATM   22  C   UNL     1      43.930 -11.762   7.357  1.00  0.00     0.001 A 
HETATM   23  C   UNL     1      44.240 -12.412   6.153  1.00  0.00     0.003 A 
ENDBRANCH  14  15
ENDBRANCH  11  14
ENDBRANCH   1  10
BRANCH   3  24
HETATM   24  N   UNL     1      39.706 -14.074   2.058  1.00  0.00    -0.323 N 
HETATM   25  C   UNL     1      40.444 -13.767   0.924  1.00  0.00     0.246 C 
HETATM   26  O   UNL     1      41.516 -13.175   0.875  1.00  0.00    -0.271 OA
HETATM   27  H   UNL     1      38.877 -14.616   1.858  1.00  0.00     0.169 HD
BRANCH  25  28
HETATM   28  C   UNL     1      39.792 -14.334  -0.343  1.00  0.00     0.270 C 
BRANCH  28  29
HETATM   29  O   UNL     1      39.618 -13.351  -1.365  1.00  0.00    -0.387 OA
HETATM   30  C   UNL     1      40.170 -13.783  -2.608  1.00  0.00     0.202 C 
ENDBRANCH  28  29
ENDBRANCH  25  28
ENDBRANCH   3  24
BRANCH   8  31
HETATM   31  C   UNL     1      41.719 -16.447   3.053  1.00  0.00     0.134 C 
BRANCH  31  32
HETATM   32  C   UNL     1      43.202 -16.814   2.966  1.00  0.00     0.058 C 
BRANCH  32  33
HETATM   33  C   UNL     1      43.492 -18.284   3.163  1.00  0.00    -0.057 A 
HETATM   34  C   UNL     1      43.265 -19.229   2.153  1.00  0.00     0.007 A 
HETATM   35  C   UNL     1      43.535 -20.583   2.375  1.00  0.00     0.001 A 
HETATM   36  C   UNL     1      44.015 -21.010   3.611  1.00  0.00     0.000 A 
HETATM   37  C   UNL     1      44.221 -20.084   4.631  1.00  0.00     0.001 A 
HETATM   38  C   UNL     1      43.959 -18.732   4.409  1.00  0.00     0.007 A 
ENDBRANCH  32  33
ENDBRANCH  31  32
ENDBRANCH   8  31
TORSDOF 9
ENDMDL
MODEL 2
REMARK VINA RESULT:      -9.1      1.456      1.918
REMARK  9 active torsions:
REMARK  status: ('A' for Active; 'I' for Inactive)
REMARK       I    between atoms: N_2  and  C_3 
REMARK    1  A    between atoms: N_2  and  C_28 
REMARK    2  A    between atoms: C_3  and  C_4 
REMARK    3  A    between atoms: C_6  and  N_7 
REMARK       I    between atoms: N_7  and  C_8 
REMARK    4  A    between atoms: C_8  and  C_9 
REMARK    5  A    between atoms: C_9  and  O_10 
REMARK    6  A    between atoms: N_17  and  C_18 
REMARK    7  A    between atoms: C_18  and  C_19 
REMARK    8  A    between atoms: C_19  and  C_20 
REMARK    9  A    between atoms: C_28  and  C_29 
ROOT
HETATM    1  C   UNL     1      39.538 -11.792   5.263  1.00  0.00     0.036 A 
HETATM    2  C   UNL     1      39.614 -11.970   3.876  1.00  0.00     0.049 A 
HETATM    3  C   UNL     1      40.041 -13.181   3.299  1.00  0.00     0.065 A 
HETATM    4  C   UNL     1      40.433 -14.201   4.197  1.00  0.00     0.091 A 
HETATM    5  C   UNL     1      40.337 -14.030   5.586  1.00  0.00     0.088 A 
HETATM    6  N   UNL     1      40.758 -15.140   6.271  1.00  0.00    -0.242 NA
HETATM    7  C   UNL     1      41.133 -15.984   5.345  1.00  0.00     0.210 A 
HETATM    8  N   UNL     1      40.949 -15.477   4.084  1.00  0.00    -0.337 N 
HETATM    9  C   UNL     1      39.852 -12.836   6.130  1.00  0.00     0.051 A 
ENDROOT
BRANCH   1  10
HETATM   10  C   UNL     1      39.000 -10.512   5.782  1.00  0.00     0.253 C 
HETATM   11  N   UNL     1      39.871  -9.498   6.199  1.00  0.00    -0.350 N 
HETATM   12  C   UNL     1      39.278  -8.340   6.854  1.00  0.00     0.153 C 
HETATM   13  O   UNL     1      37.774 -10.413   5.831  1.00  0.00    -0.267 OA
BRANCH  11  14
HETATM   14  C   UNL     1      41.343  -9.572   6.101  1.00  0.00     0.158 C 
BRANCH  14  15
HETATM   15  C   UNL     1      42.095 -10.220   7.282  1.00  0.00     0.151 A 
HETATM   16  O   UNL     1      42.845  -9.200   7.995  1.00  0.00    -0.343 OA
HETATM   17  C   UNL     1      44.159  -9.557   7.861  1.00  0.00     0.075 A 
HETATM   18  C   UNL     1      44.357 -10.744   7.181  1.00  0.00    -0.022 A 
HETATM   19  C   UNL     1      45.213  -8.818   8.357  1.00  0.00     0.037 A 
HETATM   20  C   UNL     1      43.056 -11.324   6.794  1.00  0.00     0.075 A 
HETATM   21  C   UNL     1      45.632 -11.242   6.974  1.00  0.00     0.010 A 
HETATM   22  C   UNL     1      46.715 -10.511   7.467  1.00  0.00     0.001 A 
HETATM   23  C   UNL     1      46.507  -9.305   8.156  1.00  0.00     0.003 A 
ENDBRANCH  14  15
ENDBRANCH  11  14
ENDBRANCH   1  10
BRANCH   3  24
HETATM   24  N   UNL     1      40.037 -13.389   1.908  1.00  0.00    -0.323 N 
HETATM   25  C   UNL     1      40.784 -12.735   0.940  1.00  0.00     0.246 C 
HETATM   26  O   UNL     1      41.693 -11.933   1.121  1.00  0.00    -0.271 OA
HETATM   27  H   UNL     1      39.375 -14.047   1.522  1.00  0.00     0.169 HD
BRANCH  25  28
HETATM   28  C   UNL     1      40.396 -13.189  -0.473  1.00  0.00     0.270 C 
BRANCH  28  29
HETATM   29  O   UNL     1      39.668 -14.419  -0.479  1.00  0.00    -0.387 OA
HETATM   30  C   UNL     1      39.160 -14.721  -1.778  1.00  0.00     0.202 C 
ENDBRANCH  28  29
ENDBRANCH  25  28
ENDBRANCH   3  24
BRANCH   8  31
HETATM   31  C   UNL     1      41.306 -16.233   2.896  1.00  0.00     0.134 C 
BRANCH  31  32
HETATM   32  C   UNL     1      42.814 -16.483   2.816  1.00  0.00     0.058 C 
BRANCH  32  33
HETATM   33  C   UNL     1      43.218 -17.922   3.033  1.00  0.00    -0.057 A 
HETATM   34  C   UNL     1      42.968 -18.918   2.079  1.00  0.00     0.007 A 
HETATM   35  C   UNL     1      43.348 -20.242   2.319  1.00  0.00     0.001 A 
HETATM   36  C   UNL     1      43.961 -20.590   3.520  1.00  0.00     0.000 A 
HETATM   37  C   UNL     1      44.193 -19.615   4.487  1.00  0.00     0.001 A 
HETATM   38  C   UNL     1      43.821 -18.292   4.247  1.00  0.00     0.007 A 
ENDBRANCH  32  33
ENDBRANCH  31  32
ENDBRANCH   8  31
TORSDOF 9
ENDMDL
MODEL 3
REMARK VINA RESULT:      -9.0      2.204      5.920
REMARK  9 active torsions:
REMARK  status: ('A' for Active; 'I' for Inactive)
REMARK       I    between atoms: N_2  and  C_3 
REMARK    1  A    between atoms: N_2  and  C_28 
REMARK    2  A    between atoms: C_3  and  C_4 
REMARK    3  A    between atoms: C_6  and  N_7 
REMARK       I    between atoms: N_7  and  C_8 
REMARK    4  A    between atoms: C_8  and  C_9 
REMARK    5  A    between atoms: C_9  and  O_10 
REMARK    6  A    between atoms: N_17  and  C_18 
REMARK    7  A    between atoms: C_18  and  C_19 
REMARK    8  A    between atoms: C_19  and  C_20 
REMARK    9  A    between atoms: C_28  and  C_29 
ROOT
HETATM    1  C   UNL     1      39.571 -11.729   2.214  1.00  0.00     0.036 A 
HETATM    2  C   UNL     1      40.328 -11.820   3.389  1.00  0.00     0.049 A 
HETATM    3  C   UNL     1      40.960 -13.015   3.782  1.00  0.00     0.065 A 
HETATM    4  C   UNL     1      40.755 -14.138   2.945  1.00  0.00     0.091 A 
HETATM    5  C   UNL     1      40.015 -14.041   1.757  1.00  0.00     0.088 A 
HETATM    6  N   UNL     1      39.947 -15.238   1.096  1.00  0.00    -0.242 NA
HETATM    7  C   UNL     1      40.606 -16.078   1.851  1.00  0.00     0.210 A 
HETATM    8  N   UNL     1      41.120 -15.470   2.967  1.00  0.00    -0.337 N 
HETATM    9  C   UNL     1      39.448 -12.824   1.363  1.00  0.00     0.051 A 
ENDROOT
BRANCH   1  10
HETATM   10  C   UNL     1      39.010 -10.410   1.837  1.00  0.00     0.253 C 
HETATM   11  N   UNL     1      39.617  -9.646   0.832  1.00  0.00    -0.350 N 
HETATM   12  C   UNL     1      39.116  -8.293   0.631  1.00  0.00     0.153 C 
HETATM   13  O   UNL     1      38.013 -10.041   2.458  1.00  0.00    -0.267 OA
BRANCH  11  14
HETATM   14  C   UNL     1      40.779 -10.090   0.035  1.00  0.00     0.158 C 
BRANCH  14  15
HETATM   15  C   UNL     1      40.526 -10.425  -1.450  1.00  0.00     0.151 A 
HETATM   16  O   UNL     1      39.103 -10.629  -1.663  1.00  0.00    -0.343 OA
HETATM   17  C   UNL     1      38.981 -11.932  -2.063  1.00  0.00     0.075 A 
HETATM   18  C   UNL     1      40.184 -12.599  -2.195  1.00  0.00    -0.022 A 
HETATM   19  C   UNL     1      37.775 -12.548  -2.325  1.00  0.00     0.037 A 
HETATM   20  C   UNL     1      41.301 -11.689  -1.877  1.00  0.00     0.075 A 
HETATM   21  C   UNL     1      40.223 -13.922  -2.602  1.00  0.00     0.010 A 
HETATM   22  C   UNL     1      39.014 -14.566  -2.872  1.00  0.00     0.001 A 
HETATM   23  C   UNL     1      37.796 -13.883  -2.735  1.00  0.00     0.003 A 
ENDBRANCH  14  15
ENDBRANCH  11  14
ENDBRANCH   1  10
BRANCH   3  24
HETATM   24  N   UNL     1      41.789 -13.086   4.915  1.00  0.00    -0.323 N 
HETATM   25  C   UNL     1      43.117 -12.702   5.033  1.00  0.00     0.246 C 
HETATM   26  O   UNL     1      43.792 -12.103   4.203  1.00  0.00    -0.271 OA
HETATM   27  H   UNL     1      41.426 -13.522   5.751  1.00  0.00     0.169 HD
BRANCH  25  28
HETATM   28  C   UNL     1      43.684 -13.051   6.414  1.00  0.00     0.270 C 
BRANCH  28  29
HETATM   29  O   UNL     1      44.867 -12.315   6.730  1.00  0.00    -0.387 OA
HETATM   30  C   UNL     1      44.565 -11.113   7.436  1.00  0.00     0.202 C 
ENDBRANCH  28  29
ENDBRANCH  25  28
ENDBRANCH   3  24
BRANCH   8  31
HETATM   31  C   UNL     1      41.881 -16.208   3.960  1.00  0.00     0.134 C 
BRANCH  31  32
HETATM   32  C   UNL     1      43.255 -16.622   3.426  1.00  0.00     0.058 C 
BRANCH  32  33
HETATM   33  C   UNL     1      43.472 -18.116   3.363  1.00  0.00    -0.057 A 
HETATM   34  C   UNL     1      43.121 -18.873   2.237  1.00  0.00     0.007 A 
HETATM   35  C   UNL     1      43.328 -20.255   2.218  1.00  0.00     0.001 A 
HETATM   36  C   UNL     1      43.869 -20.900   3.329  1.00  0.00     0.000 A 
HETATM   37  C   UNL     1      44.199 -20.164   4.464  1.00  0.00     0.001 A 
HETATM   38  C   UNL     1      44.000 -18.782   4.482  1.00  0.00     0.007 A 
ENDBRANCH  32  33
ENDBRANCH  31  32
ENDBRANCH   8  31
TORSDOF 9
ENDMDL
MODEL 4
REMARK VINA RESULT:      -9.0      3.059      8.923
REMARK  9 active torsions:
REMARK  status: ('A' for Active; 'I' for Inactive)
REMARK       I    between atoms: N_2  and  C_3 
REMARK    1  A    between atoms: N_2  and  C_28 
REMARK    2  A    between atoms: C_3  and  C_4 
REMARK    3  A    between atoms: C_6  and  N_7 
REMARK       I    between atoms: N_7  and  C_8 
REMARK    4  A    between atoms: C_8  and  C_9 
REMARK    5  A    between atoms: C_9  and  O_10 
REMARK    6  A    between atoms: N_17  and  C_18 
REMARK    7  A    between atoms: C_18  and  C_19 
REMARK    8  A    between atoms: C_19  and  C_20 
REMARK    9  A    between atoms: C_28  and  C_29 
ROOT
HETATM    1  C   UNL     1      42.219 -12.129   3.842  1.00  0.00     0.036 A 
HETATM    2  C   UNL     1      41.393 -11.762   4.912  1.00  0.00     0.049 A 
HETATM    3  C   UNL     1      41.909 -11.247   6.115  1.00  0.00     0.065 A 
HETATM    4  C   UNL     1      43.318 -11.158   6.206  1.00  0.00     0.091 A 
HETATM    5  C   UNL     1      44.145 -11.505   5.127  1.00  0.00     0.088 A 
HETATM    6  N   UNL     1      45.472 -11.336   5.423  1.00  0.00    -0.242 NA
HETATM    7  C   UNL     1      45.491 -10.916   6.661  1.00  0.00     0.210 A 
HETATM    8  N   UNL     1      44.227 -10.781   7.175  1.00  0.00    -0.337 N 
HETATM    9  C   UNL     1      43.599 -11.958   3.922  1.00  0.00     0.051 A 
ENDROOT
BRANCH   1  10
HETATM   10  C   UNL     1      41.584 -12.585   2.583  1.00  0.00     0.253 C 
HETATM   11  N   UNL     1      41.408 -13.952   2.337  1.00  0.00    -0.350 N 
HETATM   12  C   UNL     1      40.935 -14.334   1.014  1.00  0.00     0.153 C 
HETATM   13  O   UNL     1      41.245 -11.706   1.790  1.00  0.00    -0.267 OA
BRANCH  11  14
HETATM   14  C   UNL     1      41.756 -15.022   3.295  1.00  0.00     0.158 C 
BRANCH  14  15
HETATM   15  C   UNL     1      43.148 -15.671   3.148  1.00  0.00     0.151 A 
HETATM   16  O   UNL     1      43.087 -16.726   2.151  1.00  0.00    -0.343 OA
HETATM   17  C   UNL     1      43.382 -17.879   2.825  1.00  0.00     0.075 A 
HETATM   18  C   UNL     1      43.693 -17.692   4.159  1.00  0.00    -0.022 A 
HETATM   19  C   UNL     1      43.385 -19.131   2.247  1.00  0.00     0.037 A 
HETATM   20  C   UNL     1      43.636 -16.255   4.491  1.00  0.00     0.075 A 
HETATM   21  C   UNL     1      44.023 -18.763   4.970  1.00  0.00     0.010 A 
HETATM   22  C   UNL     1      44.031 -20.041   4.407  1.00  0.00     0.001 A 
HETATM   23  C   UNL     1      43.714 -20.224   3.052  1.00  0.00     0.003 A 
ENDBRANCH  14  15
ENDBRANCH  11  14
ENDBRANCH   1  10
BRANCH   3  24
HETATM   24  N   UNL     1      41.077 -10.799   7.156  1.00  0.00    -0.323 N 
HETATM   25  C   UNL     1      40.652  -9.505   7.419  1.00  0.00     0.246 C 
HETATM   26  O   UNL     1      40.815  -8.514   6.717  1.00  0.00    -0.271 OA
HETATM   27  H   UNL     1      40.781 -11.465   7.856  1.00  0.00     0.169 HD
BRANCH  25  28
HETATM   28  C   UNL     1      39.842  -9.432   8.719  1.00  0.00     0.270 C 
BRANCH  28  29
HETATM   29  O   UNL     1      40.637  -9.669   9.882  1.00  0.00    -0.387 OA
HETATM   30  C   UNL     1      39.851  -9.629  11.072  1.00  0.00     0.202 C 
ENDBRANCH  28  29
ENDBRANCH  25  28
ENDBRANCH   3  24
BRANCH   8  31
HETATM   31  C   UNL     1      44.000 -10.337   8.540  1.00  0.00     0.134 C 
BRANCH  31  32
HETATM   32  C   UNL     1      44.240  -8.833   8.693  1.00  0.00     0.058 C 
BRANCH  32  33
HETATM   33  C   UNL     1      43.646  -8.234   9.946  1.00  0.00    -0.057 A 
HETATM   34  C   UNL     1      42.919  -7.036   9.927  1.00  0.00     0.007 A 
HETATM   35  C   UNL     1      42.392  -6.506  11.108  1.00  0.00     0.001 A 
HETATM   36  C   UNL     1      42.602  -7.154  12.323  1.00  0.00     0.000 A 
HETATM   37  C   UNL     1      43.344  -8.332  12.361  1.00  0.00     0.001 A 
HETATM   38  C   UNL     1      43.865  -8.866  11.181  1.00  0.00     0.007 A 
ENDBRANCH  32  33
ENDBRANCH  31  32
ENDBRANCH   8  31
TORSDOF 9
ENDMDL
MODEL 5
REMARK VINA RESULT:      -8.6      3.899      5.526
REMARK  9 active torsions:
REMARK  status: ('A' for Active; 'I' for Inactive)
REMARK       I    between atoms: N_2  and  C_3 
REMARK    1  A    between atoms: N_2  and  C_28 
REMARK    2  A    between atoms: C_3  and  C_4 
REMARK    3  A    between atoms: C_6  and  N_7 
REMARK       I    between atoms: N_7  and  C_8 
REMARK    4  A    between atoms: C_8  and  C_9 
REMARK    5  A    between atoms: C_9  and  O_10 
REMARK    6  A    between atoms: N_17  and  C_18 
REMARK    7  A    between atoms: C_18  and  C_19 
REMARK    8  A    between atoms: C_19  and  C_20 
REMARK    9  A    between atoms: C_28  and  C_29 
ROOT
HETATM    1  C   UNL     1      42.494  -9.220   7.362  1.00  0.00     0.036 A 
HETATM    2  C   UNL     1      41.622  -9.635   6.347  1.00  0.00     0.049 A 
HETATM    3  C   UNL     1      41.733 -10.897   5.733  1.00  0.00     0.065 A 
HETATM    4  C   UNL     1      42.802 -11.714   6.168  1.00  0.00     0.091 A 
HETATM    5  C   UNL     1      43.663 -11.308   7.199  1.00  0.00     0.088 A 
HETATM    6  N   UNL     1      44.621 -12.249   7.470  1.00  0.00    -0.242 NA
HETATM    7  C   UNL     1      44.392 -13.216   6.620  1.00  0.00     0.210 A 
HETATM    8  N   UNL     1      43.307 -12.953   5.823  1.00  0.00    -0.337 N 
HETATM    9  C   UNL     1      43.491 -10.072   7.831  1.00  0.00     0.051 A 
ENDROOT
BRANCH   1  10
HETATM   10  C   UNL     1      42.253  -7.908   8.007  1.00  0.00     0.253 C 
HETATM   11  N   UNL     1      41.528  -7.832   9.203  1.00  0.00    -0.350 N 
HETATM   12  C   UNL     1      41.185  -6.503   9.689  1.00  0.00     0.153 C 
HETATM   13  O   UNL     1      42.710  -6.921   7.429  1.00  0.00    -0.267 OA
BRANCH  11  14
HETATM   14  C   UNL     1      41.018  -9.005   9.943  1.00  0.00     0.158 C 
BRANCH  14  15
HETATM   15  C   UNL     1      41.904  -9.559  11.077  1.00  0.00     0.151 A 
HETATM   16  O   UNL     1      41.086  -9.808  12.252  1.00  0.00    -0.343 OA
HETATM   17  C   UNL     1      41.572  -8.969  13.216  1.00  0.00     0.075 A 
HETATM   18  C   UNL     1      42.671  -8.228  12.822  1.00  0.00    -0.022 A 
HETATM   19  C   UNL     1      41.037  -8.857  14.483  1.00  0.00     0.037 A 
HETATM   20  C   UNL     1      43.036  -8.573  11.434  1.00  0.00     0.075 A 
HETATM   21  C   UNL     1      43.281  -7.341  13.692  1.00  0.00     0.010 A 
HETATM   22  C   UNL     1      42.755  -7.210  14.979  1.00  0.00     0.001 A 
HETATM   23  C   UNL     1      41.640  -7.965  15.373  1.00  0.00     0.003 A 
ENDBRANCH  14  15
ENDBRANCH  11  14
ENDBRANCH   1  10
BRANCH   3  24
HETATM   24  N   UNL     1      40.808 -11.346   4.775  1.00  0.00    -0.323 N 
HETATM   25  C   UNL     1      39.743 -12.218   4.953  1.00  0.00     0.246 C 
HETATM   26  O   UNL     1      39.321 -12.666   6.012  1.00  0.00    -0.271 OA
HETATM   27  H   UNL     1      40.939 -11.071   3.812  1.00  0.00     0.169 HD
BRANCH  25  28
HETATM   28  C   UNL     1      39.047 -12.535   3.624  1.00  0.00     0.270 C 
BRANCH  28  29
HETATM   29  O   UNL     1      39.642 -13.637   2.935  1.00  0.00    -0.387 OA
HETATM   30  C   UNL     1      39.934 -13.311   1.577  1.00  0.00     0.202 C 
ENDBRANCH  28  29
ENDBRANCH  25  28
ENDBRANCH   3  24
BRANCH   8  31
HETATM   31  C   UNL     1      42.869 -13.881   4.795  1.00  0.00     0.134 C 
BRANCH  31  32
HETATM   32  C   UNL     1      42.564 -15.264   5.374  1.00  0.00     0.058 C 
BRANCH  32  33
HETATM   33  C   UNL     1      42.990 -16.415   4.493  1.00  0.00    -0.057 A 
HETATM   34  C   UNL     1      43.837 -17.432   4.953  1.00  0.00     0.007 A 
HETATM   35  C   UNL     1      44.218 -18.476   4.106  1.00  0.00     0.001 A 
HETATM   36  C   UNL     1      43.775 -18.507   2.786  1.00  0.00     0.000 A 
HETATM   37  C   UNL     1      42.953 -17.489   2.308  1.00  0.00     0.001 A 
HETATM   38  C   UNL     1      42.565 -16.450   3.154  1.00  0.00     0.007 A 
ENDBRANCH  32  33
ENDBRANCH  31  32
ENDBRANCH   8  31
TORSDOF 9
ENDMDL
MODEL 6
REMARK VINA RESULT:      -8.6      3.078      4.491
REMARK  9 active torsions:
REMARK  status: ('A' for Active; 'I' for Inactive)
REMARK       I    between atoms: N_2  and  C_3 
REMARK    1  A    between atoms: N_2  and  C_28 
REMARK    2  A    between atoms: C_3  and  C_4 
REMARK    3  A    between atoms: C_6  and  N_7 
REMARK       I    between atoms: N_7  and  C_8 
REMARK    4  A    between atoms: C_8  and  C_9 
REMARK    5  A    between atoms: C_9  and  O_10 
REMARK    6  A    between atoms: N_17  and  C_18 
REMARK    7  A    between atoms: C_18  and  C_19 
REMARK    8  A    between atoms: C_19  and  C_20 
REMARK    9  A    between atoms: C_28  and  C_29 
ROOT
HETATM    1  C   UNL     1      44.349 -12.063   6.588  1.00  0.00     0.036 A 
HETATM    2  C   UNL     1      43.999 -12.031   5.232  1.00  0.00     0.049 A 
HETATM    3  C   UNL     1      43.270 -13.069   4.622  1.00  0.00     0.065 A 
HETATM    4  C   UNL     1      42.942 -14.173   5.444  1.00  0.00     0.091 A 
HETATM    5  C   UNL     1      43.274 -14.196   6.807  1.00  0.00     0.088 A 
HETATM    6  N   UNL     1      42.858 -15.349   7.417  1.00  0.00    -0.242 NA
HETATM    7  C   UNL     1      42.299 -16.051   6.466  1.00  0.00     0.210 A 
HETATM    8  N   UNL     1      42.312 -15.389   5.265  1.00  0.00    -0.337 N 
HETATM    9  C   UNL     1      43.948 -13.122   7.399  1.00  0.00     0.051 A 
ENDROOT
BRANCH   1  10
HETATM   10  C   UNL     1      45.046 -10.889   7.166  1.00  0.00     0.253 C 
HETATM   11  N   UNL     1      44.321  -9.902   7.845  1.00  0.00    -0.350 N 
HETATM   12  C   UNL     1      45.043  -8.699   8.236  1.00  0.00     0.153 C 
HETATM   13  O   UNL     1      46.265 -10.840   6.999  1.00  0.00    -0.267 OA
BRANCH  11  14
HETATM   14  C   UNL     1      42.868  -9.966   8.105  1.00  0.00     0.158 C 
BRANCH  14  15
HETATM   15  C   UNL     1      42.290  -8.951   9.112  1.00  0.00     0.151 A 
HETATM   16  O   UNL     1      42.865  -9.192  10.425  1.00  0.00    -0.343 OA
HETATM   17  C   UNL     1      41.810  -9.540  11.223  1.00  0.00     0.075 A 
HETATM   18  C   UNL     1      40.582  -9.498  10.590  1.00  0.00    -0.022 A 
HETATM   19  C   UNL     1      41.933  -9.899  12.549  1.00  0.00     0.037 A 
HETATM   20  C   UNL     1      40.753  -9.057   9.192  1.00  0.00     0.075 A 
HETATM   21  C   UNL     1      39.419  -9.815  11.270  1.00  0.00     0.010 A 
HETATM   22  C   UNL     1      39.519 -10.183  12.614  1.00  0.00     0.001 A 
HETATM   23  C   UNL     1      40.769 -10.224  13.251  1.00  0.00     0.003 A 
ENDBRANCH  14  15
ENDBRANCH  11  14
ENDBRANCH   1  10
BRANCH   3  24
HETATM   24  N   UNL     1      42.845 -12.998   3.284  1.00  0.00    -0.323 N 
HETATM   25  C   UNL     1      41.592 -12.656   2.798  1.00  0.00     0.246 C 
HETATM   26  O   UNL     1      40.642 -12.219   3.438  1.00  0.00    -0.271 OA
HETATM   27  H   UNL     1      43.488 -13.286   2.559  1.00  0.00     0.169 HD
BRANCH  25  28
HETATM   28  C   UNL     1      41.517 -12.811   1.274  1.00  0.00     0.270 C 
BRANCH  28  29
HETATM   29  O   UNL     1      41.237 -14.152   0.867  1.00  0.00    -0.387 OA
HETATM   30  C   UNL     1      40.172 -14.201  -0.081  1.00  0.00     0.202 C 
ENDBRANCH  28  29
ENDBRANCH  25  28
ENDBRANCH   3  24
BRANCH   8  31
HETATM   31  C   UNL     1      41.755 -15.979   4.060  1.00  0.00     0.134 C 
BRANCH  31  32
HETATM   32  C   UNL     1      42.852 -16.429   3.092  1.00  0.00     0.058 C 
BRANCH  32  33
HETATM   33  C   UNL     1      43.200 -17.896   3.186  1.00  0.00    -0.057 A 
HETATM   34  C   UNL     1      43.871 -18.434   4.293  1.00  0.00     0.007 A 
HETATM   35  C   UNL     1      44.185 -19.795   4.341  1.00  0.00     0.001 A 
HETATM   36  C   UNL     1      43.850 -20.630   3.277  1.00  0.00     0.000 A 
HETATM   37  C   UNL     1      43.205 -20.105   2.161  1.00  0.00     0.001 A 
HETATM   38  C   UNL     1      42.885 -18.748   2.114  1.00  0.00     0.007 A 
ENDBRANCH  32  33
ENDBRANCH  31  32
ENDBRANCH   8  31
TORSDOF 9
ENDMDL
MODEL 7
REMARK VINA RESULT:      -8.5      3.858      9.484
REMARK  9 active torsions:
REMARK  status: ('A' for Active; 'I' for Inactive)
REMARK       I    between atoms: N_2  and  C_3 
REMARK    1  A    between atoms: N_2  and  C_28 
REMARK    2  A    between atoms: C_3  and  C_4 
REMARK    3  A    between atoms: C_6  and  N_7 
REMARK       I    between atoms: N_7  and  C_8 
REMARK    4  A    between atoms: C_8  and  C_9 
REMARK    5  A    between atoms: C_9  and  O_10 
REMARK    6  A    between atoms: N_17  and  C_18 
REMARK    7  A    between atoms: C_18  and  C_19 
REMARK    8  A    between atoms: C_19  and  C_20 
REMARK    9  A    between atoms: C_28  and  C_29 
ROOT
HETATM    1  C   UNL     1      43.180 -11.927   5.463  1.00  0.00     0.036 A 
HETATM    2  C   UNL     1      42.118 -11.263   6.091  1.00  0.00     0.049 A 
HETATM    3  C   UNL     1      42.299 -10.488   7.251  1.00  0.00     0.065 A 
HETATM    4  C   UNL     1      43.611 -10.447   7.780  1.00  0.00     0.091 A 
HETATM    5  C   UNL     1      44.679 -11.094   7.140  1.00  0.00     0.088 A 
HETATM    6  N   UNL     1      45.860 -10.921   7.811  1.00  0.00    -0.242 NA
HETATM    7  C   UNL     1      45.550 -10.204   8.860  1.00  0.00     0.210 A 
HETATM    8  N   UNL     1      44.217  -9.883   8.885  1.00  0.00    -0.337 N 
HETATM    9  C   UNL     1      44.478 -11.808   5.954  1.00  0.00     0.051 A 
ENDROOT
BRANCH   1  10
HETATM   10  C   UNL     1      42.911 -12.653   4.200  1.00  0.00     0.253 C 
HETATM   11  N   UNL     1      42.559 -14.008   4.227  1.00  0.00    -0.350 N 
HETATM   12  C   UNL     1      42.476 -14.699   2.947  1.00  0.00     0.153 C 
HETATM   13  O   UNL     1      43.028 -12.005   3.159  1.00  0.00    -0.267 OA
BRANCH  11  14
HETATM   14  C   UNL     1      42.359 -14.793   5.462  1.00  0.00     0.158 C 
BRANCH  14  15
HETATM   15  C   UNL     1      43.563 -15.605   5.981  1.00  0.00     0.151 A 
HETATM   16  O   UNL     1      44.208 -16.279   4.866  1.00  0.00    -0.343 OA
HETATM   17  C   UNL     1      44.074 -17.615   5.125  1.00  0.00     0.075 A 
HETATM   18  C   UNL     1      43.459 -17.901   6.330  1.00  0.00    -0.022 A 
HETATM   19  C   UNL     1      44.514 -18.612   4.279  1.00  0.00     0.037 A 
HETATM   20  C   UNL     1      43.123 -16.647   7.032  1.00  0.00     0.075 A 
HETATM   21  C   UNL     1      43.262 -19.209   6.736  1.00  0.00     0.010 A 
HETATM   22  C   UNL     1      43.698 -20.235   5.895  1.00  0.00     0.001 A 
HETATM   23  C   UNL     1      44.322 -19.938   4.673  1.00  0.00     0.003 A 
ENDBRANCH  14  15
ENDBRANCH  11  14
ENDBRANCH   1  10
BRANCH   3  24
HETATM   24  N   UNL     1      41.251  -9.754   7.832  1.00  0.00    -0.323 N 
HETATM   25  C   UNL     1      40.976  -8.400   7.703  1.00  0.00     0.246 C 
HETATM   26  O   UNL     1      41.521  -7.602   6.950  1.00  0.00    -0.271 OA
HETATM   27  H   UNL     1      40.635 -10.224   8.481  1.00  0.00     0.169 HD
BRANCH  25  28
HETATM   28  C   UNL     1      39.801  -7.976   8.593  1.00  0.00     0.270 C 
BRANCH  28  29
HETATM   29  O   UNL     1      40.001  -8.307   9.969  1.00  0.00    -0.387 OA
HETATM   30  C   UNL     1      40.385  -7.165  10.733  1.00  0.00     0.202 C 
ENDBRANCH  28  29
ENDBRANCH  25  28
ENDBRANCH   3  24
BRANCH   8  31
HETATM   31  C   UNL     1      43.639  -9.101   9.964  1.00  0.00     0.134 C 
BRANCH  31  32
HETATM   32  C   UNL     1      43.627  -9.878  11.283  1.00  0.00     0.058 C 
BRANCH  32  33
HETATM   33  C   UNL     1      43.045  -9.114  12.449  1.00  0.00    -0.057 A 
HETATM   34  C   UNL     1      43.604  -7.913  12.906  1.00  0.00     0.007 A 
HETATM   35  C   UNL     1      43.044  -7.238  13.995  1.00  0.00     0.001 A 
HETATM   36  C   UNL     1      41.934  -7.764  14.651  1.00  0.00     0.000 A 
HETATM   37  C   UNL     1      41.383  -8.970  14.224  1.00  0.00     0.001 A 
HETATM   38  C   UNL     1      41.937  -9.641  13.132  1.00  0.00     0.007 A 
ENDBRANCH  32  33
ENDBRANCH  31  32
ENDBRANCH   8  31
TORSDOF 9
ENDMDL
MODEL 8
REMARK VINA RESULT:      -8.5      4.119      6.500
REMARK  9 active torsions:
REMARK  status: ('A' for Active; 'I' for Inactive)
REMARK       I    between atoms: N_2  and  C_3 
REMARK    1  A    between atoms: N_2  and  C_28 
REMARK    2  A    between atoms: C_3  and  C_4 
REMARK    3  A    between atoms: C_6  and  N_7 
REMARK       I    between atoms: N_7  and  C_8 
REMARK    4  A    between atoms: C_8  and  C_9 
REMARK    5  A    between atoms: C_9  and  O_10 
REMARK    6  A    between atoms: N_17  and  C_18 
REMARK    7  A    between atoms: C_18  and  C_19 
REMARK    8  A    between atoms: C_19  and  C_20 
REMARK    9  A    between atoms: C_28  and  C_29 
ROOT
HETATM    1  C   UNL     1      43.884 -11.225   7.311  1.00  0.00     0.036 A 
HETATM    2  C   UNL     1      43.900 -12.597   7.029  1.00  0.00     0.049 A 
HETATM    3  C   UNL     1      42.891 -13.218   6.269  1.00  0.00     0.065 A 
HETATM    4  C   UNL     1      41.831 -12.387   5.836  1.00  0.00     0.091 A 
HETATM    5  C   UNL     1      41.825 -11.009   6.100  1.00  0.00     0.088 A 
HETATM    6  N   UNL     1      40.715 -10.392   5.586  1.00  0.00    -0.242 NA
HETATM    7  C   UNL     1      40.023 -11.353   5.031  1.00  0.00     0.210 A 
HETATM    8  N   UNL     1      40.650 -12.567   5.142  1.00  0.00    -0.337 N 
HETATM    9  C   UNL     1      42.872 -10.410   6.808  1.00  0.00     0.051 A 
ENDROOT
BRANCH   1  10
HETATM   10  C   UNL     1      45.029 -10.642   8.050  1.00  0.00     0.253 C 
HETATM   11  N   UNL     1      44.909 -10.339   9.412  1.00  0.00    -0.350 N 
HETATM   12  C   UNL     1      46.010  -9.615  10.031  1.00  0.00     0.153 C 
HETATM   13  O   UNL     1      46.054 -10.439   7.400  1.00  0.00    -0.267 OA
BRANCH  11  14
HETATM   14  C   UNL     1      43.709 -10.623  10.226  1.00  0.00     0.158 C 
BRANCH  14  15
HETATM   15  C   UNL     1      42.780  -9.434  10.546  1.00  0.00     0.151 A 
HETATM   16  O   UNL     1      43.541  -8.393  11.217  1.00  0.00    -0.343 OA
HETATM   17  C   UNL     1      42.978  -8.276  12.458  1.00  0.00     0.075 A 
HETATM   18  C   UNL     1      41.881  -9.091  12.662  1.00  0.00    -0.022 A 
HETATM   19  C   UNL     1      43.441  -7.421  13.437  1.00  0.00     0.037 A 
HETATM   20  C   UNL     1      41.601  -9.872  11.441  1.00  0.00     0.075 A 
HETATM   21  C   UNL     1      41.198  -9.078  13.866  1.00  0.00     0.010 A 
HETATM   22  C   UNL     1      41.649  -8.221  14.872  1.00  0.00     0.001 A 
HETATM   23  C   UNL     1      42.764  -7.396  14.659  1.00  0.00     0.003 A 
ENDBRANCH  14  15
ENDBRANCH  11  14
ENDBRANCH   1  10
BRANCH   3  24
HETATM   24  N   UNL     1      42.951 -14.576   5.915  1.00  0.00    -0.323 N 
HETATM   25  C   UNL     1      42.898 -15.684   6.748  1.00  0.00     0.246 C 
HETATM   26  O   UNL     1      42.658 -15.697   7.950  1.00  0.00    -0.271 OA
HETATM   27  H   UNL     1      43.114 -14.815   4.947  1.00  0.00     0.169 HD
BRANCH  25  28
HETATM   28  C   UNL     1      43.108 -16.987   5.967  1.00  0.00     0.270 C 
BRANCH  28  29
HETATM   29  O   UNL     1      43.295 -18.120   6.818  1.00  0.00    -0.387 OA
HETATM   30  C   UNL     1      43.578 -19.300   6.066  1.00  0.00     0.202 C 
ENDBRANCH  28  29
ENDBRANCH  25  28
ENDBRANCH   3  24
BRANCH   8  31
HETATM   31  C   UNL     1      40.063 -13.784   4.609  1.00  0.00     0.134 C 
BRANCH  31  32
HETATM   32  C   UNL     1      40.256 -13.889   3.095  1.00  0.00     0.058 C 
BRANCH  32  33
HETATM   33  C   UNL     1      41.334 -14.860   2.672  1.00  0.00    -0.057 A 
HETATM   34  C   UNL     1      42.551 -14.431   2.126  1.00  0.00     0.007 A 
HETATM   35  C   UNL     1      43.521 -15.359   1.737  1.00  0.00     0.001 A 
HETATM   36  C   UNL     1      43.280 -16.725   1.869  1.00  0.00     0.000 A 
HETATM   37  C   UNL     1      42.065 -17.166   2.387  1.00  0.00     0.001 A 
HETATM   38  C   UNL     1      41.098 -16.241   2.783  1.00  0.00     0.007 A 
ENDBRANCH  32  33
ENDBRANCH  31  32
ENDBRANCH   8  31
TORSDOF 9
ENDMDL
MODEL 9
REMARK VINA RESULT:      -8.4      3.894      6.060
REMARK  9 active torsions:
REMARK  status: ('A' for Active; 'I' for Inactive)
REMARK       I    between atoms: N_2  and  C_3 
REMARK    1  A    between atoms: N_2  and  C_28 
REMARK    2  A    between atoms: C_3  and  C_4 
REMARK    3  A    between atoms: C_6  and  N_7 
REMARK       I    between atoms: N_7  and  C_8 
REMARK    4  A    between atoms: C_8  and  C_9 
REMARK    5  A    between atoms: C_9  and  O_10 
REMARK    6  A    between atoms: N_17  and  C_18 
REMARK    7  A    between atoms: C_18  and  C_19 
REMARK    8  A    between atoms: C_19  and  C_20 
REMARK    9  A    between atoms: C_28  and  C_29 
ROOT
HETATM    1  C   UNL     1      40.060  -9.568   6.639  1.00  0.00     0.036 A 
HETATM    2  C   UNL     1      41.457  -9.657   6.611  1.00  0.00     0.049 A 
HETATM    3  C   UNL     1      42.126 -10.862   6.327  1.00  0.00     0.065 A 
HETATM    4  C   UNL     1      41.309 -11.997   6.110  1.00  0.00     0.091 A 
HETATM    5  C   UNL     1      39.909 -11.903   6.116  1.00  0.00     0.088 A 
HETATM    6  N   UNL     1      39.312 -13.113   5.877  1.00  0.00    -0.242 NA
HETATM    7  C   UNL     1      40.303 -13.957   5.745  1.00  0.00     0.210 A 
HETATM    8  N   UNL     1      41.522 -13.339   5.865  1.00  0.00    -0.337 N 
HETATM    9  C   UNL     1      39.273 -10.678   6.344  1.00  0.00     0.051 A 
ENDROOT
BRANCH   1  10
HETATM   10  C   UNL     1      39.441  -8.240   6.866  1.00  0.00     0.253 C 
HETATM   11  N   UNL     1      39.286  -7.749   8.169  1.00  0.00    -0.350 N 
HETATM   12  C   UNL     1      38.520  -6.520   8.328  1.00  0.00     0.153 C 
HETATM   13  O   UNL     1      39.075  -7.627   5.864  1.00  0.00    -0.267 OA
BRANCH  11  14
HETATM   14  C   UNL     1      39.765  -8.440   9.383  1.00  0.00     0.158 C 
BRANCH  14  15
HETATM   15  C   UNL     1      39.623  -7.687  10.722  1.00  0.00     0.151 A 
HETATM   16  O   UNL     1      40.839  -6.936  10.985  1.00  0.00    -0.343 OA
HETATM   17  C   UNL     1      41.354  -7.473  12.133  1.00  0.00     0.075 A 
HETATM   18  C   UNL     1      40.573  -8.466  12.695  1.00  0.00    -0.022 A 
HETATM   19  C   UNL     1      42.543  -7.071  12.706  1.00  0.00     0.037 A 
HETATM   20  C   UNL     1      39.355  -8.665  11.886  1.00  0.00     0.075 A 
HETATM   21  C   UNL     1      40.958  -9.098  13.865  1.00  0.00     0.010 A 
HETATM   22  C   UNL     1      42.159  -8.708  14.462  1.00  0.00     0.001 A 
HETATM   23  C   UNL     1      42.947  -7.699  13.886  1.00  0.00     0.003 A 
ENDBRANCH  14  15
ENDBRANCH  11  14
ENDBRANCH   1  10
BRANCH   3  24
HETATM   24  N   UNL     1      43.525 -10.934   6.216  1.00  0.00    -0.323 N 
HETATM   25  C   UNL     1      44.442 -11.349   7.171  1.00  0.00     0.246 C 
HETATM   26  O   UNL     1      44.201 -11.859   8.258  1.00  0.00    -0.271 OA
HETATM   27  H   UNL     1      43.959 -10.590   5.371  1.00  0.00     0.169 HD
BRANCH  25  28
HETATM   28  C   UNL     1      45.885 -11.168   6.682  1.00  0.00     0.270 C 
BRANCH  28  29
HETATM   29  O   UNL     1      46.732 -10.568   7.664  1.00  0.00    -0.387 OA
HETATM   30  C   UNL     1      46.321  -9.235   7.967  1.00  0.00     0.202 C 
ENDBRANCH  28  29
ENDBRANCH  25  28
ENDBRANCH   3  24
BRANCH   8  31
HETATM   31  C   UNL     1      42.767 -14.079   5.765  1.00  0.00     0.134 C 
BRANCH  31  32
HETATM   32  C   UNL     1      42.571 -15.563   6.087  1.00  0.00     0.058 C 
BRANCH  32  33
HETATM   33  C   UNL     1      42.973 -16.499   4.972  1.00  0.00    -0.057 A 
HETATM   34  C   UNL     1      42.406 -16.420   3.692  1.00  0.00     0.007 A 
HETATM   35  C   UNL     1      42.795 -17.311   2.687  1.00  0.00     0.001 A 
HETATM   36  C   UNL     1      43.738 -18.301   2.953  1.00  0.00     0.000 A 
HETATM   37  C   UNL     1      44.291 -18.407   4.227  1.00  0.00     0.001 A 
HETATM   38  C   UNL     1      43.909 -17.514   5.229  1.00  0.00     0.007 A 
ENDBRANCH  32  33
ENDBRANCH  31  32
ENDBRANCH   8  31
TORSDOF 9
ENDMDL
MODEL 10
REMARK VINA RESULT:      -8.3      3.272      8.783
REMARK  9 active torsions:
REMARK  status: ('A' for Active; 'I' for Inactive)
REMARK       I    between atoms: N_2  and  C_3 
REMARK    1  A    between atoms: N_2  and  C_28 
REMARK    2  A    between atoms: C_3  and  C_4 
REMARK    3  A    between atoms: C_6  and  N_7 
REMARK       I    between atoms: N_7  and  C_8 
REMARK    4  A    between atoms: C_8  and  C_9 
REMARK    5  A    between atoms: C_9  and  O_10 
REMARK    6  A    between atoms: N_17  and  C_18 
REMARK    7  A    between atoms: C_18  and  C_19 
REMARK    8  A    between atoms: C_19  and  C_20 
REMARK    9  A    between atoms: C_28  and  C_29 
ROOT
HETATM    1  C   UNL     1      40.521 -11.591   4.275  1.00  0.00     0.036 A 
HETATM    2  C   UNL     1      41.835 -11.358   4.702  1.00  0.00     0.049 A 
HETATM    3  C   UNL     1      42.124 -10.777   5.951  1.00  0.00     0.065 A 
HETATM    4  C   UNL     1      41.013 -10.400   6.741  1.00  0.00     0.091 A 
HETATM    5  C   UNL     1      39.697 -10.653   6.323  1.00  0.00     0.088 A 
HETATM    6  N   UNL     1      38.775 -10.218   7.237  1.00  0.00    -0.242 NA
HETATM    7  C   UNL     1      39.481  -9.683   8.199  1.00  0.00     0.210 A 
HETATM    8  N   UNL     1      40.828  -9.774   7.958  1.00  0.00    -0.337 N 
HETATM    9  C   UNL     1      39.442 -11.286   5.102  1.00  0.00     0.051 A 
ENDROOT
BRANCH   1  10
HETATM   10  C   UNL     1      40.312 -12.282   2.980  1.00  0.00     0.253 C 
HETATM   11  N   UNL     1      40.575 -13.652   2.861  1.00  0.00    -0.350 N 
HETATM   12  C   UNL     1      40.511 -14.227   1.525  1.00  0.00     0.153 C 
HETATM   13  O   UNL     1      39.916 -11.585   2.046  1.00  0.00    -0.267 OA
BRANCH  11  14
HETATM   14  C   UNL     1      40.997 -14.520   3.980  1.00  0.00     0.158 C 
BRANCH  14  15
HETATM   15  C   UNL     1      42.499 -14.859   4.076  1.00  0.00     0.151 A 
HETATM   16  O   UNL     1      42.862 -15.754   2.990  1.00  0.00    -0.343 OA
HETATM   17  C   UNL     1      43.267 -16.912   3.596  1.00  0.00     0.075 A 
HETATM   18  C   UNL     1      43.267 -16.859   4.977  1.00  0.00    -0.022 A 
HETATM   19  C   UNL     1      43.655 -18.045   2.911  1.00  0.00     0.037 A 
HETATM   20  C   UNL     1      42.835 -15.523   5.429  1.00  0.00     0.075 A 
HETATM   21  C   UNL     1      43.661 -17.951   5.731  1.00  0.00     0.010 A 
HETATM   22  C   UNL     1      44.057 -19.110   5.059  1.00  0.00     0.001 A 
HETATM   23  C   UNL     1      44.054 -19.157   3.656  1.00  0.00     0.003 A 
ENDBRANCH  14  15
ENDBRANCH  11  14
ENDBRANCH   1  10
BRANCH   3  24
HETATM   24  N   UNL     1      43.442 -10.621   6.416  1.00  0.00    -0.323 N 
HETATM   25  C   UNL     1      44.187 -11.495   7.194  1.00  0.00     0.246 C 
HETATM   26  O   UNL     1      43.887 -12.637   7.520  1.00  0.00    -0.271 OA
HETATM   27  H   UNL     1      43.916  -9.748   6.233  1.00  0.00     0.169 HD
BRANCH  25  28
HETATM   28  C   UNL     1      45.545 -10.892   7.574  1.00  0.00     0.270 C 
BRANCH  28  29
HETATM   29  O   UNL     1      45.761 -10.859   8.987  1.00  0.00    -0.387 OA
HETATM   30  C   UNL     1      45.434  -9.583   9.537  1.00  0.00     0.202 C 
ENDBRANCH  28  29
ENDBRANCH  25  28
ENDBRANCH   3  24
BRANCH   8  31
HETATM   31  C   UNL     1      41.809  -9.237   8.885  1.00  0.00     0.134 C 
BRANCH  31  32
HETATM   32  C   UNL     1      41.186  -8.216   9.840  1.00  0.00     0.058 C 
BRANCH  32  33
HETATM   33  C   UNL     1      41.618  -8.367  11.279  1.00  0.00    -0.057 A 
HETATM   34  C   UNL     1      42.853  -7.891  11.740  1.00  0.00     0.007 A 
HETATM   35  C   UNL     1      43.225  -8.057  13.077  1.00  0.00     0.001 A 
HETATM   36  C   UNL     1      42.377  -8.717  13.964  1.00  0.00     0.000 A 
HETATM   37  C   UNL     1      41.158  -9.218  13.515  1.00  0.00     0.001 A 
HETATM   38  C   UNL     1      40.783  -9.046  12.181  1.00  0.00     0.007 A 
ENDBRANCH  32  33
ENDBRANCH  31  32
ENDBRANCH   8  31
TORSDOF 9
ENDMDL
