MODEL 1
REMARK VINA RESULT:      -9.9      0.000      0.000
REMARK  6 active torsions:
REMARK  status: ('A' for Active; 'I' for Inactive)
REMARK    1  A    between atoms: C_2  and  C_3 
REMARK       I    between atoms: C_3  and  N_4 
REMARK    2  A    between atoms: N_4  and  C_5 
REMARK    3  A    between atoms: C_16  and  N_17 
REMARK    4  A    between atoms: C_20  and  N_21 
REMARK    5  A    between atoms: N_21  and  C_24 
REMARK    6  A    between atoms: C_24  and  C_25 
ROOT
HETATM    1  C   UNL     1      44.125 -12.667   7.194  1.00  0.00     0.019 A 
HETATM    2  C   UNL     1      43.780 -11.337   7.421  1.00  0.00     0.032 A 
HETATM    3  C   UNL     1      42.979 -10.663   6.498  1.00  0.00     0.019 A 
HETATM    4  C   UNL     1      42.510 -11.336   5.361  1.00  0.00     0.030 A 
HETATM    5  C   UNL     1      42.828 -12.682   5.117  1.00  0.00     0.030 A 
HETATM    6  C   UNL     1      43.660 -13.323   6.050  1.00  0.00     0.030 A 
ENDROOT
BRANCH   5   7
HETATM    7  N   UNL     1      42.299 -13.400   4.050  1.00  0.00    -0.381 N 
HETATM    8  C   UNL     1      41.206 -14.328   4.312  1.00  0.00     0.125 C 
HETATM    9  C   UNL     1      40.224 -14.243   3.150  1.00  0.00     0.053 C 
HETATM   10  C   UNL     1      40.911 -14.442   1.797  1.00  0.00     0.189 C 
HETATM   11  C   UNL     1      42.136 -13.535   1.637  1.00  0.00     0.053 C 
HETATM   12  C   UNL     1      43.082 -13.597   2.836  1.00  0.00     0.125 C 
BRANCH  10  13
HETATM   13  N   UNL     1      41.332 -15.873   1.589  1.00  0.00    -0.067 N 
HETATM   14  H   UNL     1      40.990 -16.439   2.379  1.00  0.00     0.277 HD
HETATM   15  H   UNL     1      40.881 -16.278   0.760  1.00  0.00     0.277 HD
BRANCH  13  16
HETATM   16  C   UNL     1      42.802 -16.132   1.504  1.00  0.00     0.271 C 
BRANCH  16  17
HETATM   17  C   UNL     1      43.195 -17.207   2.476  1.00  0.00    -0.030 A 
HETATM   18  C   UNL     1      43.160 -18.557   2.090  1.00  0.00     0.048 A 
HETATM   19  C   UNL     1      43.575 -19.503   3.004  1.00  0.00     0.105 A 
HETATM   20  C   UNL     1      44.023 -19.159   4.255  1.00  0.00     0.105 A 
HETATM   21  O   UNL     1      43.601 -20.845   2.794  1.00  0.00    -0.323 OA
HETATM   22  O   UNL     1      44.385 -20.240   4.991  1.00  0.00    -0.323 OA
HETATM   23  C   UNL     1      44.079 -17.846   4.667  1.00  0.00     0.040 A 
HETATM   24  C   UNL     1      44.084 -21.314   4.075  1.00  0.00     0.352 A 
HETATM   25  C   UNL     1      43.661 -16.861   3.767  1.00  0.00     0.012 A 
ENDBRANCH  16  17
ENDBRANCH  13  16
ENDBRANCH  10  13
ENDBRANCH   5   7
BRANCH   2  26
HETATM   26  C   UNL     1      44.193 -10.712   8.699  1.00  0.00     0.252 C 
HETATM   27  N   UNL     1      43.212 -10.070   9.416  1.00  0.00    -0.344 N 
HETATM   28  H   UNL     1      42.310  -9.920   8.984  1.00  0.00     0.163 HD
HETATM   29  O   UNL     1      45.369 -10.771   9.040  1.00  0.00    -0.268 OA
BRANCH  27  30
HETATM   30  C   UNL     1      43.418  -9.474  10.737  1.00  0.00     0.171 C 
HETATM   31  C   UNL     1      42.896 -10.357  11.886  1.00  0.00     0.220 C 
HETATM   32  O   UNL     1      43.585 -11.249  12.380  1.00  0.00    -0.278 OA
HETATM   33  N   UNL     1      41.559 -10.229  12.191  1.00  0.00    -0.261 NA
HETATM   34  C   UNL     1      41.106  -8.987  12.779  1.00  0.00     0.095 C 
HETATM   35  H   UNL     1      41.003 -10.443  11.360  1.00  0.00     0.130 HD
HETATM   36  C   UNL     1      40.636  -7.967  11.746  1.00  0.00     0.015 C 
HETATM   37  C   UNL     1      41.621  -7.574  10.642  1.00  0.00     0.004 C 
HETATM   38  C   UNL     1      43.079  -7.981  10.833  1.00  0.00     0.034 C 
ENDBRANCH  27  30
ENDBRANCH   2  26
TORSDOF 6
ENDMDL
MODEL 2
REMARK VINA RESULT:      -9.6      4.420      7.968
REMARK  6 active torsions:
REMARK  status: ('A' for Active; 'I' for Inactive)
REMARK    1  A    between atoms: C_2  and  C_3 
REMARK       I    between atoms: C_3  and  N_4 
REMARK    2  A    between atoms: N_4  and  C_5 
REMARK    3  A    between atoms: C_16  and  N_17 
REMARK    4  A    between atoms: C_20  and  N_21 
REMARK    5  A    between atoms: N_21  and  C_24 
REMARK    6  A    between atoms: C_24  and  C_25 
ROOT
HETATM    1  C   UNL     1      42.864  -6.751  14.122  1.00  0.00     0.019 A 
HETATM    2  C   UNL     1      42.130  -7.477  15.057  1.00  0.00     0.032 A 
HETATM    3  C   UNL     1      41.693  -8.765  14.745  1.00  0.00     0.019 A 
HETATM    4  C   UNL     1      42.017  -9.328  13.501  1.00  0.00     0.030 A 
HETATM    5  C   UNL     1      42.772  -8.625  12.549  1.00  0.00     0.030 A 
HETATM    6  C   UNL     1      43.169  -7.319  12.882  1.00  0.00     0.030 A 
ENDROOT
BRANCH   5   7
HETATM    7  N   UNL     1      43.187  -9.192  11.348  1.00  0.00    -0.381 N 
HETATM    8  C   UNL     1      42.529  -8.769  10.118  1.00  0.00     0.125 C 
HETATM    9  C   UNL     1      43.586  -8.675   9.024  1.00  0.00     0.053 C 
HETATM   10  C   UNL     1      44.402  -9.963   8.895  1.00  0.00     0.189 C 
HETATM   11  C   UNL     1      44.952 -10.431  10.246  1.00  0.00     0.053 C 
HETATM   12  C   UNL     1      43.886 -10.470  11.342  1.00  0.00     0.125 C 
BRANCH  10  13
HETATM   13  N   UNL     1      43.592 -11.077   8.285  1.00  0.00    -0.067 N 
HETATM   14  H   UNL     1      44.040 -11.977   8.512  1.00  0.00     0.277 HD
HETATM   15  H   UNL     1      42.658 -11.135   8.708  1.00  0.00     0.277 HD
BRANCH  13  16
HETATM   16  C   UNL     1      43.440 -11.057   6.797  1.00  0.00     0.271 C 
BRANCH  16  17
HETATM   17  C   UNL     1      43.339 -12.459   6.269  1.00  0.00    -0.030 A 
HETATM   18  C   UNL     1      43.550 -13.554   7.123  1.00  0.00     0.048 A 
HETATM   19  C   UNL     1      43.399 -14.822   6.600  1.00  0.00     0.105 A 
HETATM   20  C   UNL     1      43.045 -15.031   5.291  1.00  0.00     0.105 A 
HETATM   21  O   UNL     1      43.569 -15.983   7.285  1.00  0.00    -0.323 OA
HETATM   22  O   UNL     1      42.948 -16.351   4.985  1.00  0.00    -0.323 OA
HETATM   23  C   UNL     1      42.823 -13.984   4.425  1.00  0.00     0.040 A 
HETATM   24  C   UNL     1      43.315 -16.955   6.244  1.00  0.00     0.352 A 
HETATM   25  C   UNL     1      42.971 -12.684   4.921  1.00  0.00     0.012 A 
ENDBRANCH  16  17
ENDBRANCH  13  16
ENDBRANCH  10  13
ENDBRANCH   5   7
BRANCH   2  26
HETATM   26  C   UNL     1      41.926  -6.889  16.402  1.00  0.00     0.252 C 
HETATM   27  N   UNL     1      41.829  -7.770  17.451  1.00  0.00    -0.344 N 
HETATM   28  H   UNL     1      41.747  -8.758  17.254  1.00  0.00     0.163 HD
HETATM   29  O   UNL     1      41.830  -5.671  16.512  1.00  0.00    -0.268 OA
BRANCH  27  30
HETATM   30  C   UNL     1      41.715  -7.366  18.853  1.00  0.00     0.171 C 
HETATM   31  C   UNL     1      42.723  -8.083  19.772  1.00  0.00     0.220 C 
HETATM   32  O   UNL     1      43.867  -7.659  19.931  1.00  0.00    -0.278 OA
HETATM   33  N   UNL     1      42.342  -9.320  20.243  1.00  0.00    -0.261 NA
HETATM   34  C   UNL     1      41.249  -9.387  21.188  1.00  0.00     0.095 C 
HETATM   35  H   UNL     1      42.154  -9.938  19.449  1.00  0.00     0.130 HD
HETATM   36  C   UNL     1      39.890  -9.580  20.525  1.00  0.00     0.015 C 
HETATM   37  C   UNL     1      39.467  -8.557  19.467  1.00  0.00     0.004 C 
HETATM   38  C   UNL     1      40.279  -7.268  19.384  1.00  0.00     0.034 C 
ENDBRANCH  27  30
ENDBRANCH   2  26
TORSDOF 6
ENDMDL
MODEL 3
REMARK VINA RESULT:      -9.6      4.513     13.158
REMARK  6 active torsions:
REMARK  status: ('A' for Active; 'I' for Inactive)
REMARK    1  A    between atoms: C_2  and  C_3 
REMARK       I    between atoms: C_3  and  N_4 
REMARK    2  A    between atoms: N_4  and  C_5 
REMARK    3  A    between atoms: C_16  and  N_17 
REMARK    4  A    between atoms: C_20  and  N_21 
REMARK    5  A    between atoms: N_21  and  C_24 
REMARK    6  A    between atoms: C_24  and  C_25 
ROOT
HETATM    1  C   UNL     1      43.607 -10.869  10.955  1.00  0.00     0.019 A 
HETATM    2  C   UNL     1      43.879 -10.186   9.771  1.00  0.00     0.032 A 
HETATM    3  C   UNL     1      43.684  -8.806   9.710  1.00  0.00     0.019 A 
HETATM    4  C   UNL     1      43.239  -8.114  10.846  1.00  0.00     0.030 A 
HETATM    5  C   UNL     1      42.975  -8.776  12.055  1.00  0.00     0.030 A 
HETATM    6  C   UNL     1      43.153 -10.169  12.076  1.00  0.00     0.030 A 
ENDROOT
BRANCH   5   7
HETATM    7  N   UNL     1      42.625  -8.104  13.222  1.00  0.00    -0.381 N 
HETATM    8  C   UNL     1      43.192  -6.781  13.457  1.00  0.00     0.125 C 
HETATM    9  C   UNL     1      42.113  -5.908  14.086  1.00  0.00     0.053 C 
HETATM   10  C   UNL     1      41.491  -6.559  15.323  1.00  0.00     0.189 C 
HETATM   11  C   UNL     1      41.038  -7.997  15.048  1.00  0.00     0.053 C 
HETATM   12  C   UNL     1      42.118  -8.842  14.372  1.00  0.00     0.125 C 
BRANCH  10  13
HETATM   13  N   UNL     1      42.441  -6.561  16.491  1.00  0.00    -0.067 N 
HETATM   14  H   UNL     1      42.739  -7.529  16.676  1.00  0.00     0.277 HD
HETATM   15  H   UNL     1      43.309  -6.057  16.268  1.00  0.00     0.277 HD
BRANCH  13  16
HETATM   16  C   UNL     1      41.910  -6.038  17.787  1.00  0.00     0.271 C 
BRANCH  16  17
HETATM   17  C   UNL     1      41.364  -7.167  18.615  1.00  0.00    -0.030 A 
HETATM   18  C   UNL     1      42.211  -7.891  19.470  1.00  0.00     0.048 A 
HETATM   19  C   UNL     1      41.652  -8.886  20.244  1.00  0.00     0.105 A 
HETATM   20  C   UNL     1      40.310  -9.173  20.203  1.00  0.00     0.105 A 
HETATM   21  O   UNL     1      42.326  -9.680  21.117  1.00  0.00    -0.323 OA
HETATM   22  O   UNL     1      39.971 -10.183  21.044  1.00  0.00    -0.323 OA
HETATM   23  C   UNL     1      39.448  -8.481  19.383  1.00  0.00     0.040 A 
HETATM   24  C   UNL     1      41.258 -10.528  21.599  1.00  0.00     0.352 A 
HETATM   25  C   UNL     1      39.981  -7.467  18.581  1.00  0.00     0.012 A 
ENDBRANCH  16  17
ENDBRANCH  13  16
ENDBRANCH  10  13
ENDBRANCH   5   7
BRANCH   2  26
HETATM   26  C   UNL     1      44.470 -10.943   8.643  1.00  0.00     0.252 C 
HETATM   27  N   UNL     1      43.594 -11.618   7.829  1.00  0.00    -0.344 N 
HETATM   28  H   UNL     1      42.626 -11.697   8.111  1.00  0.00     0.163 HD
HETATM   29  O   UNL     1      45.689 -10.954   8.505  1.00  0.00    -0.268 OA
BRANCH  27  30
HETATM   30  C   UNL     1      43.990 -12.342   6.620  1.00  0.00     0.171 C 
HETATM   31  C   UNL     1      43.306 -11.811   5.346  1.00  0.00     0.220 C 
HETATM   32  O   UNL     1      43.769 -10.864   4.711  1.00  0.00    -0.278 OA
HETATM   33  N   UNL     1      42.055 -12.318   5.071  1.00  0.00    -0.261 NA
HETATM   34  C   UNL     1      41.947 -13.711   4.694  1.00  0.00     0.095 C 
HETATM   35  H   UNL     1      41.433 -12.123   5.860  1.00  0.00     0.130 HD
HETATM   36  C   UNL     1      41.709 -14.640   5.879  1.00  0.00     0.015 C 
HETATM   37  C   UNL     1      42.720 -14.594   7.029  1.00  0.00     0.004 C 
HETATM   38  C   UNL     1      44.036 -13.869   6.768  1.00  0.00     0.034 C 
ENDBRANCH  27  30
ENDBRANCH   2  26
TORSDOF 6
ENDMDL
MODEL 4
REMARK VINA RESULT:      -9.4      4.484      7.803
REMARK  6 active torsions:
REMARK  status: ('A' for Active; 'I' for Inactive)
REMARK    1  A    between atoms: C_2  and  C_3 
REMARK       I    between atoms: C_3  and  N_4 
REMARK    2  A    between atoms: N_4  and  C_5 
REMARK    3  A    between atoms: C_16  and  N_17 
REMARK    4  A    between atoms: C_20  and  N_21 
REMARK    5  A    between atoms: N_21  and  C_24 
REMARK    6  A    between atoms: C_24  and  C_25 
ROOT
HETATM    1  C   UNL     1      41.272  -9.056  14.324  1.00  0.00     0.019 A 
HETATM    2  C   UNL     1      41.873  -7.917  14.855  1.00  0.00     0.032 A 
HETATM    3  C   UNL     1      42.945  -7.325  14.185  1.00  0.00     0.019 A 
HETATM    4  C   UNL     1      43.392  -7.867  12.971  1.00  0.00     0.030 A 
HETATM    5  C   UNL     1      42.791  -9.002  12.405  1.00  0.00     0.030 A 
HETATM    6  C   UNL     1      41.735  -9.592  13.119  1.00  0.00     0.030 A 
ENDROOT
BRANCH   5   7
HETATM    7  N   UNL     1      43.151  -9.504  11.158  1.00  0.00    -0.381 N 
HETATM    8  C   UNL     1      42.212  -9.354  10.053  1.00  0.00     0.125 C 
HETATM    9  C   UNL     1      43.009  -9.038   8.794  1.00  0.00     0.053 C 
HETATM   10  C   UNL     1      44.123 -10.057   8.543  1.00  0.00     0.189 C 
HETATM   11  C   UNL     1      44.992 -10.273   9.787  1.00  0.00     0.053 C 
HETATM   12  C   UNL     1      44.171 -10.539  11.049  1.00  0.00     0.125 C 
BRANCH  10  13
HETATM   13  N   UNL     1      43.573 -11.386   8.095  1.00  0.00    -0.067 N 
HETATM   14  H   UNL     1      44.261 -12.121   8.313  1.00  0.00     0.277 HD
HETATM   15  H   UNL     1      42.735 -11.643   8.631  1.00  0.00     0.277 HD
BRANCH  13  16
HETATM   16  C   UNL     1      43.267 -11.526   6.638  1.00  0.00     0.271 C 
BRANCH  16  17
HETATM   17  C   UNL     1      43.227 -12.978   6.256  1.00  0.00    -0.030 A 
HETATM   18  C   UNL     1      43.390 -13.972   7.235  1.00  0.00     0.048 A 
HETATM   19  C   UNL     1      43.297 -15.291   6.840  1.00  0.00     0.105 A 
HETATM   20  C   UNL     1      43.045 -15.645   5.538  1.00  0.00     0.105 A 
HETATM   21  O   UNL     1      43.433 -16.370   7.655  1.00  0.00    -0.323 OA
HETATM   22  O   UNL     1      42.991 -16.991   5.369  1.00  0.00    -0.323 OA
HETATM   23  C   UNL     1      42.872 -14.700   4.553  1.00  0.00     0.040 A 
HETATM   24  C   UNL     1      43.272 -17.451   6.708  1.00  0.00     0.352 A 
HETATM   25  C   UNL     1      42.964 -13.352   4.917  1.00  0.00     0.012 A 
ENDBRANCH  16  17
ENDBRANCH  13  16
ENDBRANCH  10  13
ENDBRANCH   5   7
BRANCH   2  26
HETATM   26  C   UNL     1      41.280  -7.310  16.069  1.00  0.00     0.252 C 
HETATM   27  N   UNL     1      41.706  -7.808  17.277  1.00  0.00    -0.344 N 
HETATM   28  H   UNL     1      42.273  -8.646  17.288  1.00  0.00     0.163 HD
HETATM   29  O   UNL     1      40.436  -6.429  15.945  1.00  0.00    -0.268 OA
BRANCH  27  30
HETATM   30  C   UNL     1      41.296  -7.272  18.575  1.00  0.00     0.171 C 
HETATM   31  C   UNL     1      42.074  -6.005  18.979  1.00  0.00     0.220 C 
HETATM   32  O   UNL     1      41.721  -4.886  18.609  1.00  0.00    -0.278 OA
HETATM   33  N   UNL     1      43.285  -6.208  19.602  1.00  0.00    -0.261 NA
HETATM   34  C   UNL     1      43.285  -6.777  20.932  1.00  0.00     0.095 C 
HETATM   35  H   UNL     1      43.890  -6.760  18.989  1.00  0.00     0.130 HD
HETATM   36  C   UNL     1      43.394  -8.298  20.937  1.00  0.00     0.015 C 
HETATM   37  C   UNL     1      42.346  -9.085  20.144  1.00  0.00     0.004 C 
HETATM   38  C   UNL     1      41.110  -8.322  19.679  1.00  0.00     0.034 C 
ENDBRANCH  27  30
ENDBRANCH   2  26
TORSDOF 6
ENDMDL
MODEL 5
REMARK VINA RESULT:      -9.2      4.183     12.778
REMARK  6 active torsions:
REMARK  status: ('A' for Active; 'I' for Inactive)
REMARK    1  A    between atoms: C_2  and  C_3 
REMARK       I    between atoms: C_3  and  N_4 
REMARK    2  A    between atoms: N_4  and  C_5 
REMARK    3  A    between atoms: C_16  and  N_17 
REMARK    4  A    between atoms: C_20  and  N_21 
REMARK    5  A    between atoms: N_21  and  C_24 
REMARK    6  A    between atoms: C_24  and  C_25 
ROOT
HETATM    1  C   UNL     1      42.773  -9.611   8.659  1.00  0.00     0.019 A 
HETATM    2  C   UNL     1      43.991 -10.283   8.735  1.00  0.00     0.032 A 
HETATM    3  C   UNL     1      44.790 -10.140   9.870  1.00  0.00     0.019 A 
HETATM    4  C   UNL     1      44.349  -9.341  10.936  1.00  0.00     0.030 A 
HETATM    5  C   UNL     1      43.118  -8.670  10.893  1.00  0.00     0.030 A 
HETATM    6  C   UNL     1      42.351  -8.809   9.723  1.00  0.00     0.030 A 
ENDROOT
BRANCH   5   7
HETATM    7  N   UNL     1      42.614  -7.949  11.971  1.00  0.00    -0.381 N 
HETATM    8  C   UNL     1      42.947  -8.395  13.319  1.00  0.00     0.125 C 
HETATM    9  C   UNL     1      43.184  -7.161  14.180  1.00  0.00     0.053 C 
HETATM   10  C   UNL     1      42.017  -6.174  14.110  1.00  0.00     0.189 C 
HETATM   11  C   UNL     1      41.624  -5.851  12.665  1.00  0.00     0.053 C 
HETATM   12  C   UNL     1      41.440  -7.101  11.805  1.00  0.00     0.125 C 
BRANCH  10  13
HETATM   13  N   UNL     1      40.805  -6.689  14.842  1.00  0.00    -0.067 N 
HETATM   14  H   UNL     1      39.998  -6.673  14.202  1.00  0.00     0.277 HD
HETATM   15  H   UNL     1      40.916  -7.677  15.099  1.00  0.00     0.277 HD
BRANCH  13  16
HETATM   16  C   UNL     1      40.382  -5.927  16.057  1.00  0.00     0.271 C 
BRANCH  16  17
HETATM   17  C   UNL     1      40.689  -6.718  17.296  1.00  0.00    -0.030 A 
HETATM   18  C   UNL     1      39.672  -7.432  17.950  1.00  0.00     0.048 A 
HETATM   19  C   UNL     1      40.015  -8.181  19.056  1.00  0.00     0.105 A 
HETATM   20  C   UNL     1      41.306  -8.250  19.517  1.00  0.00     0.105 A 
HETATM   21  O   UNL     1      39.156  -8.924  19.804  1.00  0.00    -0.323 OA
HETATM   22  O   UNL     1      41.424  -9.043  20.612  1.00  0.00    -0.323 OA
HETATM   23  C   UNL     1      42.332  -7.571  18.898  1.00  0.00     0.040 A 
HETATM   24  C   UNL     1      40.052  -9.444  20.814  1.00  0.00     0.352 A 
HETATM   25  C   UNL     1      42.019  -6.798  17.775  1.00  0.00     0.012 A 
ENDBRANCH  16  17
ENDBRANCH  13  16
ENDBRANCH  10  13
ENDBRANCH   5   7
BRANCH   2  26
HETATM   26  C   UNL     1      44.349 -11.215   7.640  1.00  0.00     0.252 C 
HETATM   27  N   UNL     1      43.562 -12.331   7.501  1.00  0.00    -0.344 N 
HETATM   28  H   UNL     1      42.886 -12.546   8.221  1.00  0.00     0.163 HD
HETATM   29  O   UNL     1      45.326 -10.967   6.941  1.00  0.00    -0.268 OA
BRANCH  27  30
HETATM   30  C   UNL     1      43.713 -13.312   6.425  1.00  0.00     0.171 C 
HETATM   31  C   UNL     1      42.721 -13.096   5.266  1.00  0.00     0.220 C 
HETATM   32  O   UNL     1      42.963 -12.317   4.345  1.00  0.00    -0.278 OA
HETATM   33  N   UNL     1      41.475 -13.664   5.419  1.00  0.00    -0.261 NA
HETATM   34  C   UNL     1      41.372 -15.107   5.398  1.00  0.00     0.095 C 
HETATM   35  H   UNL     1      41.041 -13.297   6.270  1.00  0.00     0.130 HD
HETATM   36  C   UNL     1      41.474 -15.739   6.782  1.00  0.00     0.015 C 
HETATM   37  C   UNL     1      42.718 -15.420   7.615  1.00  0.00     0.004 C 
HETATM   38  C   UNL     1      43.890 -14.763   6.892  1.00  0.00     0.034 C 
ENDBRANCH  27  30
ENDBRANCH   2  26
TORSDOF 6
ENDMDL
MODEL 6
REMARK VINA RESULT:      -9.2      3.507      5.696
REMARK  6 active torsions:
REMARK  status: ('A' for Active; 'I' for Inactive)
REMARK    1  A    between atoms: C_2  and  C_3 
REMARK       I    between atoms: C_3  and  N_4 
REMARK    2  A    between atoms: N_4  and  C_5 
REMARK    3  A    between atoms: C_16  and  N_17 
REMARK    4  A    between atoms: C_20  and  N_21 
REMARK    5  A    between atoms: N_21  and  C_24 
REMARK    6  A    between atoms: C_24  and  C_25 
ROOT
HETATM    1  C   UNL     1      42.671 -11.371   6.303  1.00  0.00     0.019 A 
HETATM    2  C   UNL     1      43.633 -12.039   7.058  1.00  0.00     0.032 A 
HETATM    3  C   UNL     1      44.000 -13.340   6.715  1.00  0.00     0.019 A 
HETATM    4  C   UNL     1      43.416 -13.958   5.599  1.00  0.00     0.030 A 
HETATM    5  C   UNL     1      42.459 -13.301   4.811  1.00  0.00     0.030 A 
HETATM    6  C   UNL     1      42.089 -12.002   5.200  1.00  0.00     0.030 A 
ENDROOT
BRANCH   5   7
HETATM    7  N   UNL     1      41.934 -13.852   3.646  1.00  0.00    -0.381 N 
HETATM    8  C   UNL     1      42.792 -14.709   2.838  1.00  0.00     0.125 C 
HETATM    9  C   UNL     1      41.946 -15.859   2.304  1.00  0.00     0.053 C 
HETATM   10  C   UNL     1      40.687 -15.366   1.587  1.00  0.00     0.189 C 
HETATM   11  C   UNL     1      39.900 -14.361   2.435  1.00  0.00     0.053 C 
HETATM   12  C   UNL     1      40.777 -13.244   3.001  1.00  0.00     0.125 C 
BRANCH  10  13
HETATM   13  N   UNL     1      41.013 -14.734   0.258  1.00  0.00    -0.067 N 
HETATM   14  H   UNL     1      41.698 -13.980   0.408  1.00  0.00     0.277 HD
HETATM   15  H   UNL     1      41.486 -15.400  -0.365  1.00  0.00     0.277 HD
BRANCH  13  16
HETATM   16  C   UNL     1      39.873 -14.115  -0.485  1.00  0.00     0.271 C 
BRANCH  16  17
HETATM   17  C   UNL     1      40.284 -12.783  -1.045  1.00  0.00    -0.030 A 
HETATM   18  C   UNL     1      40.988 -11.867  -0.247  1.00  0.00     0.048 A 
HETATM   19  C   UNL     1      41.384 -10.677  -0.822  1.00  0.00     0.105 A 
HETATM   20  C   UNL     1      41.118 -10.380  -2.135  1.00  0.00     0.105 A 
HETATM   21  O   UNL     1      42.067  -9.685  -0.193  1.00  0.00    -0.323 OA
HETATM   22  O   UNL     1      41.597  -9.163  -2.498  1.00  0.00    -0.323 OA
HETATM   23  C   UNL     1      40.437 -11.255  -2.951  1.00  0.00     0.040 A 
HETATM   24  C   UNL     1      42.170  -8.707  -1.254  1.00  0.00     0.352 A 
HETATM   25  C   UNL     1      40.016 -12.470  -2.399  1.00  0.00     0.012 A 
ENDBRANCH  16  17
ENDBRANCH  13  16
ENDBRANCH  10  13
ENDBRANCH   5   7
BRANCH   2  26
HETATM   26  C   UNL     1      44.312 -11.296   8.146  1.00  0.00     0.252 C 
HETATM   27  N   UNL     1      43.504 -10.717   9.093  1.00  0.00    -0.344 N 
HETATM   28  H   UNL     1      42.506 -10.688   8.933  1.00  0.00     0.163 HD
HETATM   29  O   UNL     1      45.535 -11.212   8.137  1.00  0.00    -0.268 OA
BRANCH  27  30
HETATM   30  C   UNL     1      44.001 -10.022  10.282  1.00  0.00     0.171 C 
HETATM   31  C   UNL     1      43.243 -10.405  11.566  1.00  0.00     0.220 C 
HETATM   32  O   UNL     1      43.557 -11.391  12.233  1.00  0.00    -0.278 OA
HETATM   33  N   UNL     1      42.081  -9.708  11.817  1.00  0.00    -0.261 NA
HETATM   34  C   UNL     1      42.183  -8.304  12.151  1.00  0.00     0.095 C 
HETATM   35  H   UNL     1      41.439  -9.832  11.030  1.00  0.00     0.130 HD
HETATM   36  C   UNL     1      42.089  -7.387  10.937  1.00  0.00     0.015 C 
HETATM   37  C   UNL     1      43.085  -7.620   9.796  1.00  0.00     0.004 C 
HETATM   38  C   UNL     1      44.277  -8.525  10.088  1.00  0.00     0.034 C 
ENDBRANCH  27  30
ENDBRANCH   2  26
TORSDOF 6
ENDMDL
MODEL 7
REMARK VINA RESULT:      -9.2      1.598      2.111
REMARK  6 active torsions:
REMARK  status: ('A' for Active; 'I' for Inactive)
REMARK    1  A    between atoms: C_2  and  C_3 
REMARK       I    between atoms: C_3  and  N_4 
REMARK    2  A    between atoms: N_4  and  C_5 
REMARK    3  A    between atoms: C_16  and  N_17 
REMARK    4  A    between atoms: C_20  and  N_21 
REMARK    5  A    between atoms: N_21  and  C_24 
REMARK    6  A    between atoms: C_24  and  C_25 
ROOT
HETATM    1  C   UNL     1      44.027 -11.324   5.758  1.00  0.00     0.019 A 
HETATM    2  C   UNL     1      43.308 -10.644   6.738  1.00  0.00     0.032 A 
HETATM    3  C   UNL     1      41.927 -10.495   6.604  1.00  0.00     0.019 A 
HETATM    4  C   UNL     1      41.271 -11.051   5.495  1.00  0.00     0.030 A 
HETATM    5  C   UNL     1      41.969 -11.756   4.503  1.00  0.00     0.030 A 
HETATM    6  C   UNL     1      43.362 -11.863   4.653  1.00  0.00     0.030 A 
ENDROOT
BRANCH   5   7
HETATM    7  N   UNL     1      41.333 -12.398   3.445  1.00  0.00    -0.381 N 
HETATM    8  C   UNL     1      40.062 -13.064   3.702  1.00  0.00     0.125 C 
HETATM    9  C   UNL     1      39.155 -12.831   2.501  1.00  0.00     0.053 C 
HETATM   10  C   UNL     1      39.823 -13.230   1.184  1.00  0.00     0.189 C 
HETATM   11  C   UNL     1      41.216 -12.607   1.035  1.00  0.00     0.053 C 
HETATM   12  C   UNL     1      42.093 -12.809   2.271  1.00  0.00     0.125 C 
BRANCH  10  13
HETATM   13  N   UNL     1      39.942 -14.726   1.048  1.00  0.00    -0.067 N 
HETATM   14  H   UNL     1      39.279 -15.048   0.328  1.00  0.00     0.277 HD
HETATM   15  H   UNL     1      40.867 -14.997   0.693  1.00  0.00     0.277 HD
BRANCH  13  16
HETATM   16  C   UNL     1      39.647 -15.534   2.271  1.00  0.00     0.271 C 
BRANCH  16  17
HETATM   17  C   UNL     1      40.914 -16.134   2.811  1.00  0.00    -0.030 A 
HETATM   18  C   UNL     1      41.075 -16.323   4.193  1.00  0.00     0.048 A 
HETATM   19  C   UNL     1      42.237 -16.922   4.634  1.00  0.00     0.105 A 
HETATM   20  C   UNL     1      43.216 -17.338   3.766  1.00  0.00     0.105 A 
HETATM   21  O   UNL     1      42.552 -17.174   5.932  1.00  0.00    -0.323 OA
HETATM   22  O   UNL     1      44.271 -17.902   4.407  1.00  0.00    -0.323 OA
HETATM   23  C   UNL     1      43.091 -17.177   2.404  1.00  0.00     0.040 A 
HETATM   24  C   UNL     1      43.863 -17.767   5.785  1.00  0.00     0.352 A 
HETATM   25  C   UNL     1      41.927 -16.569   1.922  1.00  0.00     0.012 A 
ENDBRANCH  16  17
ENDBRANCH  13  16
ENDBRANCH  10  13
ENDBRANCH   5   7
BRANCH   2  26
HETATM   26  C   UNL     1      44.028 -10.191   7.951  1.00  0.00     0.252 C 
HETATM   27  N   UNL     1      43.257  -9.709   8.980  1.00  0.00    -0.344 N 
HETATM   28  H   UNL     1      42.272  -9.544   8.818  1.00  0.00     0.163 HD
HETATM   29  O   UNL     1      45.253 -10.240   7.970  1.00  0.00    -0.268 OA
BRANCH  27  30
HETATM   30  C   UNL     1      43.788  -9.301  10.282  1.00  0.00     0.171 C 
HETATM   31  C   UNL     1      43.872 -10.461  11.291  1.00  0.00     0.220 C 
HETATM   32  O   UNL     1      44.845 -11.213  11.332  1.00  0.00    -0.278 OA
HETATM   33  N   UNL     1      42.724 -10.733  12.002  1.00  0.00    -0.261 NA
HETATM   34  C   UNL     1      42.273  -9.761  12.974  1.00  0.00     0.095 C 
HETATM   35  H   UNL     1      41.967 -10.946  11.348  1.00  0.00     0.130 HD
HETATM   36  C   UNL     1      41.292  -8.745  12.400  1.00  0.00     0.015 C 
HETATM   37  C   UNL     1      41.742  -7.938  11.179  1.00  0.00     0.004 C 
HETATM   38  C   UNL     1      43.225  -7.981  10.825  1.00  0.00     0.034 C 
ENDBRANCH  27  30
ENDBRANCH   2  26
TORSDOF 6
ENDMDL
MODEL 8
REMARK VINA RESULT:      -8.7      1.871      2.726
REMARK  6 active torsions:
REMARK  status: ('A' for Active; 'I' for Inactive)
REMARK    1  A    between atoms: C_2  and  C_3 
REMARK       I    between atoms: C_3  and  N_4 
REMARK    2  A    between atoms: N_4  and  C_5 
REMARK    3  A    between atoms: C_16  and  N_17 
REMARK    4  A    between atoms: C_20  and  N_21 
REMARK    5  A    between atoms: N_21  and  C_24 
REMARK    6  A    between atoms: C_24  and  C_25 
ROOT
HETATM    1  C   UNL     1      42.049  -9.356   8.719  1.00  0.00     0.019 A 
HETATM    2  C   UNL     1      43.135  -9.551   9.570  1.00  0.00     0.032 A 
HETATM    3  C   UNL     1      44.138 -10.453   9.215  1.00  0.00     0.019 A 
HETATM    4  C   UNL     1      44.059 -11.137   7.993  1.00  0.00     0.030 A 
HETATM    5  C   UNL     1      42.986 -10.944   7.109  1.00  0.00     0.030 A 
HETATM    6  C   UNL     1      41.977 -10.053   7.510  1.00  0.00     0.030 A 
ENDROOT
BRANCH   5   7
HETATM    7  N   UNL     1      42.929 -11.536   5.851  1.00  0.00    -0.381 N 
HETATM    8  C   UNL     1      41.839 -12.464   5.571  1.00  0.00     0.125 C 
HETATM    9  C   UNL     1      41.383 -12.239   4.135  1.00  0.00     0.053 C 
HETATM   10  C   UNL     1      42.545 -12.308   3.141  1.00  0.00     0.189 C 
HETATM   11  C   UNL     1      43.716 -11.415   3.564  1.00  0.00     0.053 C 
HETATM   12  C   UNL     1      44.125 -11.621   5.023  1.00  0.00     0.125 C 
BRANCH  10  13
HETATM   13  N   UNL     1      43.045 -13.718   2.965  1.00  0.00    -0.067 N 
HETATM   14  H   UNL     1      43.578 -13.774   2.085  1.00  0.00     0.277 HD
HETATM   15  H   UNL     1      43.721 -13.968   3.697  1.00  0.00     0.277 HD
BRANCH  13  16
HETATM   16  C   UNL     1      42.008 -14.792   2.889  1.00  0.00     0.271 C 
BRANCH  16  17
HETATM   17  C   UNL     1      42.613 -16.121   3.241  1.00  0.00    -0.030 A 
HETATM   18  C   UNL     1      42.457 -17.220   2.380  1.00  0.00     0.048 A 
HETATM   19  C   UNL     1      43.072 -18.405   2.726  1.00  0.00     0.105 A 
HETATM   20  C   UNL     1      43.826 -18.528   3.866  1.00  0.00     0.105 A 
HETATM   21  O   UNL     1      43.019 -19.559   2.011  1.00  0.00    -0.323 OA
HETATM   22  O   UNL     1      44.341 -19.775   4.014  1.00  0.00    -0.323 OA
HETATM   23  C   UNL     1      44.008 -17.472   4.730  1.00  0.00     0.040 A 
HETATM   24  C   UNL     1      43.800 -20.439   2.852  1.00  0.00     0.352 A 
HETATM   25  C   UNL     1      43.394 -16.256   4.413  1.00  0.00     0.012 A 
ENDBRANCH  16  17
ENDBRANCH  13  16
ENDBRANCH  10  13
ENDBRANCH   5   7
BRANCH   2  26
HETATM   26  C   UNL     1      43.236  -8.709  10.785  1.00  0.00     0.252 C 
HETATM   27  N   UNL     1      42.221  -7.808  10.995  1.00  0.00    -0.344 N 
HETATM   28  H   UNL     1      41.546  -7.651  10.259  1.00  0.00     0.163 HD
HETATM   29  O   UNL     1      44.212  -8.832  11.517  1.00  0.00    -0.268 OA
BRANCH  27  30
HETATM   30  C   UNL     1      42.110  -6.959  12.183  1.00  0.00     0.171 C 
HETATM   31  C   UNL     1      41.448  -7.673  13.376  1.00  0.00     0.220 C 
HETATM   32  O   UNL     1      42.098  -8.368  14.156  1.00  0.00    -0.278 OA
HETATM   33  N   UNL     1      40.071  -7.654  13.407  1.00  0.00    -0.261 NA
HETATM   34  C   UNL     1      39.407  -6.390  13.639  1.00  0.00     0.095 C 
HETATM   35  H   UNL     1      39.710  -8.083  12.551  1.00  0.00     0.130 HD
HETATM   36  C   UNL     1      39.066  -5.643  12.355  1.00  0.00     0.015 C 
HETATM   37  C   UNL     1      40.213  -5.342  11.386  1.00  0.00     0.004 C 
HETATM   38  C   UNL     1      41.633  -5.526  11.911  1.00  0.00     0.034 C 
ENDBRANCH  27  30
ENDBRANCH   2  26
TORSDOF 6
ENDMDL
MODEL 9
REMARK VINA RESULT:      -8.6      4.933     13.387
REMARK  6 active torsions:
REMARK  status: ('A' for Active; 'I' for Inactive)
REMARK    1  A    between atoms: C_2  and  C_3 
REMARK       I    between atoms: C_3  and  N_4 
REMARK    2  A    between atoms: N_4  and  C_5 
REMARK    3  A    between atoms: C_16  and  N_17 
REMARK    4  A    between atoms: C_20  and  N_21 
REMARK    5  A    between atoms: N_21  and  C_24 
REMARK    6  A    between atoms: C_24  and  C_25 
ROOT
HETATM    1  C   UNL     1      43.105  -8.207  10.482  1.00  0.00     0.019 A 
HETATM    2  C   UNL     1      42.146  -8.860   9.711  1.00  0.00     0.032 A 
HETATM    3  C   UNL     1      40.905  -9.171  10.270  1.00  0.00     0.019 A 
HETATM    4  C   UNL     1      40.626  -8.802  11.594  1.00  0.00     0.030 A 
HETATM    5  C   UNL     1      41.568  -8.127  12.386  1.00  0.00     0.030 A 
HETATM    6  C   UNL     1      42.818  -7.856  11.803  1.00  0.00     0.030 A 
ENDROOT
BRANCH   5   7
HETATM    7  N   UNL     1      41.285  -7.666  13.668  1.00  0.00    -0.381 N 
HETATM    8  C   UNL     1      42.115  -8.135  14.771  1.00  0.00     0.125 C 
HETATM    9  C   UNL     1      42.336  -6.969  15.726  1.00  0.00     0.053 C 
HETATM   10  C   UNL     1      41.020  -6.316  16.156  1.00  0.00     0.189 C 
HETATM   11  C   UNL     1      40.132  -5.971  14.956  1.00  0.00     0.053 C 
HETATM   12  C   UNL     1      39.964  -7.140  13.985  1.00  0.00     0.125 C 
BRANCH  10  13
HETATM   13  N   UNL     1      40.244  -7.194  17.102  1.00  0.00    -0.067 N 
HETATM   14  H   UNL     1      39.255  -7.202  16.813  1.00  0.00     0.277 HD
HETATM   15  H   UNL     1      40.546  -8.174  17.034  1.00  0.00     0.277 HD
BRANCH  13  16
HETATM   16  C   UNL     1      40.249  -6.794  18.543  1.00  0.00     0.271 C 
BRANCH  16  17
HETATM   17  C   UNL     1      40.766  -7.922  19.390  1.00  0.00    -0.030 A 
HETATM   18  C   UNL     1      42.125  -7.979  19.740  1.00  0.00     0.048 A 
HETATM   19  C   UNL     1      42.539  -9.008  20.559  1.00  0.00     0.105 A 
HETATM   20  C   UNL     1      41.668  -9.954  21.037  1.00  0.00     0.105 A 
HETATM   21  O   UNL     1      43.813  -9.211  20.988  1.00  0.00    -0.323 OA
HETATM   22  O   UNL     1      42.282 -10.873  21.826  1.00  0.00    -0.323 OA
HETATM   23  C   UNL     1      40.328  -9.928  20.723  1.00  0.00     0.040 A 
HETATM   24  C   UNL     1      43.651 -10.420  21.766  1.00  0.00     0.352 A 
HETATM   25  C   UNL     1      39.873  -8.900  19.890  1.00  0.00     0.012 A 
ENDBRANCH  16  17
ENDBRANCH  13  16
ENDBRANCH  10  13
ENDBRANCH   5   7
BRANCH   2  26
HETATM   26  C   UNL     1      42.443  -9.110   8.282  1.00  0.00     0.252 C 
HETATM   27  N   UNL     1      42.460 -10.423   7.878  1.00  0.00    -0.344 N 
HETATM   28  H   UNL     1      42.424 -11.151   8.578  1.00  0.00     0.163 HD
HETATM   29  O   UNL     1      42.681  -8.158   7.546  1.00  0.00    -0.268 OA
BRANCH  27  30
HETATM   30  C   UNL     1      42.649 -10.852   6.491  1.00  0.00     0.171 C 
HETATM   31  C   UNL     1      41.445 -11.633   5.931  1.00  0.00     0.220 C 
HETATM   32  O   UNL     1      40.478 -11.059   5.432  1.00  0.00    -0.278 OA
HETATM   33  N   UNL     1      41.420 -12.984   6.198  1.00  0.00    -0.261 NA
HETATM   34  C   UNL     1      42.414 -13.826   5.568  1.00  0.00     0.095 C 
HETATM   35  H   UNL     1      41.437 -13.126   7.211  1.00  0.00     0.130 HD
HETATM   36  C   UNL     1      43.670 -14.011   6.411  1.00  0.00     0.015 C 
HETATM   37  C   UNL     1      44.414 -12.749   6.858  1.00  0.00     0.004 C 
HETATM   38  C   UNL     1      44.032 -11.439   6.177  1.00  0.00     0.034 C 
ENDBRANCH  27  30
ENDBRANCH   2  26
TORSDOF 6
ENDMDL
MODEL 10
REMARK VINA RESULT:      -8.6     17.532     19.564
REMARK  6 active torsions:
REMARK  status: ('A' for Active; 'I' for Inactive)
REMARK    1  A    between atoms: C_2  and  C_3 
REMARK       I    between atoms: C_3  and  N_4 
REMARK    2  A    between atoms: N_4  and  C_5 
REMARK    3  A    between atoms: C_16  and  N_17 
REMARK    4  A    between atoms: C_20  and  N_21 
REMARK    5  A    between atoms: N_21  and  C_24 
REMARK    6  A    between atoms: C_24  and  C_25 
ROOT
HETATM    1  C   UNL     1      51.298 -30.647   3.642  1.00  0.00     0.019 A 
HETATM    2  C   UNL     1      50.477 -31.079   4.681  1.00  0.00     0.032 A 
HETATM    3  C   UNL     1      49.091 -31.058   4.521  1.00  0.00     0.019 A 
HETATM    4  C   UNL     1      48.536 -30.624   3.308  1.00  0.00     0.030 A 
HETATM    5  C   UNL     1      49.342 -30.201   2.239  1.00  0.00     0.030 A 
HETATM    6  C   UNL     1      50.732 -30.206   2.443  1.00  0.00     0.030 A 
ENDROOT
BRANCH   5   7
HETATM    7  N   UNL     1      48.824 -29.856   0.995  1.00  0.00    -0.381 N 
HETATM    8  C   UNL     1      47.616 -29.041   0.949  1.00  0.00     0.125 C 
HETATM    9  C   UNL     1      47.757 -28.050  -0.200  1.00  0.00     0.053 C 
HETATM   10  C   UNL     1      48.104 -28.742  -1.520  1.00  0.00     0.189 C 
HETATM   11  C   UNL     1      49.298 -29.692  -1.374  1.00  0.00     0.053 C 
HETATM   12  C   UNL     1      49.159 -30.643  -0.185  1.00  0.00     0.125 C 
BRANCH  10  13
HETATM   13  N   UNL     1      46.932 -29.512  -2.072  1.00  0.00    -0.067 N 
HETATM   14  H   UNL     1      47.077 -29.661  -3.081  1.00  0.00     0.277 HD
HETATM   15  H   UNL     1      46.884 -30.457  -1.671  1.00  0.00     0.277 HD
BRANCH  13  16
HETATM   16  C   UNL     1      45.588 -28.871  -1.939  1.00  0.00     0.271 C 
BRANCH  16  17
HETATM   17  C   UNL     1      44.731 -29.660  -0.990  1.00  0.00    -0.030 A 
HETATM   18  C   UNL     1      43.714 -29.024  -0.260  1.00  0.00     0.048 A 
HETATM   19  C   UNL     1      42.925 -29.801   0.562  1.00  0.00     0.105 A 
HETATM   20  C   UNL     1      43.103 -31.158   0.672  1.00  0.00     0.105 A 
HETATM   21  O   UNL     1      41.905 -29.346   1.337  1.00  0.00    -0.323 OA
HETATM   22  O   UNL     1      42.219 -31.728   1.530  1.00  0.00    -0.323 OA
HETATM   23  C   UNL     1      44.084 -31.818  -0.033  1.00  0.00     0.040 A 
HETATM   24  C   UNL     1      41.480 -30.572   1.978  1.00  0.00     0.352 A 
HETATM   25  C   UNL     1      44.906 -31.059  -0.873  1.00  0.00     0.012 A 
ENDBRANCH  16  17
ENDBRANCH  13  16
ENDBRANCH  10  13
ENDBRANCH   5   7
BRANCH   2  26
HETATM   26  C   UNL     1      51.115 -31.649   5.890  1.00  0.00     0.252 C 
HETATM   27  N   UNL     1      52.370 -31.185   6.201  1.00  0.00    -0.344 N 
HETATM   28  H   UNL     1      52.858 -30.607   5.529  1.00  0.00     0.163 HD
HETATM   29  O   UNL     1      50.520 -32.509   6.531  1.00  0.00    -0.268 OA
BRANCH  27  30
HETATM   30  C   UNL     1      53.113 -31.569   7.402  1.00  0.00     0.171 C 
HETATM   31  C   UNL     1      54.292 -30.627   7.711  1.00  0.00     0.220 C 
HETATM   32  O   UNL     1      54.139 -29.590   8.356  1.00  0.00    -0.278 OA
HETATM   33  N   UNL     1      55.475 -30.901   7.061  1.00  0.00    -0.261 NA
HETATM   34  C   UNL     1      56.189 -32.108   7.418  1.00  0.00     0.095 C 
HETATM   35  H   UNL     1      55.317 -30.878   6.051  1.00  0.00     0.130 HD
HETATM   36  C   UNL     1      55.813 -33.308   6.557  1.00  0.00     0.015 C 
HETATM   37  C   UNL     1      54.334 -33.699   6.496  1.00  0.00     0.004 C 
HETATM   38  C   UNL     1      53.405 -33.070   7.530  1.00  0.00     0.034 C 
ENDBRANCH  27  30
ENDBRANCH   2  26
TORSDOF 6
ENDMDL
