MODEL 1
REMARK VINA RESULT:     -10.5      0.000      0.000
REMARK  7 active torsions:
REMARK  status: ('A' for Active; 'I' for Inactive)
REMARK    1  A    between atoms: O_2  and  C_3 
REMARK    2  A    between atoms: C_4  and  C_5 
REMARK    3  A    between atoms: N_10  and  C_12 
REMARK    4  A    between atoms: C_12  and  C_13 
REMARK       I    between atoms: C_13  and  N_14 
REMARK    5  A    between atoms: N_14  and  C_15 
REMARK    6  A    between atoms: C_15  and  C_16 
REMARK    7  A    between atoms: C_16  and  C_17 
ROOT
HETATM    1  C   UNL     1      41.510 -14.879   2.411  1.00  0.00     0.190 C 
HETATM    2  O   UNL     1      41.136 -16.264   2.514  1.00  0.00    -0.339 OA
HETATM    3  C   UNL     1      42.155 -16.987   3.074  1.00  0.00     0.077 A 
HETATM    4  C   UNL     1      42.474 -16.839   4.427  1.00  0.00     0.001 A 
HETATM    5  C   UNL     1      41.673 -15.929   5.308  1.00  0.00     0.276 C 
HETATM    6  N   UNL     1      41.775 -14.476   4.927  1.00  0.00    -0.056 N 
HETATM    7  H   UNL     1      42.771 -14.270   4.738  1.00  0.00     0.280 HD
HETATM    8  C   UNL     1      40.998 -14.118   3.654  1.00  0.00     0.273 C 
HETATM    9  C   UNL     1      42.844 -17.880   2.257  1.00  0.00     0.037 A 
HETATM   10  C   UNL     1      43.902 -18.616   2.783  1.00  0.00     0.003 A 
HETATM   11  C   UNL     1      44.254 -18.466   4.123  1.00  0.00     0.001 A 
HETATM   12  C   UNL     1      43.543 -17.587   4.944  1.00  0.00     0.012 A 
ENDROOT
BRANCH   6  13
HETATM   13  C   UNL     1      41.400 -13.545   6.077  1.00  0.00     0.337 C 
BRANCH  13  14
HETATM   14  C   UNL     1      42.235 -12.267   6.010  1.00  0.00     0.243 C 
HETATM   15  N   UNL     1      43.527 -12.419   5.572  1.00  0.00    -0.359 N 
HETATM   16  H   UNL     1      43.926 -13.353   5.532  1.00  0.00     0.162 HD
HETATM   17  O   UNL     1      41.762 -11.211   6.430  1.00  0.00    -0.272 OA
BRANCH  15  18
HETATM   18  C   UNL     1      44.507 -11.362   5.762  1.00  0.00     0.130 C 
BRANCH  18  19
HETATM   19  C   UNL     1      45.342 -11.552   7.029  1.00  0.00     0.098 C 
BRANCH  19  20
HETATM   20  C   UNL     1      44.854 -10.687   8.173  1.00  0.00     0.109 A 
HETATM   21  N   UNL     1      44.355 -11.218   9.249  1.00  0.00    -0.234 NA
HETATM   22  C   UNL     1      43.929 -10.340  10.268  1.00  0.00     0.074 A 
HETATM   23  C   UNL     1      43.986  -8.948  10.139  1.00  0.00     0.061 A 
HETATM   24  C   UNL     1      43.439 -10.875  11.462  1.00  0.00     0.032 A 
HETATM   25  C   UNL     1      44.521  -8.404   8.883  1.00  0.00     0.259 A 
HETATM   26  C   UNL     1      43.564  -8.099  11.167  1.00  0.00     0.019 A 
HETATM   27  O   UNL     1      44.588  -7.202   8.661  1.00  0.00    -0.267 OA
HETATM   28  N   UNL     1      44.942  -9.336   7.970  1.00  0.00    -0.311 N 
HETATM   29  H   UNL     1      45.307  -8.948   7.109  1.00  0.00     0.170 HD
HETATM   30  C   UNL     1      43.078  -8.649  12.350  1.00  0.00     0.001 A 
HETATM   31  C   UNL     1      43.016 -10.035  12.499  1.00  0.00     0.002 A 
ENDBRANCH  19  20
ENDBRANCH  18  19
ENDBRANCH  15  18
ENDBRANCH  13  14
ENDBRANCH   6  13
BRANCH   1  32
HETATM   32  C   UNL     1      40.910 -14.337   1.122  1.00  0.00     0.006 A 
HETATM   33  C   UNL     1      41.239 -13.039   0.675  1.00  0.00     0.077 A 
HETATM   34  C   UNL     1      40.671 -12.545  -0.504  1.00  0.00     0.037 A 
HETATM   35  C   UNL     1      39.798 -13.333  -1.254  1.00  0.00     0.003 A 
HETATM   36  C   UNL     1      39.492 -14.624  -0.839  1.00  0.00     0.001 A 
HETATM   37  C   UNL     1      40.051 -15.128   0.334  1.00  0.00     0.012 A 
BRANCH  33  38
HETATM   38  O   UNL     1      42.102 -12.329   1.467  1.00  0.00    -0.355 OA
HETATM   39  C   UNL     1      41.742 -10.987   1.783  1.00  0.00     0.210 C 
ENDBRANCH  33  38
ENDBRANCH   1  32
TORSDOF 7
ENDMDL
MODEL 2
REMARK VINA RESULT:     -10.5      2.569     10.102
REMARK  7 active torsions:
REMARK  status: ('A' for Active; 'I' for Inactive)
REMARK    1  A    between atoms: O_2  and  C_3 
REMARK    2  A    between atoms: C_4  and  C_5 
REMARK    3  A    between atoms: N_10  and  C_12 
REMARK    4  A    between atoms: C_12  and  C_13 
REMARK       I    between atoms: C_13  and  N_14 
REMARK    5  A    between atoms: N_14  and  C_15 
REMARK    6  A    between atoms: C_15  and  C_16 
REMARK    7  A    between atoms: C_16  and  C_17 
ROOT
HETATM    1  C   UNL     1      42.367  -9.379  10.386  1.00  0.00     0.190 C 
HETATM    2  O   UNL     1      43.435  -8.690   9.710  1.00  0.00    -0.339 OA
HETATM    3  C   UNL     1      44.015  -9.514   8.784  1.00  0.00     0.077 A 
HETATM    4  C   UNL     1      43.332  -9.869   7.616  1.00  0.00     0.001 A 
HETATM    5  C   UNL     1      41.971  -9.309   7.327  1.00  0.00     0.276 C 
HETATM    6  N   UNL     1      40.917  -9.748   8.307  1.00  0.00    -0.056 N 
HETATM    7  H   UNL     1      41.037 -10.764   8.465  1.00  0.00     0.280 HD
HETATM    8  C   UNL     1      41.030  -9.069   9.677  1.00  0.00     0.273 C 
HETATM    9  C   UNL     1      45.307  -9.968   9.037  1.00  0.00     0.037 A 
HETATM   10  C   UNL     1      45.924 -10.826   8.131  1.00  0.00     0.003 A 
HETATM   11  C   UNL     1      45.251 -11.214   6.972  1.00  0.00     0.001 A 
HETATM   12  C   UNL     1      43.964 -10.735   6.712  1.00  0.00     0.012 A 
ENDROOT
BRANCH   6  13
HETATM   13  C   UNL     1      39.504  -9.610   7.743  1.00  0.00     0.337 C 
BRANCH  13  14
HETATM   14  C   UNL     1      39.108 -10.889   7.005  1.00  0.00     0.243 C 
HETATM   15  N   UNL     1      40.123 -11.782   6.768  1.00  0.00    -0.359 N 
HETATM   16  H   UNL     1      41.086 -11.473   6.880  1.00  0.00     0.162 HD
HETATM   17  O   UNL     1      37.959 -11.013   6.582  1.00  0.00    -0.272 OA
BRANCH  15  18
HETATM   18  C   UNL     1      39.954 -12.865   5.814  1.00  0.00     0.130 C 
BRANCH  18  19
HETATM   19  C   UNL     1      40.349 -14.226   6.390  1.00  0.00     0.098 C 
BRANCH  19  20
HETATM   20  C   UNL     1      40.925 -15.150   5.336  1.00  0.00     0.109 A 
HETATM   21  N   UNL     1      41.988 -15.859   5.576  1.00  0.00    -0.234 NA
HETATM   22  C   UNL     1      42.454 -16.697   4.540  1.00  0.00     0.074 A 
HETATM   23  C   UNL     1      41.847 -16.753   3.282  1.00  0.00     0.061 A 
HETATM   24  C   UNL     1      43.560 -17.516   4.780  1.00  0.00     0.032 A 
HETATM   25  C   UNL     1      40.674 -15.897   3.055  1.00  0.00     0.259 A 
HETATM   26  C   UNL     1      42.325 -17.598   2.274  1.00  0.00     0.019 A 
HETATM   27  O   UNL     1      40.089 -15.853   1.981  1.00  0.00    -0.267 OA
HETATM   28  N   UNL     1      40.276 -15.147   4.131  1.00  0.00    -0.311 N 
HETATM   29  H   UNL     1      39.468 -14.562   3.962  1.00  0.00     0.170 HD
HETATM   30  C   UNL     1      43.429 -18.406   2.529  1.00  0.00     0.001 A 
HETATM   31  C   UNL     1      44.046 -18.367   3.780  1.00  0.00     0.002 A 
ENDBRANCH  19  20
ENDBRANCH  18  19
ENDBRANCH  15  18
ENDBRANCH  13  14
ENDBRANCH   6  13
BRANCH   1  32
HETATM   32  C   UNL     1      42.368  -8.915  11.835  1.00  0.00     0.006 A 
HETATM   33  C   UNL     1      41.471  -9.484  12.764  1.00  0.00     0.077 A 
HETATM   34  C   UNL     1      41.469  -9.040  14.091  1.00  0.00     0.037 A 
HETATM   35  C   UNL     1      42.362  -8.053  14.508  1.00  0.00     0.003 A 
HETATM   36  C   UNL     1      43.271  -7.509  13.609  1.00  0.00     0.001 A 
HETATM   37  C   UNL     1      43.282  -7.942  12.284  1.00  0.00     0.012 A 
BRANCH  33  38
HETATM   38  O   UNL     1      40.626 -10.446  12.276  1.00  0.00    -0.355 OA
HETATM   39  C   UNL     1      39.428 -10.692  13.006  1.00  0.00     0.210 C 
ENDBRANCH  33  38
ENDBRANCH   1  32
TORSDOF 7
ENDMDL
MODEL 3
REMARK VINA RESULT:     -10.2      3.006     10.068
REMARK  7 active torsions:
REMARK  status: ('A' for Active; 'I' for Inactive)
REMARK    1  A    between atoms: O_2  and  C_3 
REMARK    2  A    between atoms: C_4  and  C_5 
REMARK    3  A    between atoms: N_10  and  C_12 
REMARK    4  A    between atoms: C_12  and  C_13 
REMARK       I    between atoms: C_13  and  N_14 
REMARK    5  A    between atoms: N_14  and  C_15 
REMARK    6  A    between atoms: C_15  and  C_16 
REMARK    7  A    between atoms: C_16  and  C_17 
ROOT
HETATM    1  C   UNL     1      42.396  -9.296  10.551  1.00  0.00     0.190 C 
HETATM    2  O   UNL     1      43.449  -8.563   9.901  1.00  0.00    -0.339 OA
HETATM    3  C   UNL     1      44.087  -9.362   8.990  1.00  0.00     0.077 A 
HETATM    4  C   UNL     1      43.447  -9.746   7.807  1.00  0.00     0.001 A 
HETATM    5  C   UNL     1      42.072  -9.246   7.483  1.00  0.00     0.276 C 
HETATM    6  N   UNL     1      41.014  -9.729   8.439  1.00  0.00    -0.056 N 
HETATM    7  H   UNL     1      41.173 -10.738   8.601  1.00  0.00     0.280 HD
HETATM    8  C   UNL     1      41.065  -9.044   9.810  1.00  0.00     0.273 C 
HETATM    9  C   UNL     1      45.391  -9.760   9.274  1.00  0.00     0.037 A 
HETATM   10  C   UNL     1      46.065 -10.591   8.385  1.00  0.00     0.003 A 
HETATM   11  C   UNL     1      45.437 -11.008   7.211  1.00  0.00     0.001 A 
HETATM   12  C   UNL     1      44.138 -10.585   6.919  1.00  0.00     0.012 A 
ENDROOT
BRANCH   6  13
HETATM   13  C   UNL     1      39.610  -9.652   7.841  1.00  0.00     0.337 C 
BRANCH  13  14
HETATM   14  C   UNL     1      39.300 -10.933   7.068  1.00  0.00     0.243 C 
HETATM   15  N   UNL     1      40.383 -11.706   6.732  1.00  0.00    -0.359 N 
HETATM   16  H   UNL     1      41.314 -11.306   6.803  1.00  0.00     0.162 HD
HETATM   17  O   UNL     1      38.145 -11.158   6.707  1.00  0.00    -0.272 OA
BRANCH  15  18
HETATM   18  C   UNL     1      40.264 -12.762   5.739  1.00  0.00     0.130 C 
BRANCH  18  19
HETATM   19  C   UNL     1      40.059 -14.142   6.367  1.00  0.00     0.098 C 
BRANCH  19  20
HETATM   20  C   UNL     1      41.041 -15.166   5.836  1.00  0.00     0.109 A 
HETATM   21  N   UNL     1      41.060 -15.485   4.575  1.00  0.00    -0.234 NA
HETATM   22  C   UNL     1      42.009 -16.444   4.164  1.00  0.00     0.074 A 
HETATM   23  C   UNL     1      42.880 -17.077   5.057  1.00  0.00     0.061 A 
HETATM   24  C   UNL     1      42.097 -16.771   2.809  1.00  0.00     0.032 A 
HETATM   25  C   UNL     1      42.785 -16.707   6.476  1.00  0.00     0.259 A 
HETATM   26  C   UNL     1      43.818 -18.019   4.622  1.00  0.00     0.019 A 
HETATM   27  O   UNL     1      43.482 -17.222   7.339  1.00  0.00    -0.267 OA
HETATM   28  N   UNL     1      41.857 -15.742   6.771  1.00  0.00    -0.311 N 
HETATM   29  H   UNL     1      41.801 -15.496   7.751  1.00  0.00     0.170 HD
HETATM   30  C   UNL     1      43.891 -18.334   3.268  1.00  0.00     0.001 A 
HETATM   31  C   UNL     1      43.033 -17.711   2.361  1.00  0.00     0.002 A 
ENDBRANCH  19  20
ENDBRANCH  18  19
ENDBRANCH  15  18
ENDBRANCH  13  14
ENDBRANCH   6  13
BRANCH   1  32
HETATM   32  C   UNL     1      42.342  -8.832  12.000  1.00  0.00     0.006 A 
HETATM   33  C   UNL     1      41.417  -9.407  12.896  1.00  0.00     0.077 A 
HETATM   34  C   UNL     1      41.365  -8.963  14.222  1.00  0.00     0.037 A 
HETATM   35  C   UNL     1      42.235  -7.970  14.670  1.00  0.00     0.003 A 
HETATM   36  C   UNL     1      43.172  -7.419  13.803  1.00  0.00     0.001 A 
HETATM   37  C   UNL     1      43.233  -7.853  12.480  1.00  0.00     0.012 A 
BRANCH  33  38
HETATM   38  O   UNL     1      40.596 -10.375  12.379  1.00  0.00    -0.355 OA
HETATM   39  C   UNL     1      39.468 -10.758  13.160  1.00  0.00     0.210 C 
ENDBRANCH  33  38
ENDBRANCH   1  32
TORSDOF 7
ENDMDL
MODEL 4
REMARK VINA RESULT:     -10.1      1.466      1.913
REMARK  7 active torsions:
REMARK  status: ('A' for Active; 'I' for Inactive)
REMARK    1  A    between atoms: O_2  and  C_3 
REMARK    2  A    between atoms: C_4  and  C_5 
REMARK    3  A    between atoms: N_10  and  C_12 
REMARK    4  A    between atoms: C_12  and  C_13 
REMARK       I    between atoms: C_13  and  N_14 
REMARK    5  A    between atoms: N_14  and  C_15 
REMARK    6  A    between atoms: C_15  and  C_16 
REMARK    7  A    between atoms: C_16  and  C_17 
ROOT
HETATM    1  C   UNL     1      41.184 -14.782   2.449  1.00  0.00     0.190 C 
HETATM    2  O   UNL     1      41.026 -16.210   2.381  1.00  0.00    -0.339 OA
HETATM    3  C   UNL     1      42.030 -16.829   3.077  1.00  0.00     0.077 A 
HETATM    4  C   UNL     1      42.072 -16.769   4.474  1.00  0.00     0.001 A 
HETATM    5  C   UNL     1      40.988 -16.076   5.243  1.00  0.00     0.276 C 
HETATM    6  N   UNL     1      40.923 -14.593   4.990  1.00  0.00    -0.056 N 
HETATM    7  H   UNL     1      41.890 -14.227   5.012  1.00  0.00     0.280 HD
HETATM    8  C   UNL     1      40.341 -14.229   3.618  1.00  0.00     0.273 C 
HETATM    9  C   UNL     1      42.990 -17.528   2.349  1.00  0.00     0.037 A 
HETATM   10  C   UNL     1      44.040 -18.151   3.018  1.00  0.00     0.003 A 
HETATM   11  C   UNL     1      44.116 -18.083   4.409  1.00  0.00     0.001 A 
HETATM   12  C   UNL     1      43.136 -17.401   5.135  1.00  0.00     0.012 A 
ENDROOT
BRANCH   6  13
HETATM   13  C   UNL     1      40.200 -13.843   6.107  1.00  0.00     0.337 C 
BRANCH  13  14
HETATM   14  C   UNL     1      40.436 -12.340   5.965  1.00  0.00     0.243 C 
HETATM   15  N   UNL     1      41.636 -11.875   6.440  1.00  0.00    -0.359 N 
HETATM   16  H   UNL     1      42.193 -12.476   7.042  1.00  0.00     0.162 HD
HETATM   17  O   UNL     1      39.531 -11.623   5.537  1.00  0.00    -0.272 OA
BRANCH  15  18
HETATM   18  C   UNL     1      41.851 -10.453   6.657  1.00  0.00     0.130 C 
BRANCH  18  19
HETATM   19  C   UNL     1      43.244 -10.144   7.208  1.00  0.00     0.098 C 
BRANCH  19  20
HETATM   20  C   UNL     1      43.204  -9.728   8.664  1.00  0.00     0.109 A 
HETATM   21  N   UNL     1      42.881  -8.515   9.006  1.00  0.00    -0.234 NA
HETATM   22  C   UNL     1      42.865  -8.213  10.384  1.00  0.00     0.074 A 
HETATM   23  C   UNL     1      43.218  -9.144  11.367  1.00  0.00     0.061 A 
HETATM   24  C   UNL     1      42.469  -6.937  10.792  1.00  0.00     0.032 A 
HETATM   25  C   UNL     1      43.615 -10.487  10.918  1.00  0.00     0.259 A 
HETATM   26  C   UNL     1      43.185  -8.822  12.727  1.00  0.00     0.019 A 
HETATM   27  O   UNL     1      43.967 -11.363  11.696  1.00  0.00    -0.267 OA
HETATM   28  N   UNL     1      43.564 -10.694   9.564  1.00  0.00    -0.311 N 
HETATM   29  H   UNL     1      43.840 -11.621   9.269  1.00  0.00     0.170 HD
HETATM   30  C   UNL     1      42.790  -7.546  13.117  1.00  0.00     0.001 A 
HETATM   31  C   UNL     1      42.430  -6.603  12.151  1.00  0.00     0.002 A 
ENDBRANCH  19  20
ENDBRANCH  18  19
ENDBRANCH  15  18
ENDBRANCH  13  14
ENDBRANCH   6  13
BRANCH   1  32
HETATM   32  C   UNL     1      40.749 -14.209   1.107  1.00  0.00     0.006 A 
HETATM   33  C   UNL     1      41.128 -12.902   0.736  1.00  0.00     0.077 A 
HETATM   34  C   UNL     1      40.710 -12.379  -0.493  1.00  0.00     0.037 A 
HETATM   35  C   UNL     1      39.938 -13.148  -1.363  1.00  0.00     0.003 A 
HETATM   36  C   UNL     1      39.586 -14.448  -1.020  1.00  0.00     0.001 A 
HETATM   37  C   UNL     1      39.995 -14.980   0.201  1.00  0.00     0.012 A 
BRANCH  33  38
HETATM   38  O   UNL     1      41.885 -12.211   1.646  1.00  0.00    -0.355 OA
HETATM   39  C   UNL     1      41.762 -10.792   1.651  1.00  0.00     0.210 C 
ENDBRANCH  33  38
ENDBRANCH   1  32
TORSDOF 7
ENDMDL
MODEL 5
REMARK VINA RESULT:     -10.0      3.483      6.313
REMARK  7 active torsions:
REMARK  status: ('A' for Active; 'I' for Inactive)
REMARK    1  A    between atoms: O_2  and  C_3 
REMARK    2  A    between atoms: C_4  and  C_5 
REMARK    3  A    between atoms: N_10  and  C_12 
REMARK    4  A    between atoms: C_12  and  C_13 
REMARK       I    between atoms: C_13  and  N_14 
REMARK    5  A    between atoms: N_14  and  C_15 
REMARK    6  A    between atoms: C_15  and  C_16 
REMARK    7  A    between atoms: C_16  and  C_17 
ROOT
HETATM    1  C   UNL     1      41.870 -15.825   2.990  1.00  0.00     0.190 C 
HETATM    2  O   UNL     1      40.731 -15.978   3.856  1.00  0.00    -0.339 OA
HETATM    3  C   UNL     1      40.364 -14.764   4.371  1.00  0.00     0.077 A 
HETATM    4  C   UNL     1      39.775 -13.792   3.556  1.00  0.00     0.001 A 
HETATM    5  C   UNL     1      39.482 -14.078   2.114  1.00  0.00     0.276 C 
HETATM    6  N   UNL     1      40.715 -14.306   1.281  1.00  0.00    -0.056 N 
HETATM    7  H   UNL     1      41.406 -13.579   1.535  1.00  0.00     0.280 HD
HETATM    8  C   UNL     1      41.385 -15.662   1.533  1.00  0.00     0.273 C 
HETATM    9  C   UNL     1      40.580 -14.541   5.729  1.00  0.00     0.037 A 
HETATM   10  C   UNL     1      40.241 -13.311   6.286  1.00  0.00     0.003 A 
HETATM   11  C   UNL     1      39.677 -12.318   5.486  1.00  0.00     0.001 A 
HETATM   12  C   UNL     1      39.440 -12.557   4.130  1.00  0.00     0.012 A 
ENDROOT
BRANCH   6  13
HETATM   13  C   UNL     1      40.459 -14.091  -0.209  1.00  0.00     0.337 C 
BRANCH  13  14
HETATM   14  C   UNL     1      40.673 -12.621  -0.570  1.00  0.00     0.243 C 
HETATM   15  N   UNL     1      40.098 -11.707   0.278  1.00  0.00    -0.359 N 
HETATM   16  H   UNL     1      39.400 -12.026   0.945  1.00  0.00     0.162 HD
HETATM   17  O   UNL     1      41.244 -12.332  -1.621  1.00  0.00    -0.272 OA
BRANCH  15  18
HETATM   18  C   UNL     1      39.953 -10.315  -0.115  1.00  0.00     0.130 C 
BRANCH  18  19
HETATM   19  C   UNL     1      41.132  -9.450   0.333  1.00  0.00     0.098 C 
BRANCH  19  20
HETATM   20  C   UNL     1      41.563  -9.758   1.752  1.00  0.00     0.109 A 
HETATM   21  N   UNL     1      42.244 -10.830   2.027  1.00  0.00    -0.234 NA
HETATM   22  C   UNL     1      42.609 -11.038   3.375  1.00  0.00     0.074 A 
HETATM   23  C   UNL     1      42.233 -10.167   4.403  1.00  0.00     0.061 A 
HETATM   24  C   UNL     1      43.389 -12.150   3.700  1.00  0.00     0.032 A 
HETATM   25  C   UNL     1      41.428  -8.993   4.037  1.00  0.00     0.259 A 
HETATM   26  C   UNL     1      42.615 -10.391   5.729  1.00  0.00     0.019 A 
HETATM   27  O   UNL     1      41.026  -8.187   4.866  1.00  0.00    -0.267 OA
HETATM   28  N   UNL     1      41.154  -8.860   2.701  1.00  0.00    -0.311 N 
HETATM   29  H   UNL     1      40.599  -8.048   2.463  1.00  0.00     0.170 HD
HETATM   30  C   UNL     1      43.391 -11.505   6.037  1.00  0.00     0.001 A 
HETATM   31  C   UNL     1      43.779 -12.384   5.024  1.00  0.00     0.002 A 
ENDBRANCH  19  20
ENDBRANCH  18  19
ENDBRANCH  15  18
ENDBRANCH  13  14
ENDBRANCH   6  13
BRANCH   1  32
HETATM   32  C   UNL     1      42.749 -17.054   3.168  1.00  0.00     0.006 A 
HETATM   33  C   UNL     1      43.619 -17.153   4.274  1.00  0.00     0.077 A 
HETATM   34  C   UNL     1      44.434 -18.280   4.420  1.00  0.00     0.037 A 
HETATM   35  C   UNL     1      44.380 -19.318   3.491  1.00  0.00     0.003 A 
HETATM   36  C   UNL     1      43.504 -19.245   2.414  1.00  0.00     0.001 A 
HETATM   37  C   UNL     1      42.687 -18.127   2.257  1.00  0.00     0.012 A 
BRANCH  33  38
HETATM   38  O   UNL     1      43.614 -16.091   5.141  1.00  0.00    -0.355 OA
HETATM   39  C   UNL     1      44.398 -16.215   6.325  1.00  0.00     0.210 C 
ENDBRANCH  33  38
ENDBRANCH   1  32
TORSDOF 7
ENDMDL
MODEL 6
REMARK VINA RESULT:      -9.8      1.926      2.515
REMARK  7 active torsions:
REMARK  status: ('A' for Active; 'I' for Inactive)
REMARK    1  A    between atoms: O_2  and  C_3 
REMARK    2  A    between atoms: C_4  and  C_5 
REMARK    3  A    between atoms: N_10  and  C_12 
REMARK    4  A    between atoms: C_12  and  C_13 
REMARK       I    between atoms: C_13  and  N_14 
REMARK    5  A    between atoms: N_14  and  C_15 
REMARK    6  A    between atoms: C_15  and  C_16 
REMARK    7  A    between atoms: C_16  and  C_17 
ROOT
HETATM    1  C   UNL     1      41.216 -14.846   2.462  1.00  0.00     0.190 C 
HETATM    2  O   UNL     1      41.055 -16.273   2.379  1.00  0.00    -0.339 OA
HETATM    3  C   UNL     1      42.060 -16.901   3.065  1.00  0.00     0.077 A 
HETATM    4  C   UNL     1      42.105 -16.857   4.462  1.00  0.00     0.001 A 
HETATM    5  C   UNL     1      41.025 -16.171   5.242  1.00  0.00     0.276 C 
HETATM    6  N   UNL     1      40.961 -14.686   5.006  1.00  0.00    -0.056 N 
HETATM    7  H   UNL     1      41.928 -14.321   5.030  1.00  0.00     0.280 HD
HETATM    8  C   UNL     1      40.376 -14.304   3.640  1.00  0.00     0.273 C 
HETATM    9  C   UNL     1      43.017 -17.593   2.327  1.00  0.00     0.037 A 
HETATM   10  C   UNL     1      44.067 -18.225   2.986  1.00  0.00     0.003 A 
HETATM   11  C   UNL     1      44.147 -18.173   4.377  1.00  0.00     0.001 A 
HETATM   12  C   UNL     1      43.170 -17.498   5.113  1.00  0.00     0.012 A 
ENDROOT
BRANCH   6  13
HETATM   13  C   UNL     1      40.243 -13.947   6.134  1.00  0.00     0.337 C 
BRANCH  13  14
HETATM   14  C   UNL     1      40.582 -12.458   6.083  1.00  0.00     0.243 C 
HETATM   15  N   UNL     1      39.648 -11.612   6.626  1.00  0.00    -0.359 N 
HETATM   16  H   UNL     1      38.716 -11.969   6.821  1.00  0.00     0.162 HD
HETATM   17  O   UNL     1      41.595 -12.088   5.490  1.00  0.00    -0.272 OA
BRANCH  15  18
HETATM   18  C   UNL     1      39.694 -10.183   6.361  1.00  0.00     0.130 C 
BRANCH  18  19
HETATM   19  C   UNL     1      39.604  -9.344   7.637  1.00  0.00     0.098 C 
BRANCH  19  20
HETATM   20  C   UNL     1      40.869  -9.425   8.466  1.00  0.00     0.109 A 
HETATM   21  N   UNL     1      42.039  -9.478   7.901  1.00  0.00    -0.234 NA
HETATM   22  C   UNL     1      43.165  -9.546   8.749  1.00  0.00     0.074 A 
HETATM   23  C   UNL     1      43.060  -9.601  10.143  1.00  0.00     0.061 A 
HETATM   24  C   UNL     1      44.440  -9.548   8.180  1.00  0.00     0.032 A 
HETATM   25  C   UNL     1      41.710  -9.580  10.723  1.00  0.00     0.259 A 
HETATM   26  C   UNL     1      44.193  -9.661  10.961  1.00  0.00     0.019 A 
HETATM   27  O   UNL     1      41.511  -9.651  11.929  1.00  0.00    -0.267 OA
HETATM   28  N   UNL     1      40.683  -9.476   9.822  1.00  0.00    -0.311 N 
HETATM   29  H   UNL     1      39.759  -9.463  10.234  1.00  0.00     0.170 HD
HETATM   30  C   UNL     1      45.456  -9.663  10.377  1.00  0.00     0.001 A 
HETATM   31  C   UNL     1      45.582  -9.606   8.988  1.00  0.00     0.002 A 
ENDBRANCH  19  20
ENDBRANCH  18  19
ENDBRANCH  15  18
ENDBRANCH  13  14
ENDBRANCH   6  13
BRANCH   1  32
HETATM   32  C   UNL     1      40.777 -14.257   1.129  1.00  0.00     0.006 A 
HETATM   33  C   UNL     1      41.207 -12.970   0.744  1.00  0.00     0.077 A 
HETATM   34  C   UNL     1      40.787 -12.432  -0.476  1.00  0.00     0.037 A 
HETATM   35  C   UNL     1      39.961 -13.166  -1.327  1.00  0.00     0.003 A 
HETATM   36  C   UNL     1      39.558 -14.448  -0.972  1.00  0.00     0.001 A 
HETATM   37  C   UNL     1      39.970 -14.995   0.242  1.00  0.00     0.012 A 
BRANCH  33  38
HETATM   38  O   UNL     1      42.015 -12.312   1.635  1.00  0.00    -0.355 OA
HETATM   39  C   UNL     1      41.787 -10.917   1.814  1.00  0.00     0.210 C 
ENDBRANCH  33  38
ENDBRANCH   1  32
TORSDOF 7
ENDMDL
MODEL 7
REMARK VINA RESULT:      -9.6      2.522      7.844
REMARK  7 active torsions:
REMARK  status: ('A' for Active; 'I' for Inactive)
REMARK    1  A    between atoms: O_2  and  C_3 
REMARK    2  A    between atoms: C_4  and  C_5 
REMARK    3  A    between atoms: N_10  and  C_12 
REMARK    4  A    between atoms: C_12  and  C_13 
REMARK       I    between atoms: C_13  and  N_14 
REMARK    5  A    between atoms: N_14  and  C_15 
REMARK    6  A    between atoms: C_15  and  C_16 
REMARK    7  A    between atoms: C_16  and  C_17 
ROOT
HETATM    1  C   UNL     1      42.914 -11.588   7.197  1.00  0.00     0.190 C 
HETATM    2  O   UNL     1      43.195 -12.525   6.141  1.00  0.00    -0.339 OA
HETATM    3  C   UNL     1      42.450 -13.661   6.308  1.00  0.00     0.077 A 
HETATM    4  C   UNL     1      41.067 -13.644   6.101  1.00  0.00     0.001 A 
HETATM    5  C   UNL     1      40.378 -12.396   5.636  1.00  0.00     0.276 C 
HETATM    6  N   UNL     1      40.436 -11.268   6.631  1.00  0.00    -0.056 N 
HETATM    7  H   UNL     1      40.224 -11.660   7.565  1.00  0.00     0.280 HD
HETATM    8  C   UNL     1      41.816 -10.607   6.731  1.00  0.00     0.273 C 
HETATM    9  C   UNL     1      43.117 -14.828   6.673  1.00  0.00     0.037 A 
HETATM   10  C   UNL     1      42.392 -15.999   6.875  1.00  0.00     0.003 A 
HETATM   11  C   UNL     1      41.008 -15.999   6.698  1.00  0.00     0.001 A 
HETATM   12  C   UNL     1      40.348 -14.830   6.309  1.00  0.00     0.012 A 
ENDROOT
BRANCH   6  13
HETATM   13  C   UNL     1      39.346 -10.225   6.394  1.00  0.00     0.337 C 
BRANCH  13  14
HETATM   14  C   UNL     1      39.372  -9.764   4.937  1.00  0.00     0.243 C 
HETATM   15  N   UNL     1      38.296 -10.137   4.171  1.00  0.00    -0.359 N 
HETATM   16  H   UNL     1      37.671 -10.860   4.520  1.00  0.00     0.162 HD
HETATM   17  O   UNL     1      40.368  -9.184   4.503  1.00  0.00    -0.272 OA
BRANCH  15  18
HETATM   18  C   UNL     1      38.346 -10.044   2.721  1.00  0.00     0.130 C 
BRANCH  18  19
HETATM   19  C   UNL     1      38.260 -11.410   2.039  1.00  0.00     0.098 C 
BRANCH  19  20
HETATM   20  C   UNL     1      39.529 -12.219   2.213  1.00  0.00     0.109 A 
HETATM   21  N   UNL     1      39.485 -13.508   2.376  1.00  0.00    -0.234 NA
HETATM   22  C   UNL     1      40.714 -14.185   2.526  1.00  0.00     0.074 A 
HETATM   23  C   UNL     1      41.945 -13.520   2.548  1.00  0.00     0.061 A 
HETATM   24  C   UNL     1      40.710 -15.576   2.647  1.00  0.00     0.032 A 
HETATM   25  C   UNL     1      41.930 -12.058   2.403  1.00  0.00     0.259 A 
HETATM   26  C   UNL     1      43.150 -14.215   2.691  1.00  0.00     0.019 A 
HETATM   27  O   UNL     1      42.950 -11.382   2.436  1.00  0.00    -0.267 OA
HETATM   28  N   UNL     1      40.692 -11.497   2.226  1.00  0.00    -0.311 N 
HETATM   29  H   UNL     1      40.695 -10.490   2.128  1.00  0.00     0.170 HD
HETATM   30  C   UNL     1      43.128 -15.602   2.811  1.00  0.00     0.001 A 
HETATM   31  C   UNL     1      41.910 -16.283   2.788  1.00  0.00     0.002 A 
ENDBRANCH  19  20
ENDBRANCH  18  19
ENDBRANCH  15  18
ENDBRANCH  13  14
ENDBRANCH   6  13
BRANCH   1  32
HETATM   32  C   UNL     1      44.215 -10.874   7.535  1.00  0.00     0.006 A 
HETATM   33  C   UNL     1      44.270  -9.971   8.617  1.00  0.00     0.077 A 
HETATM   34  C   UNL     1      45.467  -9.308   8.909  1.00  0.00     0.037 A 
HETATM   35  C   UNL     1      46.613  -9.549   8.152  1.00  0.00     0.003 A 
HETATM   36  C   UNL     1      46.578 -10.461   7.104  1.00  0.00     0.001 A 
HETATM   37  C   UNL     1      45.391 -11.127   6.802  1.00  0.00     0.012 A 
BRANCH  33  38
HETATM   38  O   UNL     1      43.102  -9.788   9.310  1.00  0.00    -0.355 OA
HETATM   39  C   UNL     1      43.126 -10.063  10.708  1.00  0.00     0.210 C 
ENDBRANCH  33  38
ENDBRANCH   1  32
TORSDOF 7
ENDMDL
MODEL 8
REMARK VINA RESULT:      -9.5      2.889     10.009
REMARK  7 active torsions:
REMARK  status: ('A' for Active; 'I' for Inactive)
REMARK    1  A    between atoms: O_2  and  C_3 
REMARK    2  A    between atoms: C_4  and  C_5 
REMARK    3  A    between atoms: N_10  and  C_12 
REMARK    4  A    between atoms: C_12  and  C_13 
REMARK       I    between atoms: C_13  and  N_14 
REMARK    5  A    between atoms: N_14  and  C_15 
REMARK    6  A    between atoms: C_15  and  C_16 
REMARK    7  A    between atoms: C_16  and  C_17 
ROOT
HETATM    1  C   UNL     1      41.008  -9.207   9.671  1.00  0.00     0.190 C 
HETATM    2  O   UNL     1      42.096  -8.298   9.425  1.00  0.00    -0.339 OA
HETATM    3  C   UNL     1      43.249  -8.997   9.187  1.00  0.00     0.077 A 
HETATM    4  C   UNL     1      43.413  -9.719   8.000  1.00  0.00     0.001 A 
HETATM    5  C   UNL     1      42.355  -9.699   6.939  1.00  0.00     0.276 C 
HETATM    6  N   UNL     1      41.057 -10.329   7.369  1.00  0.00    -0.056 N 
HETATM    7  H   UNL     1      41.283 -11.212   7.859  1.00  0.00     0.280 HD
HETATM    8  C   UNL     1      40.251  -9.469   8.351  1.00  0.00     0.273 C 
HETATM    9  C   UNL     1      44.250  -8.947  10.153  1.00  0.00     0.037 A 
HETATM   10  C   UNL     1      45.429  -9.662   9.959  1.00  0.00     0.003 A 
HETATM   11  C   UNL     1      45.604 -10.410   8.795  1.00  0.00     0.001 A 
HETATM   12  C   UNL     1      44.605 -10.436   7.818  1.00  0.00     0.012 A 
ENDROOT
BRANCH   6  13
HETATM   13  C   UNL     1      40.196 -10.757   6.182  1.00  0.00     0.337 C 
BRANCH  13  14
HETATM   14  C   UNL     1      40.349 -12.258   5.939  1.00  0.00     0.243 C 
HETATM   15  N   UNL     1      41.389 -12.868   6.595  1.00  0.00    -0.359 N 
HETATM   16  H   UNL     1      42.115 -12.289   7.010  1.00  0.00     0.162 HD
HETATM   17  O   UNL     1      39.622 -12.816   5.118  1.00  0.00    -0.272 OA
BRANCH  15  18
HETATM   18  C   UNL     1      41.836 -14.197   6.209  1.00  0.00     0.130 C 
BRANCH  18  19
HETATM   19  C   UNL     1      42.926 -14.165   5.137  1.00  0.00     0.098 C 
BRANCH  19  20
HETATM   20  C   UNL     1      43.132 -15.519   4.488  1.00  0.00     0.109 A 
HETATM   21  N   UNL     1      43.427 -16.565   5.202  1.00  0.00    -0.234 NA
HETATM   22  C   UNL     1      43.597 -17.788   4.518  1.00  0.00     0.074 A 
HETATM   23  C   UNL     1      43.502 -17.897   3.127  1.00  0.00     0.061 A 
HETATM   24  C   UNL     1      43.860 -18.944   5.257  1.00  0.00     0.032 A 
HETATM   25  C   UNL     1      43.207 -16.672   2.369  1.00  0.00     0.259 A 
HETATM   26  C   UNL     1      43.667 -19.122   2.474  1.00  0.00     0.019 A 
HETATM   27  O   UNL     1      43.130 -16.656   1.148  1.00  0.00    -0.267 OA
HETATM   28  N   UNL     1      43.024 -15.543   3.124  1.00  0.00    -0.311 N 
HETATM   29  H   UNL     1      42.822 -14.707   2.591  1.00  0.00     0.170 HD
HETATM   30  C   UNL     1      43.930 -20.265   3.225  1.00  0.00     0.001 A 
HETATM   31  C   UNL     1      44.025 -20.177   4.615  1.00  0.00     0.002 A 
ENDBRANCH  19  20
ENDBRANCH  18  19
ENDBRANCH  15  18
ENDBRANCH  13  14
ENDBRANCH   6  13
BRANCH   1  32
HETATM   32  C   UNL     1      40.114  -8.575  10.728  1.00  0.00     0.006 A 
HETATM   33  C   UNL     1      40.200  -8.991  12.073  1.00  0.00     0.077 A 
HETATM   34  C   UNL     1      39.363  -8.414  13.034  1.00  0.00     0.037 A 
HETATM   35  C   UNL     1      38.457  -7.416  12.677  1.00  0.00     0.003 A 
HETATM   36  C   UNL     1      38.385  -6.978  11.360  1.00  0.00     0.001 A 
HETATM   37  C   UNL     1      39.214  -7.545  10.393  1.00  0.00     0.012 A 
BRANCH  33  38
HETATM   38  O   UNL     1      41.114  -9.975  12.343  1.00  0.00    -0.355 OA
HETATM   39  C   UNL     1      42.234  -9.621  13.150  1.00  0.00     0.210 C 
ENDBRANCH  33  38
ENDBRANCH   1  32
TORSDOF 7
ENDMDL
MODEL 9
REMARK VINA RESULT:      -9.4      1.798      2.403
REMARK  7 active torsions:
REMARK  status: ('A' for Active; 'I' for Inactive)
REMARK    1  A    between atoms: O_2  and  C_3 
REMARK    2  A    between atoms: C_4  and  C_5 
REMARK    3  A    between atoms: N_10  and  C_12 
REMARK    4  A    between atoms: C_12  and  C_13 
REMARK       I    between atoms: C_13  and  N_14 
REMARK    5  A    between atoms: N_14  and  C_15 
REMARK    6  A    between atoms: C_15  and  C_16 
REMARK    7  A    between atoms: C_16  and  C_17 
ROOT
HETATM    1  C   UNL     1      40.761 -12.949   3.035  1.00  0.00     0.190 C 
HETATM    2  O   UNL     1      40.219 -14.202   3.491  1.00  0.00    -0.339 OA
HETATM    3  C   UNL     1      41.207 -15.147   3.553  1.00  0.00     0.077 A 
HETATM    4  C   UNL     1      42.204 -15.075   4.532  1.00  0.00     0.001 A 
HETATM    5  C   UNL     1      42.181 -13.992   5.568  1.00  0.00     0.276 C 
HETATM    6  N   UNL     1      42.367 -12.610   5.001  1.00  0.00    -0.056 N 
HETATM    7  H   UNL     1      43.139 -12.653   4.314  1.00  0.00     0.280 HD
HETATM    8  C   UNL     1      41.136 -12.080   4.256  1.00  0.00     0.273 C 
HETATM    9  C   UNL     1      41.172 -16.186   2.626  1.00  0.00     0.037 A 
HETATM   10  C   UNL     1      42.172 -17.154   2.641  1.00  0.00     0.003 A 
HETATM   11  C   UNL     1      43.190 -17.087   3.591  1.00  0.00     0.001 A 
HETATM   12  C   UNL     1      43.205 -16.057   4.535  1.00  0.00     0.012 A 
ENDROOT
BRANCH   6  13
HETATM   13  C   UNL     1      42.843 -11.609   6.052  1.00  0.00     0.337 C 
BRANCH  13  14
HETATM   14  C   UNL     1      44.352 -11.400   5.931  1.00  0.00     0.243 C 
HETATM   15  N   UNL     1      45.045 -11.337   7.114  1.00  0.00    -0.359 N 
HETATM   16  H   UNL     1      44.528 -11.208   7.980  1.00  0.00     0.162 HD
HETATM   17  O   UNL     1      44.849 -11.205   4.822  1.00  0.00    -0.272 OA
BRANCH  15  18
HETATM   18  C   UNL     1      46.407 -10.831   7.153  1.00  0.00     0.130 C 
BRANCH  18  19
HETATM   19  C   UNL     1      46.514  -9.479   7.860  1.00  0.00     0.098 C 
BRANCH  19  20
HETATM   20  C   UNL     1      45.375  -9.249   8.832  1.00  0.00     0.109 A 
HETATM   21  N   UNL     1      45.089 -10.125   9.749  1.00  0.00    -0.234 NA
HETATM   22  C   UNL     1      44.015  -9.829  10.616  1.00  0.00     0.074 A 
HETATM   23  C   UNL     1      43.242  -8.670  10.494  1.00  0.00     0.061 A 
HETATM   24  C   UNL     1      43.714 -10.720  11.649  1.00  0.00     0.032 A 
HETATM   25  C   UNL     1      43.585  -7.736   9.412  1.00  0.00     0.259 A 
HETATM   26  C   UNL     1      42.188  -8.396  11.371  1.00  0.00     0.019 A 
HETATM   27  O   UNL     1      42.954  -6.708   9.204  1.00  0.00    -0.267 OA
HETATM   28  N   UNL     1      44.665  -8.093   8.646  1.00  0.00    -0.311 N 
HETATM   29  H   UNL     1      44.890  -7.442   7.905  1.00  0.00     0.170 HD
HETATM   30  C   UNL     1      41.900  -9.295  12.393  1.00  0.00     0.001 A 
HETATM   31  C   UNL     1      42.663 -10.456  12.534  1.00  0.00     0.002 A 
ENDBRANCH  19  20
ENDBRANCH  18  19
ENDBRANCH  15  18
ENDBRANCH  13  14
ENDBRANCH   6  13
BRANCH   1  32
HETATM   32  C   UNL     1      39.706 -12.285   2.162  1.00  0.00     0.006 A 
HETATM   33  C   UNL     1      39.555 -12.669   0.813  1.00  0.00     0.077 A 
HETATM   34  C   UNL     1      38.593 -12.042   0.015  1.00  0.00     0.037 A 
HETATM   35  C   UNL     1      37.767 -11.053   0.547  1.00  0.00     0.003 A 
HETATM   36  C   UNL     1      37.886 -10.689   1.883  1.00  0.00     0.001 A 
HETATM   37  C   UNL     1      38.841 -11.306   2.689  1.00  0.00     0.012 A 
BRANCH  33  38
HETATM   38  O   UNL     1      40.405 -13.646   0.365  1.00  0.00    -0.355 OA
HETATM   39  C   UNL     1      39.908 -14.536  -0.631  1.00  0.00     0.210 C 
ENDBRANCH  33  38
ENDBRANCH   1  32
TORSDOF 7
ENDMDL
MODEL 10
REMARK VINA RESULT:      -9.3      3.606      6.145
REMARK  7 active torsions:
REMARK  status: ('A' for Active; 'I' for Inactive)
REMARK    1  A    between atoms: O_2  and  C_3 
REMARK    2  A    between atoms: C_4  and  C_5 
REMARK    3  A    between atoms: N_10  and  C_12 
REMARK    4  A    between atoms: C_12  and  C_13 
REMARK       I    between atoms: C_13  and  N_14 
REMARK    5  A    between atoms: N_14  and  C_15 
REMARK    6  A    between atoms: C_15  and  C_16 
REMARK    7  A    between atoms: C_16  and  C_17 
ROOT
HETATM    1  C   UNL     1      43.074 -11.485   6.819  1.00  0.00     0.190 C 
HETATM    2  O   UNL     1      43.502 -12.634   6.065  1.00  0.00    -0.339 OA
HETATM    3  C   UNL     1      42.662 -13.689   6.297  1.00  0.00     0.077 A 
HETATM    4  C   UNL     1      41.356 -13.686   5.795  1.00  0.00     0.001 A 
HETATM    5  C   UNL     1      40.867 -12.552   4.945  1.00  0.00     0.276 C 
HETATM    6  N   UNL     1      40.795 -11.238   5.675  1.00  0.00    -0.056 N 
HETATM    7  H   UNL     1      40.367 -11.414   6.600  1.00  0.00     0.280 HD
HETATM    8  C   UNL     1      42.167 -10.602   5.934  1.00  0.00     0.273 C 
HETATM    9  C   UNL     1      43.156 -14.766   7.029  1.00  0.00     0.037 A 
HETATM   10  C   UNL     1      42.326 -15.848   7.305  1.00  0.00     0.003 A 
HETATM   11  C   UNL     1      41.013 -15.854   6.837  1.00  0.00     0.001 A 
HETATM   12  C   UNL     1      40.530 -14.783   6.082  1.00  0.00     0.012 A 
ENDROOT
BRANCH   6  13
HETATM   13  C   UNL     1      39.852 -10.246   4.997  1.00  0.00     0.337 C 
BRANCH  13  14
HETATM   14  C   UNL     1      39.069  -9.464   6.052  1.00  0.00     0.243 C 
HETATM   15  N   UNL     1      39.766  -9.124   7.184  1.00  0.00    -0.359 N 
HETATM   16  H   UNL     1      40.657  -9.578   7.368  1.00  0.00     0.162 HD
HETATM   17  O   UNL     1      37.865  -9.269   5.890  1.00  0.00    -0.272 OA
BRANCH  15  18
HETATM   18  C   UNL     1      39.070  -8.672   8.379  1.00  0.00     0.130 C 
BRANCH  18  19
HETATM   19  C   UNL     1      39.209  -9.650   9.547  1.00  0.00     0.098 C 
BRANCH  19  20
HETATM   20  C   UNL     1      40.249  -9.197  10.552  1.00  0.00     0.109 A 
HETATM   21  N   UNL     1      40.150  -8.045  11.147  1.00  0.00    -0.234 NA
HETATM   22  C   UNL     1      41.159  -7.704  12.072  1.00  0.00     0.074 A 
HETATM   23  C   UNL     1      42.258  -8.530  12.331  1.00  0.00     0.061 A 
HETATM   24  C   UNL     1      41.057  -6.500  12.772  1.00  0.00     0.032 A 
HETATM   25  C   UNL     1      42.339  -9.802  11.598  1.00  0.00     0.259 A 
HETATM   26  C   UNL     1      43.241  -8.173  13.259  1.00  0.00     0.019 A 
HETATM   27  O   UNL     1      43.273 -10.581  11.732  1.00  0.00    -0.267 OA
HETATM   28  N   UNL     1      41.294 -10.059  10.749  1.00  0.00    -0.311 N 
HETATM   29  H   UNL     1      41.362 -10.937  10.250  1.00  0.00     0.170 HD
HETATM   30  C   UNL     1      43.125  -6.968  13.946  1.00  0.00     0.001 A 
HETATM   31  C   UNL     1      42.033  -6.132  13.705  1.00  0.00     0.002 A 
ENDBRANCH  19  20
ENDBRANCH  18  19
ENDBRANCH  15  18
ENDBRANCH  13  14
ENDBRANCH   6  13
BRANCH   1  32
HETATM   32  C   UNL     1      44.323 -10.746   7.276  1.00  0.00     0.006 A 
HETATM   33  C   UNL     1      44.210  -9.552   8.020  1.00  0.00     0.077 A 
HETATM   34  C   UNL     1      45.364  -8.872   8.423  1.00  0.00     0.037 A 
HETATM   35  C   UNL     1      46.627  -9.375   8.113  1.00  0.00     0.003 A 
HETATM   36  C   UNL     1      46.749 -10.567   7.407  1.00  0.00     0.001 A 
HETATM   37  C   UNL     1      45.607 -11.254   7.000  1.00  0.00     0.012 A 
BRANCH  33  38
HETATM   38  O   UNL     1      42.935  -9.124   8.283  1.00  0.00    -0.355 OA
HETATM   39  C   UNL     1      42.716  -7.716   8.318  1.00  0.00     0.210 C 
ENDBRANCH  33  38
ENDBRANCH   1  32
TORSDOF 7
ENDMDL
