MODEL 1
REMARK VINA RESULT:      -8.0      0.000      0.000
REMARK  4 active torsions:
REMARK  status: ('A' for Active; 'I' for Inactive)
REMARK    1  A    between atoms: C_2  and  C_3 
REMARK    2  A    between atoms: C_3  and  N_4 
REMARK    3  A    between atoms: C_3  and  C_17 
REMARK       I    between atoms: N_4  and  C_5 
REMARK    4  A    between atoms: C_5  and  C_6 
ROOT
HETATM    1  N   UNL     1      43.583 -13.333   5.918  1.00  0.00    -0.345 N 
HETATM    2  C   UNL     1      42.590 -14.294   5.976  1.00  0.00     0.252 C 
HETATM    3  O   UNL     1      41.459 -14.036   6.375  1.00  0.00    -0.268 OA
HETATM    4  H   UNL     1      44.400 -13.566   5.365  1.00  0.00     0.163 HD
ENDROOT
BRANCH   1   5
HETATM    5  C   UNL     1      43.255 -11.913   6.074  1.00  0.00     0.152 C 
BRANCH   5   6
HETATM    6  C   UNL     1      43.112 -11.219   4.713  1.00  0.00     0.028 C 
HETATM    7  C   UNL     1      43.884 -11.921   3.603  1.00  0.00     0.007 C 
ENDBRANCH   5   6
BRANCH   5   8
HETATM    8  C   UNL     1      44.260 -11.225   7.008  1.00  0.00     0.104 A 
HETATM    9  N   UNL     1      44.083 -10.815   8.276  1.00  0.00    -0.347 N 
HETATM   10  H   UNL     1      43.211 -10.903   8.790  1.00  0.00     0.167 HD
HETATM   11  C   UNL     1      45.246 -10.253   8.797  1.00  0.00     0.022 A 
HETATM   12  C   UNL     1      45.348  -9.730  10.168  1.00  0.00     0.069 C 
HETATM   13  C   UNL     1      46.162 -10.318   7.776  1.00  0.00     0.114 A 
HETATM   14  N   UNL     1      45.530 -10.906   6.716  1.00  0.00    -0.352 N 
HETATM   15  H   UNL     1      45.905 -11.061   5.768  1.00  0.00     0.166 HD
ENDBRANCH   5   8
ENDBRANCH   1   5
BRANCH   2  16
HETATM   16  C   UNL     1      42.949 -15.653   5.486  1.00  0.00     0.033 A 
HETATM   17  C   UNL     1      42.587 -15.989   4.168  1.00  0.00     0.031 A 
HETATM   18  C   UNL     1      42.974 -17.243   3.661  1.00  0.00     0.001 A 
HETATM   19  C   UNL     1      43.677 -18.106   4.491  1.00  0.00     0.086 A 
HETATM   20  C   UNL     1      42.840 -17.924   2.422  1.00  0.00     0.046 A 
HETATM   21  O   UNL     1      43.981 -19.256   3.831  1.00  0.00    -0.315 OA
HETATM   22  C   UNL     1      44.020 -17.822   5.810  1.00  0.00     0.039 A 
HETATM   23  C   UNL     1      43.477 -19.139   2.570  1.00  0.00     0.050 A 
HETATM   24  C   UNL     1      43.711 -20.277   1.658  1.00  0.00     0.077 C 
HETATM   25  C   UNL     1      43.637 -16.567   6.300  1.00  0.00     0.020 A 
ENDBRANCH   2  16
TORSDOF 4
ENDMDL
MODEL 2
REMARK VINA RESULT:      -7.8      4.418      6.780
REMARK  4 active torsions:
REMARK  status: ('A' for Active; 'I' for Inactive)
REMARK    1  A    between atoms: C_2  and  C_3 
REMARK    2  A    between atoms: C_3  and  N_4 
REMARK    3  A    between atoms: C_3  and  C_17 
REMARK       I    between atoms: N_4  and  C_5 
REMARK    4  A    between atoms: C_5  and  C_6 
ROOT
HETATM    1  N   UNL     1      41.596 -14.176   1.681  1.00  0.00    -0.345 N 
HETATM    2  C   UNL     1      42.739 -14.145   2.461  1.00  0.00     0.252 C 
HETATM    3  O   UNL     1      43.515 -13.195   2.438  1.00  0.00    -0.268 OA
HETATM    4  H   UNL     1      40.902 -14.872   1.930  1.00  0.00     0.163 HD
ENDROOT
BRANCH   1   5
HETATM    5  C   UNL     1      41.127 -12.967   1.000  1.00  0.00     0.152 C 
BRANCH   5   6
HETATM    6  C   UNL     1      40.078 -12.224   1.837  1.00  0.00     0.028 C 
HETATM    7  C   UNL     1      39.255 -13.153   2.721  1.00  0.00     0.007 C 
ENDBRANCH   5   6
BRANCH   5   8
HETATM    8  C   UNL     1      40.651 -13.297  -0.422  1.00  0.00     0.104 A 
HETATM    9  N   UNL     1      39.738 -14.204  -0.813  1.00  0.00    -0.347 N 
HETATM   10  H   UNL     1      39.238 -14.822  -0.180  1.00  0.00     0.167 HD
HETATM   11  C   UNL     1      39.564 -14.188  -2.194  1.00  0.00     0.022 A 
HETATM   12  C   UNL     1      38.618 -15.067  -2.900  1.00  0.00     0.069 C 
HETATM   13  C   UNL     1      40.433 -13.230  -2.653  1.00  0.00     0.114 A 
HETATM   14  N   UNL     1      41.071 -12.719  -1.557  1.00  0.00    -0.352 N 
HETATM   15  H   UNL     1      41.828 -12.020  -1.540  1.00  0.00     0.166 HD
ENDBRANCH   5   8
ENDBRANCH   1   5
BRANCH   2  16
HETATM   16  C   UNL     1      42.957 -15.305   3.368  1.00  0.00     0.033 A 
HETATM   17  C   UNL     1      43.262 -16.547   2.780  1.00  0.00     0.031 A 
HETATM   18  C   UNL     1      43.538 -17.641   3.620  1.00  0.00     0.001 A 
HETATM   19  C   UNL     1      43.475 -17.455   4.995  1.00  0.00     0.086 A 
HETATM   20  C   UNL     1      43.905 -19.000   3.432  1.00  0.00     0.046 A 
HETATM   21  O   UNL     1      43.787 -18.609   5.644  1.00  0.00    -0.315 OA
HETATM   22  C   UNL     1      43.141 -16.251   5.610  1.00  0.00     0.039 A 
HETATM   23  C   UNL     1      44.056 -19.545   4.691  1.00  0.00     0.050 A 
HETATM   24  C   UNL     1      44.444 -20.886   5.173  1.00  0.00     0.077 C 
HETATM   25  C   UNL     1      42.879 -15.168   4.763  1.00  0.00     0.020 A 
ENDBRANCH   2  16
TORSDOF 4
ENDMDL
MODEL 3
REMARK VINA RESULT:      -7.6      1.903      2.971
REMARK  4 active torsions:
REMARK  status: ('A' for Active; 'I' for Inactive)
REMARK    1  A    between atoms: C_2  and  C_3 
REMARK    2  A    between atoms: C_3  and  N_4 
REMARK    3  A    between atoms: C_3  and  C_17 
REMARK       I    between atoms: N_4  and  C_5 
REMARK    4  A    between atoms: C_5  and  C_6 
ROOT
HETATM    1  N   UNL     1      43.795 -12.129   7.554  1.00  0.00    -0.345 N 
HETATM    2  C   UNL     1      43.300 -12.420   6.296  1.00  0.00     0.252 C 
HETATM    3  O   UNL     1      42.893 -11.544   5.539  1.00  0.00    -0.268 OA
HETATM    4  H   UNL     1      44.319 -12.866   8.011  1.00  0.00     0.163 HD
ENDROOT
BRANCH   1   5
HETATM    5  C   UNL     1      44.105 -10.747   7.931  1.00  0.00     0.152 C 
BRANCH   5   6
HETATM    6  C   UNL     1      45.614 -10.538   8.103  1.00  0.00     0.028 C 
HETATM    7  C   UNL     1      45.997  -9.075   8.279  1.00  0.00     0.007 C 
ENDBRANCH   5   6
BRANCH   5   8
HETATM    8  C   UNL     1      43.287 -10.325   9.160  1.00  0.00     0.104 A 
HETATM    9  N   UNL     1      43.520 -10.594  10.457  1.00  0.00    -0.347 N 
HETATM   10  H   UNL     1      44.300 -11.150  10.795  1.00  0.00     0.167 HD
HETATM   11  C   UNL     1      42.557 -10.013  11.278  1.00  0.00     0.022 A 
HETATM   12  C   UNL     1      42.568 -10.130  12.745  1.00  0.00     0.069 C 
HETATM   13  C   UNL     1      41.693  -9.377  10.422  1.00  0.00     0.114 A 
HETATM   14  N   UNL     1      42.164  -9.591   9.156  1.00  0.00    -0.352 N 
HETATM   15  H   UNL     1      41.730  -9.302   8.267  1.00  0.00     0.166 HD
ENDBRANCH   5   8
ENDBRANCH   1   5
BRANCH   2  16
HETATM   16  C   UNL     1      43.327 -13.850   5.884  1.00  0.00     0.033 A 
HETATM   17  C   UNL     1      42.984 -14.154   4.553  1.00  0.00     0.031 A 
HETATM   18  C   UNL     1      43.066 -15.491   4.124  1.00  0.00     0.001 A 
HETATM   19  C   UNL     1      43.461 -16.459   5.038  1.00  0.00     0.086 A 
HETATM   20  C   UNL     1      42.848 -16.181   2.902  1.00  0.00     0.046 A 
HETATM   21  O   UNL     1      43.502 -17.682   4.445  1.00  0.00    -0.315 OA
HETATM   22  C   UNL     1      43.773 -16.200   6.370  1.00  0.00     0.039 A 
HETATM   23  C   UNL     1      43.135 -17.509   3.144  1.00  0.00     0.050 A 
HETATM   24  C   UNL     1      43.129 -18.718   2.294  1.00  0.00     0.077 C 
HETATM   25  C   UNL     1      43.696 -14.864   6.783  1.00  0.00     0.020 A 
ENDBRANCH   2  16
TORSDOF 4
ENDMDL
MODEL 4
REMARK VINA RESULT:      -7.5      5.150      8.282
REMARK  4 active torsions:
REMARK  status: ('A' for Active; 'I' for Inactive)
REMARK    1  A    between atoms: C_2  and  C_3 
REMARK    2  A    between atoms: C_3  and  N_4 
REMARK    3  A    between atoms: C_3  and  C_17 
REMARK       I    between atoms: N_4  and  C_5 
REMARK    4  A    between atoms: C_5  and  C_6 
ROOT
HETATM    1  N   UNL     1      41.815 -15.267   1.882  1.00  0.00    -0.345 N 
HETATM    2  C   UNL     1      40.514 -15.199   1.415  1.00  0.00     0.252 C 
HETATM    3  O   UNL     1      39.582 -15.734   2.007  1.00  0.00    -0.268 OA
HETATM    4  H   UNL     1      42.473 -14.614   1.474  1.00  0.00     0.163 HD
ENDROOT
BRANCH   1   5
HETATM    5  C   UNL     1      42.095 -15.751   3.237  1.00  0.00     0.152 C 
BRANCH   5   6
HETATM    6  C   UNL     1      42.827 -14.691   4.068  1.00  0.00     0.028 C 
HETATM    7  C   UNL     1      43.034 -13.382   3.317  1.00  0.00     0.007 C 
ENDBRANCH   5   6
BRANCH   5   8
HETATM    8  C   UNL     1      42.823 -17.101   3.190  1.00  0.00     0.104 A 
HETATM    9  N   UNL     1      42.669 -18.109   2.313  1.00  0.00    -0.347 N 
HETATM   10  H   UNL     1      42.005 -18.102   1.544  1.00  0.00     0.167 HD
HETATM   11  C   UNL     1      43.535 -19.163   2.592  1.00  0.00     0.022 A 
HETATM   12  C   UNL     1      43.594 -20.394   1.789  1.00  0.00     0.069 C 
HETATM   13  C   UNL     1      44.232 -18.769   3.707  1.00  0.00     0.114 A 
HETATM   14  N   UNL     1      43.773 -17.524   4.038  1.00  0.00    -0.352 N 
HETATM   15  H   UNL     1      44.039 -16.953   4.854  1.00  0.00     0.166 HD
ENDBRANCH   5   8
ENDBRANCH   1   5
BRANCH   2  16
HETATM   16  C   UNL     1      40.292 -14.400   0.178  1.00  0.00     0.033 A 
HETATM   17  C   UNL     1      40.857 -13.113   0.121  1.00  0.00     0.031 A 
HETATM   18  C   UNL     1      40.716 -12.366  -1.063  1.00  0.00     0.001 A 
HETATM   19  C   UNL     1      40.005 -12.923  -2.118  1.00  0.00     0.086 A 
HETATM   20  C   UNL     1      41.148 -11.093  -1.519  1.00  0.00     0.046 A 
HETATM   21  O   UNL     1      39.988 -12.072  -3.179  1.00  0.00    -0.315 OA
HETATM   22  C   UNL     1      39.402 -14.178  -2.083  1.00  0.00     0.039 A 
HETATM   23  C   UNL     1      40.691 -10.963  -2.815  1.00  0.00     0.050 A 
HETATM   24  C   UNL     1      40.822  -9.901  -3.833  1.00  0.00     0.077 C 
HETATM   25  C   UNL     1      39.558 -14.914  -0.902  1.00  0.00     0.020 A 
ENDBRANCH   2  16
TORSDOF 4
ENDMDL
MODEL 5
REMARK VINA RESULT:      -7.2      2.257      3.868
REMARK  4 active torsions:
REMARK  status: ('A' for Active; 'I' for Inactive)
REMARK    1  A    between atoms: C_2  and  C_3 
REMARK    2  A    between atoms: C_3  and  N_4 
REMARK    3  A    between atoms: C_3  and  C_17 
REMARK       I    between atoms: N_4  and  C_5 
REMARK    4  A    between atoms: C_5  and  C_6 
ROOT
HETATM    1  N   UNL     1      43.752 -11.616   8.014  1.00  0.00    -0.345 N 
HETATM    2  C   UNL     1      43.178 -11.656   6.755  1.00  0.00     0.252 C 
HETATM    3  O   UNL     1      42.708 -10.655   6.224  1.00  0.00    -0.268 OA
HETATM    4  H   UNL     1      44.317 -12.416   8.274  1.00  0.00     0.163 HD
ENDROOT
BRANCH   1   5
HETATM    5  C   UNL     1      44.063 -10.333   8.650  1.00  0.00     0.152 C 
BRANCH   5   6
HETATM    6  C   UNL     1      45.576 -10.135   8.798  1.00  0.00     0.028 C 
HETATM    7  C   UNL     1      46.359 -10.589   7.573  1.00  0.00     0.007 C 
ENDBRANCH   5   6
BRANCH   5   8
HETATM    8  C   UNL     1      43.295 -10.184   9.970  1.00  0.00     0.104 A 
HETATM    9  N   UNL     1      42.011  -9.830  10.161  1.00  0.00    -0.347 N 
HETATM   10  H   UNL     1      41.366  -9.592   9.412  1.00  0.00     0.167 HD
HETATM   11  C   UNL     1      41.678  -9.831  11.513  1.00  0.00     0.022 A 
HETATM   12  C   UNL     1      40.336  -9.495  12.015  1.00  0.00     0.069 C 
HETATM   13  C   UNL     1      42.832 -10.188  12.165  1.00  0.00     0.114 A 
HETATM   14  N   UNL     1      43.783 -10.389  11.203  1.00  0.00    -0.352 N 
HETATM   15  H   UNL     1      44.779 -10.615  11.342  1.00  0.00     0.166 HD
ENDBRANCH   5   8
ENDBRANCH   1   5
BRANCH   2  16
HETATM   16  C   UNL     1      43.201 -12.970   6.054  1.00  0.00     0.033 A 
HETATM   17  C   UNL     1      43.809 -14.053   6.716  1.00  0.00     0.031 A 
HETATM   18  C   UNL     1      43.784 -15.318   6.102  1.00  0.00     0.001 A 
HETATM   19  C   UNL     1      43.180 -15.440   4.857  1.00  0.00     0.086 A 
HETATM   20  C   UNL     1      44.237 -16.621   6.439  1.00  0.00     0.046 A 
HETATM   21  O   UNL     1      43.234 -16.730   4.429  1.00  0.00    -0.315 OA
HETATM   22  C   UNL     1      42.602 -14.384   4.158  1.00  0.00     0.039 A 
HETATM   23  C   UNL     1      43.870 -17.448   5.397  1.00  0.00     0.050 A 
HETATM   24  C   UNL     1      44.024 -18.896   5.151  1.00  0.00     0.077 C 
HETATM   25  C   UNL     1      42.625 -13.132   4.784  1.00  0.00     0.020 A 
ENDBRANCH   2  16
TORSDOF 4
ENDMDL
MODEL 6
REMARK VINA RESULT:      -7.1      2.876      7.930
REMARK  4 active torsions:
REMARK  status: ('A' for Active; 'I' for Inactive)
REMARK    1  A    between atoms: C_2  and  C_3 
REMARK    2  A    between atoms: C_3  and  N_4 
REMARK    3  A    between atoms: C_3  and  C_17 
REMARK       I    between atoms: N_4  and  C_5 
REMARK    4  A    between atoms: C_5  and  C_6 
ROOT
HETATM    1  N   UNL     1      42.844 -12.651   4.621  1.00  0.00    -0.345 N 
HETATM    2  C   UNL     1      43.895 -11.752   4.625  1.00  0.00     0.252 C 
HETATM    3  O   UNL     1      44.436 -11.382   3.588  1.00  0.00    -0.268 OA
HETATM    4  H   UNL     1      42.310 -12.720   5.480  1.00  0.00     0.163 HD
ENDROOT
BRANCH   1   5
HETATM    5  C   UNL     1      42.159 -12.992   3.371  1.00  0.00     0.152 C 
BRANCH   5   6
HETATM    6  C   UNL     1      40.636 -12.905   3.526  1.00  0.00     0.028 C 
HETATM    7  C   UNL     1      40.196 -11.795   4.472  1.00  0.00     0.007 C 
ENDBRANCH   5   6
BRANCH   5   8
HETATM    8  C   UNL     1      42.642 -14.350   2.843  1.00  0.00     0.104 A 
HETATM    9  N   UNL     1      42.812 -15.502   3.516  1.00  0.00    -0.347 N 
HETATM   10  H   UNL     1      42.645 -15.612   4.512  1.00  0.00     0.167 HD
HETATM   11  C   UNL     1      43.245 -16.524   2.675  1.00  0.00     0.022 A 
HETATM   12  C   UNL     1      43.501 -17.897   3.138  1.00  0.00     0.069 C 
HETATM   13  C   UNL     1      43.355 -15.945   1.436  1.00  0.00     0.114 A 
HETATM   14  N   UNL     1      42.987 -14.636   1.578  1.00  0.00    -0.352 N 
HETATM   15  H   UNL     1      43.004 -13.897   0.860  1.00  0.00     0.166 HD
ENDBRANCH   5   8
ENDBRANCH   1   5
BRANCH   2  16
HETATM   16  C   UNL     1      44.309 -11.217   5.951  1.00  0.00     0.033 A 
HETATM   17  C   UNL     1      43.310 -10.666   6.775  1.00  0.00     0.031 A 
HETATM   18  C   UNL     1      43.667 -10.214   8.058  1.00  0.00     0.001 A 
HETATM   19  C   UNL     1      44.996 -10.310   8.450  1.00  0.00     0.086 A 
HETATM   20  C   UNL     1      42.980  -9.648   9.164  1.00  0.00     0.046 A 
HETATM   21  O   UNL     1      45.151  -9.846   9.718  1.00  0.00    -0.315 OA
HETATM   22  C   UNL     1      46.016 -10.815   7.648  1.00  0.00     0.039 A 
HETATM   23  C   UNL     1      43.921  -9.451  10.153  1.00  0.00     0.050 A 
HETATM   24  C   UNL     1      43.846  -8.925  11.532  1.00  0.00     0.077 C 
HETATM   25  C   UNL     1      45.646 -11.270   6.376  1.00  0.00     0.020 A 
ENDBRANCH   2  16
TORSDOF 4
ENDMDL
MODEL 7
REMARK VINA RESULT:      -7.0      2.422      3.660
REMARK  4 active torsions:
REMARK  status: ('A' for Active; 'I' for Inactive)
REMARK    1  A    between atoms: C_2  and  C_3 
REMARK    2  A    between atoms: C_3  and  N_4 
REMARK    3  A    between atoms: C_3  and  C_17 
REMARK       I    between atoms: N_4  and  C_5 
REMARK    4  A    between atoms: C_5  and  C_6 
ROOT
HETATM    1  N   UNL     1      42.716 -13.288   5.188  1.00  0.00    -0.345 N 
HETATM    2  C   UNL     1      43.049 -13.377   3.848  1.00  0.00     0.252 C 
HETATM    3  O   UNL     1      43.294 -12.382   3.172  1.00  0.00    -0.268 OA
HETATM    4  H   UNL     1      42.761 -14.150   5.719  1.00  0.00     0.163 HD
ENDROOT
BRANCH   1   5
HETATM    5  C   UNL     1      42.903 -12.032   5.920  1.00  0.00     0.152 C 
BRANCH   5   6
HETATM    6  C   UNL     1      43.777 -12.235   7.163  1.00  0.00     0.028 C 
HETATM    7  C   UNL     1      44.811 -11.132   7.351  1.00  0.00     0.007 C 
ENDBRANCH   5   6
BRANCH   5   8
HETATM    8  C   UNL     1      41.549 -11.377   6.225  1.00  0.00     0.104 A 
HETATM    9  N   UNL     1      41.255 -10.069   6.338  1.00  0.00    -0.347 N 
HETATM   10  H   UNL     1      41.934  -9.319   6.243  1.00  0.00     0.167 HD
HETATM   11  C   UNL     1      39.901  -9.873   6.600  1.00  0.00     0.022 A 
HETATM   12  C   UNL     1      39.294  -8.542   6.760  1.00  0.00     0.069 C 
HETATM   13  C   UNL     1      39.363 -11.134   6.664  1.00  0.00     0.114 A 
HETATM   14  N   UNL     1      40.386 -12.012   6.436  1.00  0.00    -0.352 N 
HETATM   15  H   UNL     1      40.349 -13.041   6.465  1.00  0.00     0.166 HD
ENDBRANCH   5   8
ENDBRANCH   1   5
BRANCH   2  16
HETATM   16  C   UNL     1      43.141 -14.747   3.274  1.00  0.00     0.033 A 
HETATM   17  C   UNL     1      43.514 -15.794   4.138  1.00  0.00     0.031 A 
HETATM   18  C   UNL     1      43.544 -17.107   3.634  1.00  0.00     0.001 A 
HETATM   19  C   UNL     1      43.226 -17.312   2.298  1.00  0.00     0.086 A 
HETATM   20  C   UNL     1      43.824 -18.393   4.165  1.00  0.00     0.046 A 
HETATM   21  O   UNL     1      43.290 -18.636   1.994  1.00  0.00    -0.315 OA
HETATM   22  C   UNL     1      42.889 -16.297   1.406  1.00  0.00     0.039 A 
HETATM   23  C   UNL     1      43.646 -19.292   3.134  1.00  0.00     0.050 A 
HETATM   24  C   UNL     1      43.755 -20.763   3.042  1.00  0.00     0.077 C 
HETATM   25  C   UNL     1      42.854 -14.996   1.923  1.00  0.00     0.020 A 
ENDBRANCH   2  16
TORSDOF 4
ENDMDL
MODEL 8
REMARK VINA RESULT:      -6.8     16.097     17.730
REMARK  4 active torsions:
REMARK  status: ('A' for Active; 'I' for Inactive)
REMARK    1  A    between atoms: C_2  and  C_3 
REMARK    2  A    between atoms: C_3  and  N_4 
REMARK    3  A    between atoms: C_3  and  C_17 
REMARK       I    between atoms: N_4  and  C_5 
REMARK    4  A    between atoms: C_5  and  C_6 
ROOT
HETATM    1  N   UNL     1      46.058 -29.389  -0.144  1.00  0.00    -0.345 N 
HETATM    2  C   UNL     1      47.253 -28.692  -0.168  1.00  0.00     0.252 C 
HETATM    3  O   UNL     1      47.381 -27.644  -0.793  1.00  0.00    -0.268 OA
HETATM    4  H   UNL     1      45.969 -30.101   0.572  1.00  0.00     0.163 HD
ENDROOT
BRANCH   1   5
HETATM    5  C   UNL     1      44.825 -28.771  -0.640  1.00  0.00     0.152 C 
BRANCH   5   6
HETATM    6  C   UNL     1      43.588 -29.358   0.051  1.00  0.00     0.028 C 
HETATM    7  C   UNL     1      43.818 -30.765   0.588  1.00  0.00     0.007 C 
ENDBRANCH   5   6
BRANCH   5   8
HETATM    8  C   UNL     1      44.762 -28.843  -2.171  1.00  0.00     0.104 A 
HETATM    9  N   UNL     1      44.264 -29.823  -2.947  1.00  0.00    -0.347 N 
HETATM   10  H   UNL     1      43.863 -30.686  -2.591  1.00  0.00     0.167 HD
HETATM   11  C   UNL     1      44.369 -29.506  -4.298  1.00  0.00     0.022 A 
HETATM   12  C   UNL     1      43.894 -30.389  -5.375  1.00  0.00     0.069 C 
HETATM   13  C   UNL     1      44.978 -28.276  -4.331  1.00  0.00     0.114 A 
HETATM   14  N   UNL     1      45.201 -27.912  -3.032  1.00  0.00    -0.352 N 
HETATM   15  H   UNL     1      45.689 -27.072  -2.690  1.00  0.00     0.166 HD
ENDBRANCH   5   8
ENDBRANCH   1   5
BRANCH   2  16
HETATM   16  C   UNL     1      48.368 -29.254   0.643  1.00  0.00     0.033 A 
HETATM   17  C   UNL     1      48.267 -29.163   2.044  1.00  0.00     0.031 A 
HETATM   18  C   UNL     1      49.277 -29.746   2.832  1.00  0.00     0.001 A 
HETATM   19  C   UNL     1      50.342 -30.365   2.193  1.00  0.00     0.086 A 
HETATM   20  C   UNL     1      49.521 -29.896   4.223  1.00  0.00     0.046 A 
HETATM   21  O   UNL     1      51.206 -30.884   3.107  1.00  0.00    -0.315 OA
HETATM   22  C   UNL     1      50.493 -30.442   0.811  1.00  0.00     0.039 A 
HETATM   23  C   UNL     1      50.700 -30.604   4.341  1.00  0.00     0.050 A 
HETATM   24  C   UNL     1      51.472 -31.097   5.499  1.00  0.00     0.077 C 
HETATM   25  C   UNL     1      49.476 -29.866   0.038  1.00  0.00     0.020 A 
ENDBRANCH   2  16
TORSDOF 4
ENDMDL
MODEL 9
REMARK VINA RESULT:      -6.8      3.745      5.615
REMARK  4 active torsions:
REMARK  status: ('A' for Active; 'I' for Inactive)
REMARK    1  A    between atoms: C_2  and  C_3 
REMARK    2  A    between atoms: C_3  and  N_4 
REMARK    3  A    between atoms: C_3  and  C_17 
REMARK       I    between atoms: N_4  and  C_5 
REMARK    4  A    between atoms: C_5  and  C_6 
ROOT
HETATM    1  N   UNL     1      40.927 -13.810   3.498  1.00  0.00    -0.345 N 
HETATM    2  C   UNL     1      42.237 -13.996   3.094  1.00  0.00     0.252 C 
HETATM    3  O   UNL     1      42.956 -13.057   2.767  1.00  0.00    -0.268 OA
HETATM    4  H   UNL     1      40.488 -14.593   3.968  1.00  0.00     0.163 HD
ENDROOT
BRANCH   1   5
HETATM    5  C   UNL     1      40.427 -12.467   3.808  1.00  0.00     0.152 C 
BRANCH   5   6
HETATM    6  C   UNL     1      39.583 -12.468   5.089  1.00  0.00     0.028 C 
HETATM    7  C   UNL     1      39.970 -11.358   6.057  1.00  0.00     0.007 C 
ENDBRANCH   5   6
BRANCH   5   8
HETATM    8  C   UNL     1      39.699 -11.868   2.597  1.00  0.00     0.104 A 
HETATM    9  N   UNL     1      38.396 -11.564   2.466  1.00  0.00    -0.347 N 
HETATM   10  H   UNL     1      37.697 -11.717   3.188  1.00  0.00     0.167 HD
HETATM   11  C   UNL     1      38.124 -11.013   1.216  1.00  0.00     0.022 A 
HETATM   12  C   UNL     1      36.783 -10.574   0.801  1.00  0.00     0.069 C 
HETATM   13  C   UNL     1      39.330 -11.003   0.560  1.00  0.00     0.114 A 
HETATM   14  N   UNL     1      40.252 -11.529   1.422  1.00  0.00    -0.352 N 
HETATM   15  H   UNL     1      41.248 -11.720   1.237  1.00  0.00     0.166 HD
ENDBRANCH   5   8
ENDBRANCH   1   5
BRANCH   2  16
HETATM   16  C   UNL     1      42.750 -15.393   3.120  1.00  0.00     0.033 A 
HETATM   17  C   UNL     1      42.991 -15.978   4.378  1.00  0.00     0.031 A 
HETATM   18  C   UNL     1      43.413 -17.319   4.428  1.00  0.00     0.001 A 
HETATM   19  C   UNL     1      43.596 -18.003   3.234  1.00  0.00     0.086 A 
HETATM   20  C   UNL     1      43.719 -18.249   5.456  1.00  0.00     0.046 A 
HETATM   21  O   UNL     1      43.984 -19.283   3.476  1.00  0.00    -0.315 OA
HETATM   22  C   UNL     1      43.402 -17.446   1.972  1.00  0.00     0.039 A 
HETATM   23  C   UNL     1      44.051 -19.433   4.829  1.00  0.00     0.050 A 
HETATM   24  C   UNL     1      44.437 -20.769   5.327  1.00  0.00     0.077 C 
HETATM   25  C   UNL     1      42.974 -16.113   1.936  1.00  0.00     0.020 A 
ENDBRANCH   2  16
TORSDOF 4
ENDMDL
MODEL 10
REMARK VINA RESULT:      -6.7      3.742      7.900
REMARK  4 active torsions:
REMARK  status: ('A' for Active; 'I' for Inactive)
REMARK    1  A    between atoms: C_2  and  C_3 
REMARK    2  A    between atoms: C_3  and  N_4 
REMARK    3  A    between atoms: C_3  and  C_17 
REMARK       I    between atoms: N_4  and  C_5 
REMARK    4  A    between atoms: C_5  and  C_6 
ROOT
HETATM    1  N   UNL     1      41.562 -13.858   3.233  1.00  0.00    -0.345 N 
HETATM    2  C   UNL     1      41.121 -13.328   4.432  1.00  0.00     0.252 C 
HETATM    3  O   UNL     1      39.928 -13.254   4.709  1.00  0.00    -0.268 OA
HETATM    4  H   UNL     1      42.546 -14.096   3.184  1.00  0.00     0.163 HD
ENDROOT
BRANCH   1   5
HETATM    5  C   UNL     1      40.644 -14.596   2.361  1.00  0.00     0.152 C 
BRANCH   5   6
HETATM    6  C   UNL     1      41.136 -16.027   2.114  1.00  0.00     0.028 C 
HETATM    7  C   UNL     1      41.727 -16.677   3.358  1.00  0.00     0.007 C 
ENDBRANCH   5   6
BRANCH   5   8
HETATM    8  C   UNL     1      40.375 -13.811   1.070  1.00  0.00     0.104 A 
HETATM    9  N   UNL     1      39.200 -13.576   0.459  1.00  0.00    -0.347 N 
HETATM   10  H   UNL     1      38.303 -13.923   0.789  1.00  0.00     0.167 HD
HETATM   11  C   UNL     1      39.367 -12.799  -0.685  1.00  0.00     0.022 A 
HETATM   12  C   UNL     1      38.251 -12.377  -1.545  1.00  0.00     0.069 C 
HETATM   13  C   UNL     1      40.718 -12.571  -0.767  1.00  0.00     0.114 A 
HETATM   14  N   UNL     1      41.290 -13.199   0.304  1.00  0.00    -0.352 N 
HETATM   15  H   UNL     1      42.294 -13.278   0.523  1.00  0.00     0.166 HD
ENDBRANCH   5   8
ENDBRANCH   1   5
BRANCH   2  16
HETATM   16  C   UNL     1      42.170 -12.892   5.394  1.00  0.00     0.033 A 
HETATM   17  C   UNL     1      42.146 -11.552   5.825  1.00  0.00     0.031 A 
HETATM   18  C   UNL     1      43.087 -11.136   6.784  1.00  0.00     0.001 A 
HETATM   19  C   UNL     1      44.015 -12.059   7.249  1.00  0.00     0.086 A 
HETATM   20  C   UNL     1      43.366  -9.928   7.476  1.00  0.00     0.046 A 
HETATM   21  O   UNL     1      44.827 -11.488   8.178  1.00  0.00    -0.315 OA
HETATM   22  C   UNL     1      44.091 -13.381   6.818  1.00  0.00     0.039 A 
HETATM   23  C   UNL     1      44.425 -10.193   8.320  1.00  0.00     0.050 A 
HETATM   24  C   UNL     1      45.162  -9.378   9.307  1.00  0.00     0.077 C 
HETATM   25  C   UNL     1      43.143 -13.785   5.870  1.00  0.00     0.020 A 
ENDBRANCH   2  16
TORSDOF 4
ENDMDL
