MODEL 1
REMARK VINA RESULT:      -8.0      0.000      0.000
REMARK  11 active torsions:
REMARK  status: ('A' for Active; 'I' for Inactive)
REMARK    1  A    between atoms: C_2  and  N_3 
REMARK    2  A    between atoms: N_3  and  C_5 
REMARK    3  A    between atoms: N_3  and  C_34 
REMARK    4  A    between atoms: C_5  and  C_6 
REMARK    5  A    between atoms: C_6  and  C_7 
REMARK    6  A    between atoms: C_7  and  N_8 
REMARK       I    between atoms: N_8  and  C_9 
REMARK    7  A    between atoms: C_9  and  C_10 
REMARK    8  A    between atoms: C_10  and  O_11 
REMARK    9  A    between atoms: N_12  and  C_13 
REMARK   10  A    between atoms: C_14  and  O_15 
REMARK   11  A    between atoms: C_18  and  O_19 
ROOT
HETATM    1  C   UNL     1      42.569 -15.293   3.245  1.00  0.00     0.256 C 
HETATM    2  N   UNL     1      42.375 -14.443   4.440  1.00  0.00    -0.251 N 
HETATM    3  C   UNL     1      43.132 -14.656   5.584  1.00  0.00     0.330 C 
HETATM    4  O   UNL     1      43.219 -13.873   6.530  1.00  0.00    -0.246 OA
HETATM    5  N   UNL     1      43.765 -15.853   5.714  1.00  0.00    -0.308 N 
HETATM    6  C   UNL     1      43.712 -16.896   4.808  1.00  0.00     0.048 A 
HETATM    7  C   UNL     1      43.093 -16.687   3.582  1.00  0.00     0.035 A 
HETATM    8  C   UNL     1      44.287 -18.125   5.139  1.00  0.00     0.031 A 
HETATM    9  C   UNL     1      44.235 -19.182   4.233  1.00  0.00     0.021 A 
HETATM   10  C   UNL     1      43.631 -18.990   2.994  1.00  0.00     0.011 A 
HETATM   11 BR   UNL     1      43.552 -20.417   1.758  1.00  0.00    -0.051 Br
HETATM   12  C   UNL     1      43.083 -17.752   2.657  1.00  0.00     0.034 A 
HETATM   13  H   UNL     1      44.280 -15.956   6.581  1.00  0.00     0.170 HD
ENDROOT
BRANCH   1  14
HETATM   14  C   UNL     1      41.180 -15.513   2.462  1.00  0.00     0.279 C 
HETATM   15  N   UNL     1      41.084 -14.890   1.216  1.00  0.00    -0.356 N 
HETATM   16  H   UNL     1      41.972 -14.699   0.764  1.00  0.00     0.162 HD
HETATM   17  O   UNL     1      40.197 -16.054   2.973  1.00  0.00    -0.268 OA
BRANCH  15  18
HETATM   18  C   UNL     1      39.902 -15.076   0.403  1.00  0.00     0.124 C 
BRANCH  18  19
HETATM   19  C   UNL     1      40.058 -14.467  -0.990  1.00  0.00     0.047 C 
BRANCH  19  20
HETATM   20  C   UNL     1      39.823 -12.957  -1.057  1.00  0.00     0.236 C 
BRANCH  20  21
HETATM   21  N   UNL     1      38.441 -12.542  -0.568  1.00  0.00    -0.072 N 
HETATM   22  H   UNL     1      37.971 -13.396  -0.246  1.00  0.00     0.279 HD
BRANCH  21  23
HETATM   23  C   UNL     1      37.560 -12.016  -1.694  1.00  0.00     0.230 C 
HETATM   24  C   UNL     1      37.174 -13.144  -2.638  1.00  0.00     0.034 C 
ENDBRANCH  21  23
BRANCH  21  25
HETATM   25  C   UNL     1      38.436 -11.618   0.639  1.00  0.00     0.230 C 
HETATM   26  C   UNL     1      37.038 -11.230   1.078  1.00  0.00     0.034 C 
ENDBRANCH  21  25
ENDBRANCH  20  21
ENDBRANCH  19  20
ENDBRANCH  18  19
ENDBRANCH  15  18
ENDBRANCH   1  14
BRANCH   1  27
HETATM   27  O   UNL     1      43.602 -14.739   2.454  1.00  0.00    -0.359 OA
HETATM   28  H   UNL     1      44.162 -15.499   2.216  1.00  0.00     0.213 HD
ENDBRANCH   1  27
BRANCH   2  29
HETATM   29  C   UNL     1      41.506 -13.284   4.404  1.00  0.00     0.076 A 
HETATM   30  C   UNL     1      41.743 -12.127   3.639  1.00  0.00     0.098 A 
HETATM   31  C   UNL     1      40.764 -11.125   3.518  1.00  0.00     0.075 A 
HETATM   32  C   UNL     1      39.559 -11.231   4.208  1.00  0.00     0.070 A 
HETATM   33  C   UNL     1      39.323 -12.349   4.999  1.00  0.00     0.039 A 
HETATM   34  C   UNL     1      40.286 -13.355   5.104  1.00  0.00     0.035 A 
BRANCH  30  35
HETATM   35  O   UNL     1      42.942 -11.972   2.989  1.00  0.00    -0.354 OA
HETATM   36  C   UNL     1      43.961 -11.475   3.871  1.00  0.00     0.210 C 
ENDBRANCH  30  35
BRANCH  32  37
HETATM   37  O   UNL     1      38.532 -10.332   4.150  1.00  0.00    -0.356 OA
HETATM   38  C   UNL     1      38.266  -9.625   5.357  1.00  0.00     0.210 C 
ENDBRANCH  32  37
ENDBRANCH   2  29
TORSDOF 11
ENDMDL
MODEL 2
REMARK VINA RESULT:      -7.5      2.313      6.968
REMARK  11 active torsions:
REMARK  status: ('A' for Active; 'I' for Inactive)
REMARK    1  A    between atoms: C_2  and  N_3 
REMARK    2  A    between atoms: N_3  and  C_5 
REMARK    3  A    between atoms: N_3  and  C_34 
REMARK    4  A    between atoms: C_5  and  C_6 
REMARK    5  A    between atoms: C_6  and  C_7 
REMARK    6  A    between atoms: C_7  and  N_8 
REMARK       I    between atoms: N_8  and  C_9 
REMARK    7  A    between atoms: C_9  and  C_10 
REMARK    8  A    between atoms: C_10  and  O_11 
REMARK    9  A    between atoms: N_12  and  C_13 
REMARK   10  A    between atoms: C_14  and  O_15 
REMARK   11  A    between atoms: C_18  and  O_19 
ROOT
HETATM    1  C   UNL     1      40.163 -13.515   2.105  1.00  0.00     0.256 C 
HETATM    2  N   UNL     1      40.377 -12.395   3.047  1.00  0.00    -0.251 N 
HETATM    3  C   UNL     1      39.549 -11.281   3.014  1.00  0.00     0.330 C 
HETATM    4  O   UNL     1      39.490 -10.418   3.890  1.00  0.00    -0.246 OA
HETATM    5  N   UNL     1      38.802 -11.077   1.897  1.00  0.00    -0.308 N 
HETATM    6  C   UNL     1      38.800 -11.878   0.770  1.00  0.00     0.048 A 
HETATM    7  C   UNL     1      39.495 -13.080   0.802  1.00  0.00     0.035 A 
HETATM    8  C   UNL     1      38.096 -11.468  -0.365  1.00  0.00     0.031 A 
HETATM    9  C   UNL     1      38.094 -12.268  -1.506  1.00  0.00     0.021 A 
HETATM   10  C   UNL     1      38.772 -13.482  -1.491  1.00  0.00     0.011 A 
HETATM   11 BR   UNL     1      38.778 -14.575  -3.032  1.00  0.00    -0.051 Br
HETATM   12  C   UNL     1      39.450 -13.901  -0.344  1.00  0.00     0.034 A 
HETATM   13  H   UNL     1      38.237 -10.236   1.925  1.00  0.00     0.170 HD
ENDROOT
BRANCH   1  14
HETATM   14  C   UNL     1      41.562 -14.193   1.687  1.00  0.00     0.279 C 
HETATM   15  N   UNL     1      41.675 -15.558   1.956  1.00  0.00    -0.356 N 
HETATM   16  H   UNL     1      40.794 -16.057   2.019  1.00  0.00     0.162 HD
HETATM   17  O   UNL     1      42.537 -13.544   1.303  1.00  0.00    -0.268 OA
BRANCH  15  18
HETATM   18  C   UNL     1      42.868 -16.277   1.564  1.00  0.00     0.124 C 
BRANCH  18  19
HETATM   19  C   UNL     1      43.329 -17.261   2.639  1.00  0.00     0.047 C 
BRANCH  19  20
HETATM   20  C   UNL     1      42.888 -16.907   4.060  1.00  0.00     0.236 C 
BRANCH  20  21
HETATM   21  N   UNL     1      43.635 -17.688   5.133  1.00  0.00    -0.072 N 
HETATM   22  H   UNL     1      42.924 -18.112   5.740  1.00  0.00     0.279 HD
BRANCH  21  23
HETATM   23  C   UNL     1      44.444 -16.784   6.054  1.00  0.00     0.230 C 
HETATM   24  C   UNL     1      43.840 -16.772   7.450  1.00  0.00     0.034 C 
ENDBRANCH  21  23
BRANCH  21  25
HETATM   25  C   UNL     1      44.455 -18.861   4.621  1.00  0.00     0.230 C 
HETATM   26  C   UNL     1      44.071 -20.177   5.271  1.00  0.00     0.034 C 
ENDBRANCH  21  25
ENDBRANCH  20  21
ENDBRANCH  19  20
ENDBRANCH  18  19
ENDBRANCH  15  18
ENDBRANCH   1  14
BRANCH   1  27
HETATM   27  O   UNL     1      39.227 -14.412   2.669  1.00  0.00    -0.359 OA
HETATM   28  H   UNL     1      38.383 -13.926   2.655  1.00  0.00     0.213 HD
ENDBRANCH   1  27
BRANCH   2  29
HETATM   29  C   UNL     1      41.352 -12.487   4.115  1.00  0.00     0.076 A 
HETATM   30  C   UNL     1      41.304 -13.422   5.165  1.00  0.00     0.098 A 
HETATM   31  C   UNL     1      42.381 -13.566   6.058  1.00  0.00     0.075 A 
HETATM   32  C   UNL     1      43.495 -12.738   5.955  1.00  0.00     0.070 A 
HETATM   33  C   UNL     1      43.544 -11.783   4.947  1.00  0.00     0.039 A 
HETATM   34  C   UNL     1      42.485 -11.653   4.047  1.00  0.00     0.035 A 
BRANCH  30  35
HETATM   35  O   UNL     1      40.196 -14.217   5.322  1.00  0.00    -0.354 OA
HETATM   36  C   UNL     1      40.396 -15.209   6.341  1.00  0.00     0.210 C 
ENDBRANCH  30  35
BRANCH  32  37
HETATM   37  O   UNL     1      44.604 -12.801   6.751  1.00  0.00    -0.356 OA
HETATM   38  C   UNL     1      45.291 -11.568   6.946  1.00  0.00     0.210 C 
ENDBRANCH  32  37
ENDBRANCH   2  29
TORSDOF 11
ENDMDL
MODEL 3
REMARK VINA RESULT:      -7.4      1.216      1.808
REMARK  11 active torsions:
REMARK  status: ('A' for Active; 'I' for Inactive)
REMARK    1  A    between atoms: C_2  and  N_3 
REMARK    2  A    between atoms: N_3  and  C_5 
REMARK    3  A    between atoms: N_3  and  C_34 
REMARK    4  A    between atoms: C_5  and  C_6 
REMARK    5  A    between atoms: C_6  and  C_7 
REMARK    6  A    between atoms: C_7  and  N_8 
REMARK       I    between atoms: N_8  and  C_9 
REMARK    7  A    between atoms: C_9  and  C_10 
REMARK    8  A    between atoms: C_10  and  O_11 
REMARK    9  A    between atoms: N_12  and  C_13 
REMARK   10  A    between atoms: C_14  and  O_15 
REMARK   11  A    between atoms: C_18  and  O_19 
ROOT
HETATM    1  C   UNL     1      42.533 -14.855   2.478  1.00  0.00     0.256 C 
HETATM    2  N   UNL     1      42.364 -13.798   3.500  1.00  0.00    -0.251 N 
HETATM    3  C   UNL     1      43.083 -13.847   4.687  1.00  0.00     0.330 C 
HETATM    4  O   UNL     1      43.194 -12.916   5.484  1.00  0.00    -0.246 OA
HETATM    5  N   UNL     1      43.642 -15.034   5.043  1.00  0.00    -0.308 N 
HETATM    6  C   UNL     1      43.549 -16.216   4.332  1.00  0.00     0.048 A 
HETATM    7  C   UNL     1      42.969 -16.194   3.070  1.00  0.00     0.035 A 
HETATM    8  C   UNL     1      44.046 -17.396   4.889  1.00  0.00     0.031 A 
HETATM    9  C   UNL     1      43.951 -18.592   4.180  1.00  0.00     0.021 A 
HETATM   10  C   UNL     1      43.386 -18.589   2.909  1.00  0.00     0.011 A 
HETATM   11 BR   UNL     1      43.251 -20.205   1.938  1.00  0.00    -0.051 Br
HETATM   12  C   UNL     1      42.917 -17.402   2.345  1.00  0.00     0.034 A 
HETATM   13  H   UNL     1      44.132 -15.011   5.930  1.00  0.00     0.170 HD
ENDROOT
BRANCH   1  14
HETATM   14  C   UNL     1      41.151 -15.135   1.704  1.00  0.00     0.279 C 
HETATM   15  N   UNL     1      41.075 -14.632   0.403  1.00  0.00    -0.356 N 
HETATM   16  H   UNL     1      41.970 -14.493  -0.055  1.00  0.00     0.162 HD
HETATM   17  O   UNL     1      40.157 -15.616   2.251  1.00  0.00    -0.268 OA
BRANCH  15  18
HETATM   18  C   UNL     1      39.900 -14.883  -0.403  1.00  0.00     0.124 C 
BRANCH  18  19
HETATM   19  C   UNL     1      39.844 -13.984  -1.638  1.00  0.00     0.047 C 
BRANCH  19  20
HETATM   20  C   UNL     1      39.547 -12.513  -1.344  1.00  0.00     0.236 C 
BRANCH  20  21
HETATM   21  N   UNL     1      38.123 -12.273  -0.856  1.00  0.00    -0.072 N 
HETATM   22  H   UNL     1      37.665 -13.191  -0.816  1.00  0.00     0.279 HD
BRANCH  21  23
HETATM   23  C   UNL     1      37.296 -11.469  -1.851  1.00  0.00     0.230 C 
HETATM   24  C   UNL     1      38.197 -10.827  -2.894  1.00  0.00     0.034 C 
ENDBRANCH  21  23
BRANCH  21  25
HETATM   25  C   UNL     1      38.011 -11.722   0.556  1.00  0.00     0.230 C 
HETATM   26  C   UNL     1      36.877 -10.727   0.712  1.00  0.00     0.034 C 
ENDBRANCH  21  25
ENDBRANCH  20  21
ENDBRANCH  19  20
ENDBRANCH  18  19
ENDBRANCH  15  18
ENDBRANCH   1  14
BRANCH   1  27
HETATM   27  O   UNL     1      43.613 -14.503   1.635  1.00  0.00    -0.359 OA
HETATM   28  H   UNL     1      43.780 -15.304   1.106  1.00  0.00     0.213 HD
ENDBRANCH   1  27
BRANCH   2  29
HETATM   29  C   UNL     1      41.563 -12.620   3.237  1.00  0.00     0.076 A 
HETATM   30  C   UNL     1      40.331 -12.333   3.853  1.00  0.00     0.098 A 
HETATM   31  C   UNL     1      39.706 -11.086   3.678  1.00  0.00     0.075 A 
HETATM   32  C   UNL     1      40.268 -10.129   2.838  1.00  0.00     0.070 A 
HETATM   33  C   UNL     1      41.466 -10.408   2.191  1.00  0.00     0.039 A 
HETATM   34  C   UNL     1      42.098 -11.639   2.379  1.00  0.00     0.035 A 
BRANCH  30  35
HETATM   35  O   UNL     1      39.729 -13.278   4.646  1.00  0.00    -0.354 OA
HETATM   36  C   UNL     1      39.721 -12.882   6.026  1.00  0.00     0.210 C 
ENDBRANCH  30  35
BRANCH  32  37
HETATM   37  O   UNL     1      39.761  -8.881   2.610  1.00  0.00    -0.356 OA
HETATM   38  C   UNL     1      38.606  -8.539   3.371  1.00  0.00     0.210 C 
ENDBRANCH  32  37
ENDBRANCH   2  29
TORSDOF 11
ENDMDL
MODEL 4
REMARK VINA RESULT:      -7.3      2.962      6.054
REMARK  11 active torsions:
REMARK  status: ('A' for Active; 'I' for Inactive)
REMARK    1  A    between atoms: C_2  and  N_3 
REMARK    2  A    between atoms: N_3  and  C_5 
REMARK    3  A    between atoms: N_3  and  C_34 
REMARK    4  A    between atoms: C_5  and  C_6 
REMARK    5  A    between atoms: C_6  and  C_7 
REMARK    6  A    between atoms: C_7  and  N_8 
REMARK       I    between atoms: N_8  and  C_9 
REMARK    7  A    between atoms: C_9  and  C_10 
REMARK    8  A    between atoms: C_10  and  O_11 
REMARK    9  A    between atoms: N_12  and  C_13 
REMARK   10  A    between atoms: C_14  and  O_15 
REMARK   11  A    between atoms: C_18  and  O_19 
ROOT
HETATM    1  C   UNL     1      41.098 -14.674   5.109  1.00  0.00     0.256 C 
HETATM    2  N   UNL     1      40.466 -13.555   4.376  1.00  0.00    -0.251 N 
HETATM    3  C   UNL     1      40.004 -13.736   3.079  1.00  0.00     0.330 C 
HETATM    4  O   UNL     1      39.264 -12.958   2.478  1.00  0.00    -0.246 OA
HETATM    5  N   UNL     1      40.463 -14.811   2.385  1.00  0.00    -0.308 N 
HETATM    6  C   UNL     1      41.370 -15.745   2.851  1.00  0.00     0.048 A 
HETATM    7  C   UNL     1      41.754 -15.699   4.185  1.00  0.00     0.035 A 
HETATM    8  C   UNL     1      41.870 -16.715   1.978  1.00  0.00     0.031 A 
HETATM    9  C   UNL     1      42.787 -17.657   2.440  1.00  0.00     0.021 A 
HETATM   10  C   UNL     1      43.174 -17.636   3.776  1.00  0.00     0.011 A 
HETATM   11 BR   UNL     1      44.418 -18.908   4.412  1.00  0.00    -0.051 Br
HETATM   12  C   UNL     1      42.650 -16.683   4.650  1.00  0.00     0.034 A 
HETATM   13  H   UNL     1      40.109 -14.874   1.438  1.00  0.00     0.170 HD
ENDROOT
BRANCH   1  14
HETATM   14  C   UNL     1      42.261 -14.141   6.085  1.00  0.00     0.279 C 
HETATM   15  N   UNL     1      43.258 -13.377   5.475  1.00  0.00    -0.356 N 
HETATM   16  H   UNL     1      42.980 -12.920   4.613  1.00  0.00     0.162 HD
HETATM   17  O   UNL     1      42.371 -14.499   7.259  1.00  0.00    -0.268 OA
BRANCH  15  18
HETATM   18  C   UNL     1      44.316 -12.798   6.274  1.00  0.00     0.124 C 
BRANCH  18  19
HETATM   19  C   UNL     1      43.984 -11.376   6.727  1.00  0.00     0.047 C 
BRANCH  19  20
HETATM   20  C   UNL     1      44.456 -11.030   8.140  1.00  0.00     0.236 C 
BRANCH  20  21
HETATM   21  N   UNL     1      43.333 -10.539   9.045  1.00  0.00    -0.072 N 
HETATM   22  H   UNL     1      42.693 -11.331   9.180  1.00  0.00     0.279 HD
BRANCH  21  23
HETATM   23  C   UNL     1      42.483  -9.461   8.386  1.00  0.00     0.230 C 
HETATM   24  C   UNL     1      41.290  -9.116   9.262  1.00  0.00     0.034 C 
ENDBRANCH  21  23
BRANCH  21  25
HETATM   25  C   UNL     1      43.764 -10.147  10.449  1.00  0.00     0.230 C 
HETATM   26  C   UNL     1      45.199  -9.662  10.512  1.00  0.00     0.034 C 
ENDBRANCH  21  25
ENDBRANCH  20  21
ENDBRANCH  19  20
ENDBRANCH  18  19
ENDBRANCH  15  18
ENDBRANCH   1  14
BRANCH   1  27
HETATM   27  O   UNL     1      40.088 -15.421   5.760  1.00  0.00    -0.359 OA
HETATM   28  H   UNL     1      39.262 -14.950   5.549  1.00  0.00     0.213 HD
ENDBRANCH   1  27
BRANCH   2  29
HETATM   29  C   UNL     1      40.182 -12.294   5.031  1.00  0.00     0.076 A 
HETATM   30  C   UNL     1      40.833 -11.079   4.747  1.00  0.00     0.098 A 
HETATM   31  C   UNL     1      40.376  -9.868   5.295  1.00  0.00     0.075 A 
HETATM   32  C   UNL     1      39.303  -9.857   6.182  1.00  0.00     0.070 A 
HETATM   33  C   UNL     1      38.672 -11.052   6.503  1.00  0.00     0.039 A 
HETATM   34  C   UNL     1      39.111 -12.254   5.944  1.00  0.00     0.035 A 
BRANCH  30  35
HETATM   35  O   UNL     1      41.925 -11.068   3.916  1.00  0.00    -0.354 OA
HETATM   36  C   UNL     1      41.657 -10.350   2.701  1.00  0.00     0.210 C 
ENDBRANCH  30  35
BRANCH  32  37
HETATM   37  O   UNL     1      38.764  -8.741   6.757  1.00  0.00    -0.356 OA
HETATM   38  C   UNL     1      38.540  -7.644   5.877  1.00  0.00     0.210 C 
ENDBRANCH  32  37
ENDBRANCH   2  29
TORSDOF 11
ENDMDL
MODEL 5
REMARK VINA RESULT:      -7.3      4.233      8.531
REMARK  11 active torsions:
REMARK  status: ('A' for Active; 'I' for Inactive)
REMARK    1  A    between atoms: C_2  and  N_3 
REMARK    2  A    between atoms: N_3  and  C_5 
REMARK    3  A    between atoms: N_3  and  C_34 
REMARK    4  A    between atoms: C_5  and  C_6 
REMARK    5  A    between atoms: C_6  and  C_7 
REMARK    6  A    between atoms: C_7  and  N_8 
REMARK       I    between atoms: N_8  and  C_9 
REMARK    7  A    between atoms: C_9  and  C_10 
REMARK    8  A    between atoms: C_10  and  O_11 
REMARK    9  A    between atoms: N_12  and  C_13 
REMARK   10  A    between atoms: C_14  and  O_15 
REMARK   11  A    between atoms: C_18  and  O_19 
ROOT
HETATM    1  C   UNL     1      41.723 -11.697   4.680  1.00  0.00     0.256 C 
HETATM    2  N   UNL     1      41.409 -13.037   5.223  1.00  0.00    -0.251 N 
HETATM    3  C   UNL     1      40.290 -13.227   6.023  1.00  0.00     0.330 C 
HETATM    4  O   UNL     1      39.815 -14.322   6.324  1.00  0.00    -0.246 OA
HETATM    5  N   UNL     1      39.718 -12.130   6.587  1.00  0.00    -0.308 N 
HETATM    6  C   UNL     1      40.161 -10.828   6.448  1.00  0.00     0.048 A 
HETATM    7  C   UNL     1      41.184 -10.560   5.546  1.00  0.00     0.035 A 
HETATM    8  C   UNL     1      39.568  -9.814   7.205  1.00  0.00     0.031 A 
HETATM    9  C   UNL     1      40.012  -8.500   7.073  1.00  0.00     0.021 A 
HETATM   10  C   UNL     1      41.025  -8.209   6.166  1.00  0.00     0.011 A 
HETATM   11 BR   UNL     1      41.636  -6.430   5.979  1.00  0.00    -0.051 Br
HETATM   12  C   UNL     1      41.595  -9.221   5.391  1.00  0.00     0.034 A 
HETATM   13  H   UNL     1      38.922 -12.337   7.178  1.00  0.00     0.170 HD
ENDROOT
BRANCH   1  14
HETATM   14  C   UNL     1      43.313 -11.471   4.583  1.00  0.00     0.279 C 
HETATM   15  N   UNL     1      43.993 -11.433   5.803  1.00  0.00    -0.356 N 
HETATM   16  H   UNL     1      43.528 -11.911   6.567  1.00  0.00     0.162 HD
HETATM   17  O   UNL     1      43.891 -11.192   3.531  1.00  0.00    -0.268 OA
BRANCH  15  18
HETATM   18  C   UNL     1      45.433 -11.297   5.824  1.00  0.00     0.124 C 
BRANCH  18  19
HETATM   19  C   UNL     1      45.943 -10.774   7.167  1.00  0.00     0.047 C 
BRANCH  19  20
HETATM   20  C   UNL     1      45.068 -11.137   8.367  1.00  0.00     0.236 C 
BRANCH  20  21
HETATM   21  N   UNL     1      44.598  -9.922   9.158  1.00  0.00    -0.072 N 
HETATM   22  H   UNL     1      43.573  -9.906   9.095  1.00  0.00     0.279 HD
BRANCH  21  23
HETATM   23  C   UNL     1      45.047  -8.610   8.529  1.00  0.00     0.230 C 
HETATM   24  C   UNL     1      44.005  -7.527   8.761  1.00  0.00     0.034 C 
ENDBRANCH  21  23
BRANCH  21  25
HETATM   25  C   UNL     1      44.892  -9.971  10.649  1.00  0.00     0.230 C 
HETATM   26  C   UNL     1      43.640 -10.100  11.493  1.00  0.00     0.034 C 
ENDBRANCH  21  25
ENDBRANCH  20  21
ENDBRANCH  19  20
ENDBRANCH  18  19
ENDBRANCH  15  18
ENDBRANCH   1  14
BRANCH   1  27
HETATM   27  O   UNL     1      41.035 -11.529   3.456  1.00  0.00    -0.359 OA
HETATM   28  H   UNL     1      41.610 -11.953   2.793  1.00  0.00     0.213 HD
ENDBRANCH   1  27
BRANCH   2  29
HETATM   29  C   UNL     1      42.167 -14.205   4.824  1.00  0.00     0.076 A 
HETATM   30  C   UNL     1      43.048 -14.914   5.661  1.00  0.00     0.098 A 
HETATM   31  C   UNL     1      43.606 -16.139   5.255  1.00  0.00     0.075 A 
HETATM   32  C   UNL     1      43.343 -16.646   3.985  1.00  0.00     0.070 A 
HETATM   33  C   UNL     1      42.505 -15.940   3.130  1.00  0.00     0.039 A 
HETATM   34  C   UNL     1      41.934 -14.734   3.539  1.00  0.00     0.035 A 
BRANCH  30  35
HETATM   35  O   UNL     1      43.366 -14.413   6.899  1.00  0.00    -0.354 OA
HETATM   36  C   UNL     1      43.017 -15.332   7.946  1.00  0.00     0.210 C 
ENDBRANCH  30  35
BRANCH  32  37
HETATM   37  O   UNL     1      43.812 -17.831   3.493  1.00  0.00    -0.356 OA
HETATM   38  C   UNL     1      44.416 -18.696   4.450  1.00  0.00     0.210 C 
ENDBRANCH  32  37
ENDBRANCH   2  29
TORSDOF 11
ENDMDL
MODEL 6
REMARK VINA RESULT:      -7.3      2.852      6.047
REMARK  11 active torsions:
REMARK  status: ('A' for Active; 'I' for Inactive)
REMARK    1  A    between atoms: C_2  and  N_3 
REMARK    2  A    between atoms: N_3  and  C_5 
REMARK    3  A    between atoms: N_3  and  C_34 
REMARK    4  A    between atoms: C_5  and  C_6 
REMARK    5  A    between atoms: C_6  and  C_7 
REMARK    6  A    between atoms: C_7  and  N_8 
REMARK       I    between atoms: N_8  and  C_9 
REMARK    7  A    between atoms: C_9  and  C_10 
REMARK    8  A    between atoms: C_10  and  O_11 
REMARK    9  A    between atoms: N_12  and  C_13 
REMARK   10  A    between atoms: C_14  and  O_15 
REMARK   11  A    between atoms: C_18  and  O_19 
ROOT
HETATM    1  C   UNL     1      41.391 -14.391   3.969  1.00  0.00     0.256 C 
HETATM    2  N   UNL     1      41.445 -13.285   2.988  1.00  0.00    -0.251 N 
HETATM    3  C   UNL     1      41.719 -13.545   1.652  1.00  0.00     0.330 C 
HETATM    4  O   UNL     1      41.555 -12.746   0.729  1.00  0.00    -0.246 OA
HETATM    5  N   UNL     1      42.286 -14.740   1.339  1.00  0.00    -0.308 N 
HETATM    6  C   UNL     1      42.634 -15.728   2.241  1.00  0.00     0.048 A 
HETATM    7  C   UNL     1      42.253 -15.587   3.569  1.00  0.00     0.035 A 
HETATM    8  C   UNL     1      43.347 -16.845   1.798  1.00  0.00     0.031 A 
HETATM    9  C   UNL     1      43.705 -17.843   2.702  1.00  0.00     0.021 A 
HETATM   10  C   UNL     1      43.321 -17.728   4.034  1.00  0.00     0.011 A 
HETATM   11 BR   UNL     1      43.802 -19.075   5.269  1.00  0.00    -0.051 Br
HETATM   12  C   UNL     1      42.583 -16.624   4.465  1.00  0.00     0.034 A 
HETATM   13  H   UNL     1      42.483 -14.858   0.352  1.00  0.00     0.170 HD
ENDROOT
BRANCH   1  14
HETATM   14  C   UNL     1      41.930 -13.912   5.408  1.00  0.00     0.279 C 
HETATM   15  N   UNL     1      43.300 -13.652   5.484  1.00  0.00    -0.356 N 
HETATM   16  H   UNL     1      43.740 -13.417   4.601  1.00  0.00     0.162 HD
HETATM   17  O   UNL     1      41.233 -13.919   6.425  1.00  0.00    -0.268 OA
BRANCH  15  18
HETATM   18  C   UNL     1      43.875 -13.156   6.716  1.00  0.00     0.124 C 
BRANCH  18  19
HETATM   19  C   UNL     1      44.507 -11.776   6.542  1.00  0.00     0.047 C 
BRANCH  19  20
HETATM   20  C   UNL     1      44.769 -11.024   7.848  1.00  0.00     0.236 C 
BRANCH  20  21
HETATM   21  N   UNL     1      43.497 -10.693   8.617  1.00  0.00    -0.072 N 
HETATM   22  H   UNL     1      42.966 -11.567   8.703  1.00  0.00     0.279 HD
BRANCH  21  23
HETATM   23  C   UNL     1      42.578  -9.756   7.844  1.00  0.00     0.230 C 
HETATM   24  C   UNL     1      43.054  -8.318   7.977  1.00  0.00     0.034 C 
ENDBRANCH  21  23
BRANCH  21  25
HETATM   25  C   UNL     1      43.712 -10.229  10.048  1.00  0.00     0.230 C 
HETATM   26  C   UNL     1      45.178 -10.066  10.401  1.00  0.00     0.034 C 
ENDBRANCH  21  25
ENDBRANCH  20  21
ENDBRANCH  19  20
ENDBRANCH  18  19
ENDBRANCH  15  18
ENDBRANCH   1  14
BRANCH   1  27
HETATM   27  O   UNL     1      40.081 -14.923   3.985  1.00  0.00    -0.359 OA
HETATM   28  H   UNL     1      39.985 -15.310   4.874  1.00  0.00     0.213 HD
ENDBRANCH   1  27
BRANCH   2  29
HETATM   29  C   UNL     1      41.075 -11.934   3.358  1.00  0.00     0.076 A 
HETATM   30  C   UNL     1      39.753 -11.467   3.470  1.00  0.00     0.098 A 
HETATM   31  C   UNL     1      39.475 -10.199   4.008  1.00  0.00     0.075 A 
HETATM   32  C   UNL     1      40.514  -9.352   4.386  1.00  0.00     0.070 A 
HETATM   33  C   UNL     1      41.828  -9.782   4.248  1.00  0.00     0.039 A 
HETATM   34  C   UNL     1      42.105 -11.049   3.733  1.00  0.00     0.035 A 
BRANCH  30  35
HETATM   35  O   UNL     1      38.712 -12.261   3.057  1.00  0.00    -0.354 OA
HETATM   36  C   UNL     1      38.077 -11.732   1.882  1.00  0.00     0.210 C 
ENDBRANCH  30  35
BRANCH  32  37
HETATM   37  O   UNL     1      40.362  -8.111   4.938  1.00  0.00    -0.356 OA
HETATM   38  C   UNL     1      39.544  -8.053   6.103  1.00  0.00     0.210 C 
ENDBRANCH  32  37
ENDBRANCH   2  29
TORSDOF 11
ENDMDL
MODEL 7
REMARK VINA RESULT:      -6.9      2.726      6.939
REMARK  11 active torsions:
REMARK  status: ('A' for Active; 'I' for Inactive)
REMARK    1  A    between atoms: C_2  and  N_3 
REMARK    2  A    between atoms: N_3  and  C_5 
REMARK    3  A    between atoms: N_3  and  C_34 
REMARK    4  A    between atoms: C_5  and  C_6 
REMARK    5  A    between atoms: C_6  and  C_7 
REMARK    6  A    between atoms: C_7  and  N_8 
REMARK       I    between atoms: N_8  and  C_9 
REMARK    7  A    between atoms: C_9  and  C_10 
REMARK    8  A    between atoms: C_10  and  O_11 
REMARK    9  A    between atoms: N_12  and  C_13 
REMARK   10  A    between atoms: C_14  and  O_15 
REMARK   11  A    between atoms: C_18  and  O_19 
ROOT
HETATM    1  C   UNL     1      39.343 -12.743   2.554  1.00  0.00     0.256 C 
HETATM    2  N   UNL     1      39.743 -12.139   3.845  1.00  0.00    -0.251 N 
HETATM    3  C   UNL     1      39.059 -11.041   4.348  1.00  0.00     0.330 C 
HETATM    4  O   UNL     1      39.154 -10.618   5.501  1.00  0.00    -0.246 OA
HETATM    5  N   UNL     1      38.286 -10.325   3.490  1.00  0.00    -0.308 N 
HETATM    6  C   UNL     1      38.127 -10.582   2.141  1.00  0.00     0.048 A 
HETATM    7  C   UNL     1      38.667 -11.748   1.613  1.00  0.00     0.035 A 
HETATM    8  C   UNL     1      37.422  -9.676   1.345  1.00  0.00     0.031 A 
HETATM    9  C   UNL     1      37.261  -9.927  -0.016  1.00  0.00     0.021 A 
HETATM   10  C   UNL     1      37.783 -11.095  -0.562  1.00  0.00     0.011 A 
HETATM   11 BR   UNL     1      37.572 -11.445  -2.406  1.00  0.00    -0.051 Br
HETATM   12  C   UNL     1      38.461 -12.011   0.243  1.00  0.00     0.034 A 
HETATM   13  H   UNL     1      37.834  -9.523   3.912  1.00  0.00     0.170 HD
ENDROOT
BRANCH   1  14
HETATM   14  C   UNL     1      40.623 -13.313   1.762  1.00  0.00     0.279 C 
HETATM   15  N   UNL     1      40.837 -14.688   1.871  1.00  0.00    -0.356 N 
HETATM   16  H   UNL     1      40.010 -15.234   2.090  1.00  0.00     0.162 HD
HETATM   17  O   UNL     1      41.459 -12.586   1.223  1.00  0.00    -0.268 OA
BRANCH  15  18
HETATM   18  C   UNL     1      41.924 -15.311   1.146  1.00  0.00     0.124 C 
BRANCH  18  19
HETATM   19  C   UNL     1      43.204 -15.382   1.978  1.00  0.00     0.047 C 
BRANCH  19  20
HETATM   20  C   UNL     1      43.838 -16.771   2.057  1.00  0.00     0.236 C 
BRANCH  20  21
HETATM   21  N   UNL     1      43.120 -17.706   3.022  1.00  0.00    -0.072 N 
HETATM   22  H   UNL     1      42.160 -17.809   2.675  1.00  0.00     0.279 HD
BRANCH  21  23
HETATM   23  C   UNL     1      42.969 -17.102   4.412  1.00  0.00     0.230 C 
HETATM   24  C   UNL     1      44.300 -17.116   5.145  1.00  0.00     0.034 C 
ENDBRANCH  21  23
BRANCH  21  25
HETATM   25  C   UNL     1      43.668 -19.123   3.072  1.00  0.00     0.230 C 
HETATM   26  C   UNL     1      43.129 -20.004   1.961  1.00  0.00     0.034 C 
ENDBRANCH  21  25
ENDBRANCH  20  21
ENDBRANCH  19  20
ENDBRANCH  18  19
ENDBRANCH  15  18
ENDBRANCH   1  14
BRANCH   1  27
HETATM   27  O   UNL     1      38.332 -13.703   2.795  1.00  0.00    -0.359 OA
HETATM   28  H   UNL     1      37.526 -13.310   2.415  1.00  0.00     0.213 HD
ENDBRANCH   1  27
BRANCH   2  29
HETATM   29  C   UNL     1      40.753 -12.756   4.681  1.00  0.00     0.076 A 
HETATM   30  C   UNL     1      42.072 -12.287   4.822  1.00  0.00     0.098 A 
HETATM   31  C   UNL     1      42.935 -12.833   5.788  1.00  0.00     0.075 A 
HETATM   32  C   UNL     1      42.518 -13.894   6.586  1.00  0.00     0.070 A 
HETATM   33  C   UNL     1      41.231 -14.395   6.435  1.00  0.00     0.039 A 
HETATM   34  C   UNL     1      40.365 -13.842   5.490  1.00  0.00     0.035 A 
BRANCH  30  35
HETATM   35  O   UNL     1      42.527 -11.276   4.014  1.00  0.00    -0.354 OA
HETATM   36  C   UNL     1      43.864 -11.528   3.553  1.00  0.00     0.210 C 
ENDBRANCH  30  35
BRANCH  32  37
HETATM   37  O   UNL     1      43.261 -14.487   7.567  1.00  0.00    -0.356 OA
HETATM   38  C   UNL     1      42.867 -15.809   7.923  1.00  0.00     0.210 C 
ENDBRANCH  32  37
ENDBRANCH   2  29
TORSDOF 11
ENDMDL
MODEL 8
REMARK VINA RESULT:      -6.7      3.087      6.507
REMARK  11 active torsions:
REMARK  status: ('A' for Active; 'I' for Inactive)
REMARK    1  A    between atoms: C_2  and  N_3 
REMARK    2  A    between atoms: N_3  and  C_5 
REMARK    3  A    between atoms: N_3  and  C_34 
REMARK    4  A    between atoms: C_5  and  C_6 
REMARK    5  A    between atoms: C_6  and  C_7 
REMARK    6  A    between atoms: C_7  and  N_8 
REMARK       I    between atoms: N_8  and  C_9 
REMARK    7  A    between atoms: C_9  and  C_10 
REMARK    8  A    between atoms: C_10  and  O_11 
REMARK    9  A    between atoms: N_12  and  C_13 
REMARK   10  A    between atoms: C_14  and  O_15 
REMARK   11  A    between atoms: C_18  and  O_19 
ROOT
HETATM    1  C   UNL     1      39.946 -13.587   2.654  1.00  0.00     0.256 C 
HETATM    2  N   UNL     1      39.874 -12.792   1.409  1.00  0.00    -0.251 N 
HETATM    3  C   UNL     1      40.438 -13.273   0.235  1.00  0.00     0.330 C 
HETATM    4  O   UNL     1      40.232 -12.812  -0.888  1.00  0.00    -0.246 OA
HETATM    5  N   UNL     1      41.349 -14.278   0.331  1.00  0.00    -0.308 N 
HETATM    6  C   UNL     1      41.783 -14.862   1.506  1.00  0.00     0.048 A 
HETATM    7  C   UNL     1      41.151 -14.525   2.696  1.00  0.00     0.035 A 
HETATM    8  C   UNL     1      42.835 -15.781   1.470  1.00  0.00     0.031 A 
HETATM    9  C   UNL     1      43.281 -16.371   2.651  1.00  0.00     0.021 A 
HETATM   10  C   UNL     1      42.653 -16.057   3.852  1.00  0.00     0.011 A 
HETATM   11 BR   UNL     1      43.250 -16.850   5.460  1.00  0.00    -0.051 Br
HETATM   12  C   UNL     1      41.583 -15.160   3.878  1.00  0.00     0.034 A 
HETATM   13  H   UNL     1      41.741 -14.567  -0.557  1.00  0.00     0.170 HD
ENDROOT
BRANCH   1  14
HETATM   14  C   UNL     1      40.075 -12.632   3.943  1.00  0.00     0.279 C 
HETATM   15  N   UNL     1      41.246 -11.874   4.017  1.00  0.00    -0.356 N 
HETATM   16  H   UNL     1      41.700 -11.699   3.126  1.00  0.00     0.162 HD
HETATM   17  O   UNL     1      39.286 -12.666   4.889  1.00  0.00    -0.268 OA
BRANCH  15  18
HETATM   18  C   UNL     1      41.433 -10.936   5.102  1.00  0.00     0.124 C 
BRANCH  18  19
HETATM   19  C   UNL     1      42.450 -11.437   6.128  1.00  0.00     0.047 C 
BRANCH  19  20
HETATM   20  C   UNL     1      42.815 -10.424   7.213  1.00  0.00     0.236 C 
BRANCH  20  21
HETATM   21  N   UNL     1      44.026 -10.838   8.040  1.00  0.00    -0.072 N 
HETATM   22  H   UNL     1      44.060 -11.863   8.023  1.00  0.00     0.279 HD
BRANCH  21  23
HETATM   23  C   UNL     1      43.874 -10.479   9.513  1.00  0.00     0.230 C 
HETATM   24  C   UNL     1      45.211 -10.046  10.093  1.00  0.00     0.034 C 
ENDBRANCH  21  23
BRANCH  21  25
HETATM   25  C   UNL     1      45.368 -10.396   7.480  1.00  0.00     0.230 C 
HETATM   26  C   UNL     1      45.958 -11.396   6.504  1.00  0.00     0.034 C 
ENDBRANCH  21  25
ENDBRANCH  20  21
ENDBRANCH  19  20
ENDBRANCH  18  19
ENDBRANCH  15  18
ENDBRANCH   1  14
BRANCH   1  27
HETATM   27  O   UNL     1      38.843 -14.472   2.694  1.00  0.00    -0.359 OA
HETATM   28  H   UNL     1      38.769 -14.729   3.630  1.00  0.00     0.213 HD
ENDBRANCH   1  27
BRANCH   2  29
HETATM   29  C   UNL     1      39.099 -11.570   1.342  1.00  0.00     0.076 A 
HETATM   30  C   UNL     1      39.647 -10.276   1.274  1.00  0.00     0.098 A 
HETATM   31  C   UNL     1      38.832  -9.156   1.029  1.00  0.00     0.075 A 
HETATM   32  C   UNL     1      37.452  -9.302   0.911  1.00  0.00     0.070 A 
HETATM   33  C   UNL     1      36.890 -10.568   1.013  1.00  0.00     0.039 A 
HETATM   34  C   UNL     1      37.699 -11.684   1.236  1.00  0.00     0.035 A 
BRANCH  30  35
HETATM   35  O   UNL     1      40.997 -10.097   1.438  1.00  0.00    -0.354 OA
HETATM   36  C   UNL     1      41.630  -9.692   0.213  1.00  0.00     0.210 C 
ENDBRANCH  30  35
BRANCH  32  37
HETATM   37  O   UNL     1      36.570  -8.291   0.654  1.00  0.00    -0.356 OA
HETATM   38  C   UNL     1      36.301  -7.418   1.747  1.00  0.00     0.210 C 
ENDBRANCH  32  37
ENDBRANCH   2  29
TORSDOF 11
ENDMDL
MODEL 9
REMARK VINA RESULT:      -6.6      3.316      7.047
REMARK  11 active torsions:
REMARK  status: ('A' for Active; 'I' for Inactive)
REMARK    1  A    between atoms: C_2  and  N_3 
REMARK    2  A    between atoms: N_3  and  C_5 
REMARK    3  A    between atoms: N_3  and  C_34 
REMARK    4  A    between atoms: C_5  and  C_6 
REMARK    5  A    between atoms: C_6  and  C_7 
REMARK    6  A    between atoms: C_7  and  N_8 
REMARK       I    between atoms: N_8  and  C_9 
REMARK    7  A    between atoms: C_9  and  C_10 
REMARK    8  A    between atoms: C_10  and  O_11 
REMARK    9  A    between atoms: N_12  and  C_13 
REMARK   10  A    between atoms: C_14  and  O_15 
REMARK   11  A    between atoms: C_18  and  O_19 
ROOT
HETATM    1  C   UNL     1      41.447 -11.421   2.256  1.00  0.00     0.256 C 
HETATM    2  N   UNL     1      42.247 -12.483   2.904  1.00  0.00    -0.251 N 
HETATM    3  C   UNL     1      42.582 -13.635   2.206  1.00  0.00     0.330 C 
HETATM    4  O   UNL     1      43.427 -14.457   2.562  1.00  0.00    -0.246 OA
HETATM    5  N   UNL     1      41.872 -13.929   1.084  1.00  0.00    -0.308 N 
HETATM    6  C   UNL     1      40.824 -13.184   0.576  1.00  0.00     0.048 A 
HETATM    7  C   UNL     1      40.540 -11.950   1.146  1.00  0.00     0.035 A 
HETATM    8  C   UNL     1      40.085 -13.681  -0.500  1.00  0.00     0.031 A 
HETATM    9  C   UNL     1      39.025 -12.938  -1.016  1.00  0.00     0.021 A 
HETATM   10  C   UNL     1      38.732 -11.694  -0.468  1.00  0.00     0.011 A 
HETATM   11 BR   UNL     1      37.296 -10.678  -1.157  1.00  0.00    -0.051 Br
HETATM   12  C   UNL     1      39.492 -11.189   0.589  1.00  0.00     0.034 A 
HETATM   13  H   UNL     1      42.148 -14.793   0.634  1.00  0.00     0.170 HD
ENDROOT
BRANCH   1  14
HETATM   14  C   UNL     1      40.479 -10.698   3.320  1.00  0.00     0.279 C 
HETATM   15  N   UNL     1      39.551 -11.528   3.953  1.00  0.00    -0.356 N 
HETATM   16  H   UNL     1      39.807 -12.509   3.986  1.00  0.00     0.162 HD
HETATM   17  O   UNL     1      40.433  -9.475   3.466  1.00  0.00    -0.268 OA
BRANCH  15  18
HETATM   18  C   UNL     1      38.676 -10.990   4.971  1.00  0.00     0.124 C 
BRANCH  18  19
HETATM   19  C   UNL     1      39.260 -11.147   6.375  1.00  0.00     0.047 C 
BRANCH  19  20
HETATM   20  C   UNL     1      39.488  -9.833   7.123  1.00  0.00     0.236 C 
BRANCH  20  21
HETATM   21  N   UNL     1      40.461  -9.965   8.287  1.00  0.00    -0.072 N 
HETATM   22  H   UNL     1      40.527 -10.965   8.508  1.00  0.00     0.279 HD
BRANCH  21  23
HETATM   23  C   UNL     1      39.934  -9.320   9.562  1.00  0.00     0.230 C 
HETATM   24  C   UNL     1      39.125  -8.076   9.232  1.00  0.00     0.034 C 
ENDBRANCH  21  23
BRANCH  21  25
HETATM   25  C   UNL     1      41.890  -9.542   7.983  1.00  0.00     0.230 C 
HETATM   26  C   UNL     1      42.026  -8.848   6.641  1.00  0.00     0.034 C 
ENDBRANCH  21  25
ENDBRANCH  20  21
ENDBRANCH  19  20
ENDBRANCH  18  19
ENDBRANCH  15  18
ENDBRANCH   1  14
BRANCH   1  27
HETATM   27  O   UNL     1      42.321 -10.543   1.574  1.00  0.00    -0.359 OA
HETATM   28  H   UNL     1      42.366  -9.753   2.142  1.00  0.00     0.213 HD
ENDBRANCH   1  27
BRANCH   2  29
HETATM   29  C   UNL     1      42.822 -12.292   4.220  1.00  0.00     0.076 A 
HETATM   30  C   UNL     1      42.396 -12.957   5.385  1.00  0.00     0.098 A 
HETATM   31  C   UNL     1      43.121 -12.853   6.585  1.00  0.00     0.075 A 
HETATM   32  C   UNL     1      44.247 -12.036   6.659  1.00  0.00     0.070 A 
HETATM   33  C   UNL     1      44.660 -11.343   5.529  1.00  0.00     0.039 A 
HETATM   34  C   UNL     1      43.953 -11.461   4.331  1.00  0.00     0.035 A 
BRANCH  30  35
HETATM   35  O   UNL     1      41.261 -13.728   5.355  1.00  0.00    -0.354 OA
HETATM   36  C   UNL     1      41.552 -15.107   5.633  1.00  0.00     0.210 C 
ENDBRANCH  30  35
BRANCH  32  37
HETATM   37  O   UNL     1      45.036 -11.875   7.762  1.00  0.00    -0.356 OA
HETATM   38  C   UNL     1      45.804 -10.676   7.798  1.00  0.00     0.210 C 
ENDBRANCH  32  37
ENDBRANCH   2  29
TORSDOF 11
ENDMDL
MODEL 10
REMARK VINA RESULT:      -6.5     15.524     18.173
REMARK  11 active torsions:
REMARK  status: ('A' for Active; 'I' for Inactive)
REMARK    1  A    between atoms: C_2  and  N_3 
REMARK    2  A    between atoms: N_3  and  C_5 
REMARK    3  A    between atoms: N_3  and  C_34 
REMARK    4  A    between atoms: C_5  and  C_6 
REMARK    5  A    between atoms: C_6  and  C_7 
REMARK    6  A    between atoms: C_7  and  N_8 
REMARK       I    between atoms: N_8  and  C_9 
REMARK    7  A    between atoms: C_9  and  C_10 
REMARK    8  A    between atoms: C_10  and  O_11 
REMARK    9  A    between atoms: N_12  and  C_13 
REMARK   10  A    between atoms: C_14  and  O_15 
REMARK   11  A    between atoms: C_18  and  O_19 
ROOT
HETATM    1  C   UNL     1      46.314 -31.130   1.545  1.00  0.00     0.256 C 
HETATM    2  N   UNL     1      47.130 -29.920   1.301  1.00  0.00    -0.251 N 
HETATM    3  C   UNL     1      46.724 -28.688   1.795  1.00  0.00     0.330 C 
HETATM    4  O   UNL     1      47.433 -27.683   1.854  1.00  0.00    -0.246 OA
HETATM    5  N   UNL     1      45.425 -28.549   2.170  1.00  0.00    -0.308 N 
HETATM    6  C   UNL     1      44.453 -29.530   2.090  1.00  0.00     0.048 A 
HETATM    7  C   UNL     1      44.831 -30.821   1.742  1.00  0.00     0.035 A 
HETATM    8  C   UNL     1      43.123 -29.206   2.368  1.00  0.00     0.031 A 
HETATM    9  C   UNL     1      42.138 -30.187   2.286  1.00  0.00     0.021 A 
HETATM   10  C   UNL     1      42.497 -31.490   1.953  1.00  0.00     0.011 A 
HETATM   11 BR   UNL     1      41.170 -32.829   1.837  1.00  0.00    -0.051 Br
HETATM   12  C   UNL     1      43.832 -31.814   1.704  1.00  0.00     0.034 A 
HETATM   13  H   UNL     1      45.186 -27.621   2.498  1.00  0.00     0.170 HD
ENDROOT
BRANCH   1  14
HETATM   14  C   UNL     1      46.398 -32.144   0.298  1.00  0.00     0.279 C 
HETATM   15  N   UNL     1      45.736 -31.732  -0.861  1.00  0.00    -0.356 N 
HETATM   16  H   UNL     1      45.606 -30.729  -0.946  1.00  0.00     0.162 HD
HETATM   17  O   UNL     1      46.871 -33.279   0.383  1.00  0.00    -0.268 OA
BRANCH  15  18
HETATM   18  C   UNL     1      45.803 -32.541  -2.059  1.00  0.00     0.124 C 
BRANCH  18  19
HETATM   19  C   UNL     1      46.137 -31.710  -3.298  1.00  0.00     0.047 C 
BRANCH  19  20
HETATM   20  C   UNL     1      46.337 -30.218  -3.031  1.00  0.00     0.236 C 
BRANCH  20  21
HETATM   21  N   UNL     1      45.353 -29.334  -3.788  1.00  0.00    -0.072 N 
HETATM   22  H   UNL     1      45.789 -29.110  -4.689  1.00  0.00     0.279 HD
BRANCH  21  23
HETATM   23  C   UNL     1      45.144 -27.986  -3.111  1.00  0.00     0.230 C 
HETATM   24  C   UNL     1      45.163 -28.142  -1.599  1.00  0.00     0.034 C 
ENDBRANCH  21  23
BRANCH  21  25
HETATM   25  C   UNL     1      44.036 -30.001  -4.150  1.00  0.00     0.230 C 
HETATM   26  C   UNL     1      43.936 -30.346  -5.623  1.00  0.00     0.034 C 
ENDBRANCH  21  25
ENDBRANCH  20  21
ENDBRANCH  19  20
ENDBRANCH  18  19
ENDBRANCH  15  18
ENDBRANCH   1  14
BRANCH   1  27
HETATM   27  O   UNL     1      46.697 -31.696   2.783  1.00  0.00    -0.359 OA
HETATM   28  H   UNL     1      46.053 -31.344   3.423  1.00  0.00     0.213 HD
ENDBRANCH   1  27
BRANCH   2  29
HETATM   29  C   UNL     1      48.433 -30.008   0.674  1.00  0.00     0.076 A 
HETATM   30  C   UNL     1      49.576 -30.566   1.274  1.00  0.00     0.098 A 
HETATM   31  C   UNL     1      50.753 -30.777   0.535  1.00  0.00     0.075 A 
HETATM   32  C   UNL     1      50.830 -30.378  -0.796  1.00  0.00     0.070 A 
HETATM   33  C   UNL     1      49.723 -29.790  -1.396  1.00  0.00     0.039 A 
HETATM   34  C   UNL     1      48.546 -29.598  -0.669  1.00  0.00     0.035 A 
BRANCH  30  35
HETATM   35  O   UNL     1      49.546 -30.922   2.600  1.00  0.00    -0.354 OA
HETATM   36  C   UNL     1      50.274 -32.137   2.838  1.00  0.00     0.210 C 
ENDBRANCH  30  35
BRANCH  32  37
HETATM   37  O   UNL     1      51.911 -30.551  -1.613  1.00  0.00    -0.356 OA
HETATM   38  C   UNL     1      52.376 -31.892  -1.740  1.00  0.00     0.210 C 
ENDBRANCH  32  37
ENDBRANCH   2  29
TORSDOF 11
ENDMDL
