MODEL 1
REMARK VINA RESULT:      -9.6      0.000      0.000
REMARK  4 active torsions:
REMARK  status: ('A' for Active; 'I' for Inactive)
REMARK    1  A    between atoms: C_10  and  C_11 
REMARK       I    between atoms: C_11  and  N_12 
REMARK    2  A    between atoms: N_12  and  C_13 
REMARK    3  A    between atoms: C_13  and  C_14 
REMARK    4  A    between atoms: C_16  and  C_17 
ROOT
HETATM    1  C   UNL     1      42.524 -14.412   5.677  1.00  0.00     0.268 C 
HETATM    2  N   UNL     1      43.360 -13.419   5.236  1.00  0.00    -0.351 N 
HETATM    3  O   UNL     1      41.525 -14.190   6.354  1.00  0.00    -0.266 OA
HETATM    4  H   UNL     1      44.145 -13.650   4.648  1.00  0.00     0.163 HD
ENDROOT
BRANCH   2   5
HETATM    5  C   UNL     1      43.118 -12.022   5.510  1.00  0.00     0.161 C 
BRANCH   5   6
HETATM    6  C   UNL     1      44.091 -11.496   6.533  1.00  0.00    -0.040 A 
HETATM    7  C   UNL     1      43.664 -11.175   7.831  1.00  0.00     0.024 A 
HETATM    8  C   UNL     1      44.562 -10.671   8.786  1.00  0.00     0.014 A 
HETATM    9  C   UNL     1      45.905 -10.495   8.424  1.00  0.00     0.015 A 
HETATM   10  C   UNL     1      46.341 -10.811   7.136  1.00  0.00     0.002 A 
HETATM   11  C   UNL     1      45.439 -11.306   6.196  1.00  0.00     0.009 A 
BRANCH   8  12
HETATM   12  C   UNL     1      44.094 -10.330  10.127  1.00  0.00     0.181 A 
HETATM   13  N   UNL     1      43.785 -11.233  11.072  1.00  0.00    -0.152 NA
HETATM   14  N   UNL     1      43.430 -10.454  12.102  1.00  0.00    -0.263 N 
HETATM   15  H   UNL     1      43.144 -10.884  12.975  1.00  0.00     0.190 HD
HETATM   16  C   UNL     1      43.520  -9.131  11.785  1.00  0.00     0.118 A 
HETATM   17  C   UNL     1      43.190  -8.043  12.727  1.00  0.00     0.093 C 
HETATM   18  N   UNL     1      43.934  -9.023  10.543  1.00  0.00    -0.212 NA
ENDBRANCH   8  12
ENDBRANCH   5   6
ENDBRANCH   2   5
BRANCH   1  19
HETATM   19  C   UNL     1      42.892 -15.755   5.285  1.00  0.00     0.102 A 
HETATM   20  N   UNL     1      42.734 -16.178   3.981  1.00  0.00    -0.351 N 
HETATM   21  C   UNL     1      43.149 -17.477   3.826  1.00  0.00     0.043 A 
HETATM   22  H   UNL     1      42.361 -15.590   3.247  1.00  0.00     0.166 HD
HETATM   23  C   UNL     1      43.172 -18.289   2.685  1.00  0.00     0.037 A 
HETATM   24  C   UNL     1      43.585 -17.915   5.073  1.00  0.00    -0.007 A 
HETATM   25  C   UNL     1      43.650 -19.602   2.822  1.00  0.00    -0.060 A 
HETATM   26  C   UNL     1      43.717 -20.511   1.629  1.00  0.00     0.048 C 
HETATM   27  C   UNL     1      44.098 -20.058   4.066  1.00  0.00     0.007 A 
HETATM   28  C   UNL     1      44.068 -19.231   5.196  1.00  0.00     0.014 A 
HETATM   29  C   UNL     1      43.420 -16.829   5.980  1.00  0.00     0.049 A 
ENDBRANCH   1  19
TORSDOF 4
ENDMDL
MODEL 2
REMARK VINA RESULT:      -9.6      1.216      1.770
REMARK  4 active torsions:
REMARK  status: ('A' for Active; 'I' for Inactive)
REMARK    1  A    between atoms: C_10  and  C_11 
REMARK       I    between atoms: C_11  and  N_12 
REMARK    2  A    between atoms: N_12  and  C_13 
REMARK    3  A    between atoms: C_13  and  C_14 
REMARK    4  A    between atoms: C_16  and  C_17 
ROOT
HETATM    1  C   UNL     1      43.016 -13.874   3.617  1.00  0.00     0.268 C 
HETATM    2  N   UNL     1      42.767 -13.423   4.889  1.00  0.00    -0.351 N 
HETATM    3  O   UNL     1      43.121 -13.122   2.653  1.00  0.00    -0.266 OA
HETATM    4  H   UNL     1      42.731 -14.078   5.654  1.00  0.00     0.163 HD
ENDROOT
BRANCH   2   5
HETATM    5  C   UNL     1      42.633 -12.019   5.202  1.00  0.00     0.161 C 
BRANCH   5   6
HETATM    6  C   UNL     1      43.710 -11.575   6.156  1.00  0.00    -0.040 A 
HETATM    7  C   UNL     1      43.399 -11.234   7.482  1.00  0.00     0.024 A 
HETATM    8  C   UNL     1      44.396 -10.805   8.374  1.00  0.00     0.014 A 
HETATM    9  C   UNL     1      45.720 -10.725   7.920  1.00  0.00     0.015 A 
HETATM   10  C   UNL     1      46.041 -11.062   6.604  1.00  0.00     0.002 A 
HETATM   11  C   UNL     1      45.042 -11.481   5.727  1.00  0.00     0.009 A 
BRANCH   8  12
HETATM   12  C   UNL     1      44.048 -10.441   9.745  1.00  0.00     0.181 A 
HETATM   13  N   UNL     1      43.941 -11.320  10.756  1.00  0.00    -0.152 NA
HETATM   14  N   UNL     1      43.625 -10.527  11.788  1.00  0.00    -0.263 N 
HETATM   15  H   UNL     1      43.484 -10.936  12.704  1.00  0.00     0.190 HD
HETATM   16  C   UNL     1      43.543  -9.220  11.408  1.00  0.00     0.118 A 
HETATM   17  C   UNL     1      43.209  -8.122  12.338  1.00  0.00     0.093 C 
HETATM   18  N   UNL     1      43.802  -9.137  10.123  1.00  0.00    -0.212 NA
ENDBRANCH   8  12
ENDBRANCH   5   6
ENDBRANCH   2   5
BRANCH   1  19
HETATM   19  C   UNL     1      43.158 -15.306   3.482  1.00  0.00     0.102 A 
HETATM   20  N   UNL     1      43.561 -16.080   4.551  1.00  0.00    -0.351 N 
HETATM   21  C   UNL     1      43.624 -17.408   4.208  1.00  0.00     0.043 A 
HETATM   22  H   UNL     1      43.775 -15.700   5.464  1.00  0.00     0.166 HD
HETATM   23  C   UNL     1      43.975 -18.524   4.977  1.00  0.00     0.037 A 
HETATM   24  C   UNL     1      43.256 -17.499   2.869  1.00  0.00    -0.007 A 
HETATM   25  C   UNL     1      43.958 -19.783   4.355  1.00  0.00    -0.060 A 
HETATM   26  C   UNL     1      44.304 -21.018   5.136  1.00  0.00     0.048 C 
HETATM   27  C   UNL     1      43.585 -19.895   3.011  1.00  0.00     0.007 A 
HETATM   28  C   UNL     1      43.236 -18.766   2.258  1.00  0.00     0.014 A 
HETATM   29  C   UNL     1      42.966 -16.177   2.424  1.00  0.00     0.049 A 
ENDBRANCH   1  19
TORSDOF 4
ENDMDL
MODEL 3
REMARK VINA RESULT:      -8.8      5.030      8.249
REMARK  4 active torsions:
REMARK  status: ('A' for Active; 'I' for Inactive)
REMARK    1  A    between atoms: C_10  and  C_11 
REMARK       I    between atoms: C_11  and  N_12 
REMARK    2  A    between atoms: N_12  and  C_13 
REMARK    3  A    between atoms: C_13  and  C_14 
REMARK    4  A    between atoms: C_16  and  C_17 
ROOT
HETATM    1  C   UNL     1      41.588 -13.870   4.630  1.00  0.00     0.268 C 
HETATM    2  N   UNL     1      40.245 -13.811   4.358  1.00  0.00    -0.351 N 
HETATM    3  O   UNL     1      42.237 -12.896   4.999  1.00  0.00    -0.266 OA
HETATM    4  H   UNL     1      39.749 -14.649   4.099  1.00  0.00     0.163 HD
ENDROOT
BRANCH   2   5
HETATM    5  C   UNL     1      39.477 -12.597   4.509  1.00  0.00     0.161 C 
BRANCH   5   6
HETATM    6  C   UNL     1      39.160 -11.990   3.167  1.00  0.00    -0.040 A 
HETATM    7  C   UNL     1      39.403 -12.701   1.982  1.00  0.00     0.024 A 
HETATM    8  C   UNL     1      39.124 -12.136   0.727  1.00  0.00     0.014 A 
HETATM    9  C   UNL     1      38.589 -10.842   0.672  1.00  0.00     0.015 A 
HETATM   10  C   UNL     1      38.342 -10.125   1.844  1.00  0.00     0.002 A 
HETATM   11  C   UNL     1      38.629 -10.695   3.084  1.00  0.00     0.009 A 
BRANCH   8  12
HETATM   12  C   UNL     1      39.399 -12.888  -0.496  1.00  0.00     0.181 A 
HETATM   13  N   UNL     1      40.632 -13.191  -0.935  1.00  0.00    -0.152 NA
HETATM   14  N   UNL     1      40.371 -13.880  -2.054  1.00  0.00    -0.263 N 
HETATM   15  H   UNL     1      41.141 -14.244  -2.604  1.00  0.00     0.190 HD
HETATM   16  C   UNL     1      39.030 -13.984  -2.278  1.00  0.00     0.118 A 
HETATM   17  C   UNL     1      38.451 -14.688  -3.440  1.00  0.00     0.093 C 
HETATM   18  N   UNL     1      38.392 -13.363  -1.312  1.00  0.00    -0.212 NA
ENDBRANCH   8  12
ENDBRANCH   5   6
ENDBRANCH   2   5
BRANCH   1  19
HETATM   19  C   UNL     1      42.199 -15.170   4.463  1.00  0.00     0.102 A 
HETATM   20  N   UNL     1      42.022 -15.890   3.300  1.00  0.00    -0.351 N 
HETATM   21  C   UNL     1      42.690 -17.088   3.348  1.00  0.00     0.043 A 
HETATM   22  H   UNL     1      41.469 -15.559   2.519  1.00  0.00     0.166 HD
HETATM   23  C   UNL     1      42.785 -18.110   2.395  1.00  0.00     0.037 A 
HETATM   24  C   UNL     1      43.317 -17.152   4.589  1.00  0.00    -0.007 A 
HETATM   25  C   UNL     1      43.543 -19.245   2.722  1.00  0.00    -0.060 A 
HETATM   26  C   UNL     1      43.699 -20.363   1.731  1.00  0.00     0.048 C 
HETATM   27  C   UNL     1      44.186 -19.325   3.963  1.00  0.00     0.007 A 
HETATM   28  C   UNL     1      44.079 -18.292   4.903  1.00  0.00     0.014 A 
HETATM   29  C   UNL     1      43.003 -15.946   5.280  1.00  0.00     0.049 A 
ENDBRANCH   1  19
TORSDOF 4
ENDMDL
MODEL 4
REMARK VINA RESULT:      -8.8      2.181      9.507
REMARK  4 active torsions:
REMARK  status: ('A' for Active; 'I' for Inactive)
REMARK    1  A    between atoms: C_10  and  C_11 
REMARK       I    between atoms: C_11  and  N_12 
REMARK    2  A    between atoms: N_12  and  C_13 
REMARK    3  A    between atoms: C_13  and  C_14 
REMARK    4  A    between atoms: C_16  and  C_17 
ROOT
HETATM    1  C   UNL     1      42.794 -11.096   5.085  1.00  0.00     0.268 C 
HETATM    2  N   UNL     1      43.574 -11.896   4.290  1.00  0.00    -0.351 N 
HETATM    3  O   UNL     1      41.688 -10.690   4.741  1.00  0.00    -0.266 OA
HETATM    4  H   UNL     1      44.457 -12.236   4.636  1.00  0.00     0.163 HD
ENDROOT
BRANCH   2   5
HETATM    5  C   UNL     1      43.145 -12.350   2.988  1.00  0.00     0.161 C 
BRANCH   5   6
HETATM    6  C   UNL     1      42.365 -13.635   3.095  1.00  0.00    -0.040 A 
HETATM    7  C   UNL     1      43.023 -14.874   3.117  1.00  0.00     0.024 A 
HETATM    8  C   UNL     1      42.303 -16.077   3.202  1.00  0.00     0.014 A 
HETATM    9  C   UNL     1      40.904 -16.023   3.271  1.00  0.00     0.015 A 
HETATM   10  C   UNL     1      40.238 -14.796   3.250  1.00  0.00     0.002 A 
HETATM   11  C   UNL     1      40.964 -13.610   3.159  1.00  0.00     0.009 A 
BRANCH   8  12
HETATM   12  C   UNL     1      43.007 -17.357   3.209  1.00  0.00     0.181 A 
HETATM   13  N   UNL     1      43.879 -17.734   4.158  1.00  0.00    -0.152 NA
HETATM   14  N   UNL     1      44.238 -18.956   3.742  1.00  0.00    -0.263 N 
HETATM   15  H   UNL     1      44.905 -19.490   4.288  1.00  0.00     0.190 HD
HETATM   16  C   UNL     1      43.605 -19.297   2.584  1.00  0.00     0.118 A 
HETATM   17  C   UNL     1      43.809 -20.587   1.895  1.00  0.00     0.093 C 
HETATM   18  N   UNL     1      42.824 -18.305   2.222  1.00  0.00    -0.212 NA
ENDBRANCH   8  12
ENDBRANCH   5   6
ENDBRANCH   2   5
BRANCH   1  19
HETATM   19  C   UNL     1      43.358 -10.762   6.374  1.00  0.00     0.102 A 
HETATM   20  N   UNL     1      42.610 -10.095   7.322  1.00  0.00    -0.351 N 
HETATM   21  C   UNL     1      43.333  -9.884   8.470  1.00  0.00     0.043 A 
HETATM   22  H   UNL     1      41.651  -9.808   7.173  1.00  0.00     0.166 HD
HETATM   23  C   UNL     1      42.965  -9.261   9.668  1.00  0.00     0.037 A 
HETATM   24  C   UNL     1      44.597 -10.427   8.257  1.00  0.00    -0.007 A 
HETATM   25  C   UNL     1      43.926  -9.180  10.689  1.00  0.00    -0.060 A 
HETATM   26  C   UNL     1      43.582  -8.541  12.004  1.00  0.00     0.048 C 
HETATM   27  C   UNL     1      45.200  -9.725  10.496  1.00  0.00     0.007 A 
HETATM   28  C   UNL     1      45.549 -10.346   9.290  1.00  0.00     0.014 A 
HETATM   29  C   UNL     1      44.602 -10.974   6.942  1.00  0.00     0.049 A 
ENDBRANCH   1  19
TORSDOF 4
ENDMDL
MODEL 5
REMARK VINA RESULT:      -8.7      2.036      9.920
REMARK  4 active torsions:
REMARK  status: ('A' for Active; 'I' for Inactive)
REMARK    1  A    between atoms: C_10  and  C_11 
REMARK       I    between atoms: C_11  and  N_12 
REMARK    2  A    between atoms: N_12  and  C_13 
REMARK    3  A    between atoms: C_13  and  C_14 
REMARK    4  A    between atoms: C_16  and  C_17 
ROOT
HETATM    1  C   UNL     1      44.571 -10.972   8.363  1.00  0.00     0.268 C 
HETATM    2  N   UNL     1      43.671 -11.704   7.632  1.00  0.00    -0.351 N 
HETATM    3  O   UNL     1      45.763 -10.906   8.079  1.00  0.00    -0.266 OA
HETATM    4  H   UNL     1      42.695 -11.693   7.883  1.00  0.00     0.163 HD
ENDROOT
BRANCH   2   5
HETATM    5  C   UNL     1      44.049 -12.439   6.448  1.00  0.00     0.161 C 
BRANCH   5   6
HETATM    6  C   UNL     1      43.099 -13.581   6.195  1.00  0.00    -0.040 A 
HETATM    7  C   UNL     1      43.576 -14.832   5.774  1.00  0.00     0.024 A 
HETATM    8  C   UNL     1      42.696 -15.897   5.522  1.00  0.00     0.014 A 
HETATM    9  C   UNL     1      41.321 -15.694   5.704  1.00  0.00     0.015 A 
HETATM   10  C   UNL     1      40.835 -14.454   6.122  1.00  0.00     0.002 A 
HETATM   11  C   UNL     1      41.718 -13.403   6.363  1.00  0.00     0.009 A 
BRANCH   8  12
HETATM   12  C   UNL     1      43.213 -17.187   5.071  1.00  0.00     0.181 A 
HETATM   13  N   UNL     1      43.743 -18.115   5.885  1.00  0.00    -0.152 NA
HETATM   14  N   UNL     1      44.051 -19.098   5.029  1.00  0.00    -0.263 N 
HETATM   15  H   UNL     1      44.476 -19.949   5.382  1.00  0.00     0.190 HD
HETATM   16  C   UNL     1      43.720 -18.770   3.748  1.00  0.00     0.118 A 
HETATM   17  C   UNL     1      43.946 -19.663   2.594  1.00  0.00     0.093 C 
HETATM   18  N   UNL     1      43.191 -17.567   3.744  1.00  0.00    -0.212 NA
ENDBRANCH   8  12
ENDBRANCH   5   6
ENDBRANCH   2   5
BRANCH   1  19
HETATM   19  C   UNL     1      44.021 -10.267   9.500  1.00  0.00     0.102 A 
HETATM   20  N   UNL     1      42.661 -10.249   9.729  1.00  0.00    -0.351 N 
HETATM   21  C   UNL     1      42.356  -9.531  10.859  1.00  0.00     0.043 A 
HETATM   22  H   UNL     1      41.989 -10.714   9.132  1.00  0.00     0.166 HD
HETATM   23  C   UNL     1      41.117  -9.266  11.455  1.00  0.00     0.037 A 
HETATM   24  C   UNL     1      43.559  -9.060  11.377  1.00  0.00    -0.007 A 
HETATM   25  C   UNL     1      41.102  -8.485  12.621  1.00  0.00    -0.060 A 
HETATM   26  C   UNL     1      39.804  -8.187  13.317  1.00  0.00     0.048 C 
HETATM   27  C   UNL     1      42.301  -8.008  13.160  1.00  0.00     0.007 A 
HETATM   28  C   UNL     1      43.532  -8.283  12.550  1.00  0.00     0.014 A 
HETATM   29  C   UNL     1      44.595  -9.527  10.518  1.00  0.00     0.049 A 
ENDBRANCH   1  19
TORSDOF 4
ENDMDL
MODEL 6
REMARK VINA RESULT:      -8.6      4.601      8.434
REMARK  4 active torsions:
REMARK  status: ('A' for Active; 'I' for Inactive)
REMARK    1  A    between atoms: C_10  and  C_11 
REMARK       I    between atoms: C_11  and  N_12 
REMARK    2  A    between atoms: N_12  and  C_13 
REMARK    3  A    between atoms: C_13  and  C_14 
REMARK    4  A    between atoms: C_16  and  C_17 
ROOT
HETATM    1  C   UNL     1      42.316 -12.869   2.795  1.00  0.00     0.268 C 
HETATM    2  N   UNL     1      42.113 -13.623   3.922  1.00  0.00    -0.351 N 
HETATM    3  O   UNL     1      43.178 -11.998   2.722  1.00  0.00    -0.266 OA
HETATM    4  H   UNL     1      41.420 -14.354   3.917  1.00  0.00     0.163 HD
ENDROOT
BRANCH   2   5
HETATM    5  C   UNL     1      42.918 -13.471   5.112  1.00  0.00     0.161 C 
BRANCH   5   6
HETATM    6  C   UNL     1      43.137 -14.800   5.788  1.00  0.00    -0.040 A 
HETATM    7  C   UNL     1      43.334 -15.966   5.032  1.00  0.00     0.024 A 
HETATM    8  C   UNL     1      43.524 -17.210   5.655  1.00  0.00     0.014 A 
HETATM    9  C   UNL     1      43.519 -17.273   7.056  1.00  0.00     0.015 A 
HETATM   10  C   UNL     1      43.324 -16.120   7.817  1.00  0.00     0.002 A 
HETATM   11  C   UNL     1      43.131 -14.891   7.187  1.00  0.00     0.009 A 
BRANCH   8  12
HETATM   12  C   UNL     1      43.713 -18.414   4.849  1.00  0.00     0.181 A 
HETATM   13  N   UNL     1      44.035 -19.617   5.353  1.00  0.00    -0.152 NA
HETATM   14  N   UNL     1      44.082 -20.380   4.253  1.00  0.00    -0.263 N 
HETATM   15  H   UNL     1      44.307 -21.365   4.341  1.00  0.00     0.190 HD
HETATM   16  C   UNL     1      43.800 -19.660   3.131  1.00  0.00     0.118 A 
HETATM   17  C   UNL     1      43.780 -20.242   1.773  1.00  0.00     0.093 C 
HETATM   18  N   UNL     1      43.566 -18.414   3.477  1.00  0.00    -0.212 NA
ENDBRANCH   8  12
ENDBRANCH   5   6
ENDBRANCH   2   5
BRANCH   1  19
HETATM   19  C   UNL     1      41.447 -13.172   1.680  1.00  0.00     0.102 A 
HETATM   20  N   UNL     1      40.579 -12.223   1.182  1.00  0.00    -0.351 N 
HETATM   21  C   UNL     1      39.854 -12.716   0.125  1.00  0.00     0.043 A 
HETATM   22  H   UNL     1      40.502 -11.287   1.558  1.00  0.00     0.166 HD
HETATM   23  C   UNL     1      38.879 -12.100  -0.669  1.00  0.00     0.037 A 
HETATM   24  C   UNL     1      40.261 -14.034  -0.065  1.00  0.00    -0.007 A 
HETATM   25  C   UNL     1      38.290 -12.858  -1.693  1.00  0.00    -0.060 A 
HETATM   26  C   UNL     1      37.254 -12.244  -2.590  1.00  0.00     0.048 C 
HETATM   27  C   UNL     1      38.689 -14.183  -1.903  1.00  0.00     0.007 A 
HETATM   28  C   UNL     1      39.667 -14.782  -1.099  1.00  0.00     0.014 A 
HETATM   29  C   UNL     1      41.258 -14.309   0.913  1.00  0.00     0.049 A 
ENDBRANCH   1  19
TORSDOF 4
ENDMDL
MODEL 7
REMARK VINA RESULT:      -8.3      2.628      3.699
REMARK  4 active torsions:
REMARK  status: ('A' for Active; 'I' for Inactive)
REMARK    1  A    between atoms: C_10  and  C_11 
REMARK       I    between atoms: C_11  and  N_12 
REMARK    2  A    between atoms: N_12  and  C_13 
REMARK    3  A    between atoms: C_13  and  C_14 
REMARK    4  A    between atoms: C_16  and  C_17 
ROOT
HETATM    1  C   UNL     1      40.798 -13.881   3.297  1.00  0.00     0.268 C 
HETATM    2  N   UNL     1      40.036 -13.570   4.394  1.00  0.00    -0.351 N 
HETATM    3  O   UNL     1      40.799 -13.204   2.273  1.00  0.00    -0.266 OA
HETATM    4  H   UNL     1      40.102 -14.135   5.226  1.00  0.00     0.163 HD
ENDROOT
BRANCH   2   5
HETATM    5  C   UNL     1      39.189 -12.401   4.443  1.00  0.00     0.161 C 
BRANCH   5   6
HETATM    6  C   UNL     1      39.730 -11.384   5.414  1.00  0.00    -0.040 A 
HETATM    7  C   UNL     1      41.090 -11.376   5.762  1.00  0.00     0.024 A 
HETATM    8  C   UNL     1      41.598 -10.440   6.677  1.00  0.00     0.014 A 
HETATM    9  C   UNL     1      40.723  -9.502   7.242  1.00  0.00     0.015 A 
HETATM   10  C   UNL     1      39.369  -9.501   6.904  1.00  0.00     0.002 A 
HETATM   11  C   UNL     1      38.875 -10.438   5.998  1.00  0.00     0.009 A 
BRANCH   8  12
HETATM   12  C   UNL     1      43.015 -10.458   7.036  1.00  0.00     0.181 A 
HETATM   13  N   UNL     1      43.899 -11.360   6.578  1.00  0.00    -0.152 NA
HETATM   14  N   UNL     1      45.036 -10.963   7.164  1.00  0.00    -0.263 N 
HETATM   15  H   UNL     1      45.892 -11.477   6.987  1.00  0.00     0.190 HD
HETATM   16  C   UNL     1      44.840  -9.864   7.947  1.00  0.00     0.118 A 
HETATM   17  C   UNL     1      45.917  -9.209   8.716  1.00  0.00     0.093 C 
HETATM   18  N   UNL     1      43.572  -9.525   7.888  1.00  0.00    -0.212 NA
ENDBRANCH   8  12
ENDBRANCH   5   6
ENDBRANCH   2   5
BRANCH   1  19
HETATM   19  C   UNL     1      41.618 -15.066   3.425  1.00  0.00     0.102 A 
HETATM   20  N   UNL     1      41.533 -16.087   2.502  1.00  0.00    -0.351 N 
HETATM   21  C   UNL     1      42.398 -17.108   2.809  1.00  0.00     0.043 A 
HETATM   22  H   UNL     1      40.910 -16.066   1.705  1.00  0.00     0.166 HD
HETATM   23  C   UNL     1      42.640 -18.318   2.146  1.00  0.00     0.037 A 
HETATM   24  C   UNL     1      43.062 -16.740   3.975  1.00  0.00    -0.007 A 
HETATM   25  C   UNL     1      43.591 -19.191   2.698  1.00  0.00    -0.060 A 
HETATM   26  C   UNL     1      43.907 -20.493   2.019  1.00  0.00     0.048 C 
HETATM   27  C   UNL     1      44.272 -18.836   3.867  1.00  0.00     0.007 A 
HETATM   28  C   UNL     1      44.017 -17.621   4.516  1.00  0.00     0.014 A 
HETATM   29  C   UNL     1      42.566 -15.460   4.353  1.00  0.00     0.049 A 
ENDBRANCH   1  19
TORSDOF 4
ENDMDL
MODEL 8
REMARK VINA RESULT:      -8.3      2.974      9.928
REMARK  4 active torsions:
REMARK  status: ('A' for Active; 'I' for Inactive)
REMARK    1  A    between atoms: C_10  and  C_11 
REMARK       I    between atoms: C_11  and  N_12 
REMARK    2  A    between atoms: N_12  and  C_13 
REMARK    3  A    between atoms: C_13  and  C_14 
REMARK    4  A    between atoms: C_16  and  C_17 
ROOT
HETATM    1  C   UNL     1      44.745 -10.698   8.558  1.00  0.00     0.268 C 
HETATM    2  N   UNL     1      44.028 -11.651   7.881  1.00  0.00    -0.351 N 
HETATM    3  O   UNL     1      45.897 -10.396   8.262  1.00  0.00    -0.266 OA
HETATM    4  H   UNL     1      43.071 -11.833   8.137  1.00  0.00     0.163 HD
ENDROOT
BRANCH   2   5
HETATM    5  C   UNL     1      44.563 -12.361   6.743  1.00  0.00     0.161 C 
BRANCH   5   6
HETATM    6  C   UNL     1      43.623 -13.450   6.296  1.00  0.00    -0.040 A 
HETATM    7  C   UNL     1      43.330 -13.632   4.936  1.00  0.00     0.024 A 
HETATM    8  C   UNL     1      42.443 -14.635   4.513  1.00  0.00     0.014 A 
HETATM    9  C   UNL     1      41.852 -15.465   5.476  1.00  0.00     0.015 A 
HETATM   10  C   UNL     1      42.136 -15.294   6.832  1.00  0.00     0.002 A 
HETATM   11  C   UNL     1      43.014 -14.290   7.239  1.00  0.00     0.009 A 
BRANCH   8  12
HETATM   12  C   UNL     1      42.141 -14.799   3.093  1.00  0.00     0.181 A 
HETATM   13  N   UNL     1      43.070 -14.970   2.137  1.00  0.00    -0.152 NA
HETATM   14  N   UNL     1      42.321 -15.082   1.032  1.00  0.00    -0.263 N 
HETATM   15  H   UNL     1      42.775 -15.227   0.137  1.00  0.00     0.190 HD
HETATM   16  C   UNL     1      40.992 -14.979   1.315  1.00  0.00     0.118 A 
HETATM   17  C   UNL     1      39.932 -15.063   0.289  1.00  0.00     0.093 C 
HETATM   18  N   UNL     1      40.848 -14.796   2.608  1.00  0.00    -0.212 NA
ENDBRANCH   8  12
ENDBRANCH   5   6
ENDBRANCH   2   5
BRANCH   1  19
HETATM   19  C   UNL     1      44.049 -10.056   9.651  1.00  0.00     0.102 A 
HETATM   20  N   UNL     1      42.670 -10.027   9.690  1.00  0.00    -0.351 N 
HETATM   21  C   UNL     1      42.217  -9.377  10.811  1.00  0.00     0.043 A 
HETATM   22  H   UNL     1      42.084 -10.440   8.976  1.00  0.00     0.166 HD
HETATM   23  C   UNL     1      40.910  -9.127  11.246  1.00  0.00     0.037 A 
HETATM   24  C   UNL     1      43.341  -8.964  11.522  1.00  0.00    -0.007 A 
HETATM   25  C   UNL     1      40.740  -8.422  12.448  1.00  0.00    -0.060 A 
HETATM   26  C   UNL     1      39.361  -8.143  12.974  1.00  0.00     0.048 C 
HETATM   27  C   UNL     1      41.857  -8.003  13.179  1.00  0.00     0.007 A 
HETATM   28  C   UNL     1      43.158  -8.263  12.728  1.00  0.00     0.014 A 
HETATM   29  C   UNL     1      44.483  -9.394  10.787  1.00  0.00     0.049 A 
ENDBRANCH   1  19
TORSDOF 4
ENDMDL
MODEL 9
REMARK VINA RESULT:      -8.3      6.162      8.560
REMARK  4 active torsions:
REMARK  status: ('A' for Active; 'I' for Inactive)
REMARK    1  A    between atoms: C_10  and  C_11 
REMARK       I    between atoms: C_11  and  N_12 
REMARK    2  A    between atoms: N_12  and  C_13 
REMARK    3  A    between atoms: C_13  and  C_14 
REMARK    4  A    between atoms: C_16  and  C_17 
ROOT
HETATM    1  C   UNL     1      40.809 -14.265   2.683  1.00  0.00     0.268 C 
HETATM    2  N   UNL     1      40.602 -14.060   1.342  1.00  0.00    -0.351 N 
HETATM    3  O   UNL     1      40.319 -13.547   3.549  1.00  0.00    -0.266 OA
HETATM    4  H   UNL     1      40.993 -14.702   0.671  1.00  0.00     0.163 HD
ENDROOT
BRANCH   2   5
HETATM    5  C   UNL     1      39.765 -12.995   0.841  1.00  0.00     0.161 C 
BRANCH   5   6
HETATM    6  C   UNL     1      40.228 -12.542  -0.520  1.00  0.00    -0.040 A 
HETATM    7  C   UNL     1      40.725 -11.243  -0.714  1.00  0.00     0.024 A 
HETATM    8  C   UNL     1      41.143 -10.809  -1.982  1.00  0.00     0.014 A 
HETATM    9  C   UNL     1      41.063 -11.699  -3.062  1.00  0.00     0.015 A 
HETATM   10  C   UNL     1      40.571 -12.992  -2.881  1.00  0.00     0.002 A 
HETATM   11  C   UNL     1      40.153 -13.410  -1.619  1.00  0.00     0.009 A 
BRANCH   8  12
HETATM   12  C   UNL     1      41.644  -9.448  -2.164  1.00  0.00     0.181 A 
HETATM   13  N   UNL     1      41.291  -8.643  -3.181  1.00  0.00    -0.152 NA
HETATM   14  N   UNL     1      41.984  -7.529  -2.911  1.00  0.00    -0.263 N 
HETATM   15  H   UNL     1      41.903  -6.731  -3.532  1.00  0.00     0.190 HD
HETATM   16  C   UNL     1      42.727  -7.662  -1.776  1.00  0.00     0.118 A 
HETATM   17  C   UNL     1      43.591  -6.592  -1.238  1.00  0.00     0.093 C 
HETATM   18  N   UNL     1      42.534  -8.865  -1.285  1.00  0.00    -0.212 NA
ENDBRANCH   8  12
ENDBRANCH   5   6
ENDBRANCH   2   5
BRANCH   1  19
HETATM   19  C   UNL     1      41.644 -15.397   3.016  1.00  0.00     0.102 A 
HETATM   20  N   UNL     1      41.657 -16.524   2.221  1.00  0.00    -0.351 N 
HETATM   21  C   UNL     1      42.518 -17.472   2.715  1.00  0.00     0.043 A 
HETATM   22  H   UNL     1      41.097 -16.620   1.383  1.00  0.00     0.166 HD
HETATM   23  C   UNL     1      42.841 -18.744   2.225  1.00  0.00     0.037 A 
HETATM   24  C   UNL     1      43.080 -16.945   3.874  1.00  0.00    -0.007 A 
HETATM   25  C   UNL     1      43.765 -19.512   2.949  1.00  0.00    -0.060 A 
HETATM   26  C   UNL     1      44.165 -20.875   2.460  1.00  0.00     0.048 C 
HETATM   27  C   UNL     1      44.344 -18.998   4.114  1.00  0.00     0.007 A 
HETATM   28  C   UNL     1      44.010 -17.722   4.588  1.00  0.00     0.014 A 
HETATM   29  C   UNL     1      42.525 -15.645   4.054  1.00  0.00     0.049 A 
ENDBRANCH   1  19
TORSDOF 4
ENDMDL
MODEL 10
REMARK VINA RESULT:      -8.3      5.404      8.909
REMARK  4 active torsions:
REMARK  status: ('A' for Active; 'I' for Inactive)
REMARK    1  A    between atoms: C_10  and  C_11 
REMARK       I    between atoms: C_11  and  N_12 
REMARK    2  A    between atoms: N_12  and  C_13 
REMARK    3  A    between atoms: C_13  and  C_14 
REMARK    4  A    between atoms: C_16  and  C_17 
ROOT
HETATM    1  C   UNL     1      42.724 -13.033   2.956  1.00  0.00     0.268 C 
HETATM    2  N   UNL     1      41.417 -12.638   2.822  1.00  0.00    -0.351 N 
HETATM    3  O   UNL     1      43.651 -12.238   3.079  1.00  0.00    -0.266 OA
HETATM    4  H   UNL     1      40.688 -13.332   2.766  1.00  0.00     0.163 HD
ENDROOT
BRANCH   2   5
HETATM    5  C   UNL     1      41.021 -11.250   2.843  1.00  0.00     0.161 C 
BRANCH   5   6
HETATM    6  C   UNL     1      39.729 -11.047   2.095  1.00  0.00    -0.040 A 
HETATM    7  C   UNL     1      39.483 -11.723   0.890  1.00  0.00     0.024 A 
HETATM    8  C   UNL     1      38.288 -11.527   0.179  1.00  0.00     0.014 A 
HETATM    9  C   UNL     1      37.330 -10.643   0.697  1.00  0.00     0.015 A 
HETATM   10  C   UNL     1      37.564  -9.966   1.895  1.00  0.00     0.002 A 
HETATM   11  C   UNL     1      38.757 -10.164   2.588  1.00  0.00     0.009 A 
BRANCH   8  12
HETATM   12  C   UNL     1      38.058 -12.230  -1.081  1.00  0.00     0.181 A 
HETATM   13  N   UNL     1      37.310 -11.749  -2.088  1.00  0.00    -0.152 NA
HETATM   14  N   UNL     1      37.410 -12.723  -3.003  1.00  0.00    -0.263 N 
HETATM   15  H   UNL     1      36.933 -12.621  -3.891  1.00  0.00     0.190 HD
HETATM   16  C   UNL     1      38.188 -13.751  -2.558  1.00  0.00     0.118 A 
HETATM   17  C   UNL     1      38.472 -14.961  -3.356  1.00  0.00     0.093 C 
HETATM   18  N   UNL     1      38.608 -13.468  -1.346  1.00  0.00    -0.212 NA
ENDBRANCH   8  12
ENDBRANCH   5   6
ENDBRANCH   2   5
BRANCH   1  19
HETATM   19  C   UNL     1      42.945 -14.463   2.950  1.00  0.00     0.102 A 
HETATM   20  N   UNL     1      43.248 -15.135   4.115  1.00  0.00    -0.351 N 
HETATM   21  C   UNL     1      43.411 -16.479   3.887  1.00  0.00     0.043 A 
HETATM   22  H   UNL     1      43.332 -14.680   5.015  1.00  0.00     0.166 HD
HETATM   23  C   UNL     1      43.715 -17.517   4.775  1.00  0.00     0.037 A 
HETATM   24  C   UNL     1      43.214 -16.685   2.524  1.00  0.00    -0.007 A 
HETATM   25  C   UNL     1      43.830 -18.816   4.255  1.00  0.00    -0.060 A 
HETATM   26  C   UNL     1      44.133 -19.972   5.164  1.00  0.00     0.048 C 
HETATM   27  C   UNL     1      43.629 -19.044   2.889  1.00  0.00     0.007 A 
HETATM   28  C   UNL     1      43.325 -17.992   2.015  1.00  0.00     0.014 A 
HETATM   29  C   UNL     1      42.922 -15.416   1.947  1.00  0.00     0.049 A 
ENDBRANCH   1  19
TORSDOF 4
ENDMDL
