MODEL 1
REMARK VINA RESULT:      -8.3      0.000      0.000
REMARK  10 active torsions:
REMARK  status: ('A' for Active; 'I' for Inactive)
REMARK    1  A    between atoms: C_2  and  C_3 
REMARK    2  A    between atoms: C_3  and  C_4 
REMARK    3  A    between atoms: C_4  and  O_5 
REMARK    4  A    between atoms: O_5  and  C_6 
REMARK    5  A    between atoms: C_10  and  C_11 
REMARK       I    between atoms: C_11  and  N_12 
REMARK    6  A    between atoms: N_12  and  C_13 
REMARK    7  A    between atoms: C_13  and  N_14 
REMARK    8  A    between atoms: N_14  and  C_15 
REMARK    9  A    between atoms: N_18  and  C_20 
REMARK   10  A    between atoms: C_20  and  C_21 
ROOT
HETATM    1  C   UNL     1      39.386 -12.365   3.152  1.00  0.00     0.174 C 
HETATM    2  S   UNL     1      38.614 -11.259   2.162  1.00  0.00    -0.041 SA
ENDROOT
BRANCH   1   3
HETATM    3  N   UNL     1      40.181 -11.879   4.145  1.00  0.00    -0.300 N 
HETATM    4  C   UNL     1      40.813 -12.401   5.277  1.00  0.00     0.257 C 
HETATM    5  O   UNL     1      40.659 -13.523   5.745  1.00  0.00    -0.267 OA
HETATM    6  H   UNL     1      40.236 -10.868   4.073  1.00  0.00     0.171 HD
BRANCH   4   7
HETATM    7  C   UNL     1      41.673 -11.448   6.027  1.00  0.00     0.033 A 
HETATM    8  C   UNL     1      43.051 -11.631   6.161  1.00  0.00     0.039 A 
HETATM    9  C   UNL     1      43.804 -10.699   6.889  1.00  0.00     0.045 A 
HETATM   10  C   UNL     1      43.195  -9.588   7.496  1.00  0.00     0.086 A 
HETATM   11 BR   UNL     1      45.674 -11.007   7.038  1.00  0.00    -0.048 Br
HETATM   12  C   UNL     1      41.813  -9.428   7.369  1.00  0.00     0.039 A 
HETATM   13  C   UNL     1      41.057 -10.354   6.644  1.00  0.00     0.020 A 
BRANCH  10  14
HETATM   14  O   UNL     1      44.011  -8.721   8.174  1.00  0.00    -0.350 OA
BRANCH  14  15
HETATM   15  C   UNL     1      43.643  -8.366   9.509  1.00  0.00     0.176 C 
BRANCH  15  16
HETATM   16  C   UNL     1      44.004  -9.533  10.428  1.00  0.00     0.030 C 
BRANCH  16  17
HETATM   17  C   UNL     1      43.148  -9.589  11.705  1.00  0.00    -0.021 C 
HETATM   18  C   UNL     1      41.670  -9.735  11.338  1.00  0.00     0.009 C 
HETATM   19  C   UNL     1      43.341  -8.350  12.581  1.00  0.00     0.009 C 
ENDBRANCH  16  17
ENDBRANCH  15  16
ENDBRANCH  14  15
ENDBRANCH  10  14
ENDBRANCH   4   7
ENDBRANCH   1   3
BRANCH   1  20
HETATM   20  N   UNL     1      39.181 -13.667   2.876  1.00  0.00    -0.362 N 
HETATM   21  H   UNL     1      38.359 -14.008   3.364  1.00  0.00     0.162 HD
BRANCH  20  22
HETATM   22  C   UNL     1      39.821 -14.559   1.912  1.00  0.00     0.087 C 
HETATM   23  C   UNL     1      39.788 -16.017   2.392  1.00  0.00     0.053 C 
HETATM   24  C   UNL     1      40.871 -16.363   3.402  1.00  0.00     0.237 C 
HETATM   25  N   UNL     1      42.212 -15.967   2.842  1.00  0.00    -0.067 N 
HETATM   26  H   UNL     1      42.309 -16.424   1.926  1.00  0.00     0.280 HD
HETATM   27  C   UNL     1      42.277 -14.483   2.620  1.00  0.00     0.237 C 
HETATM   28  C   UNL     1      41.245 -14.093   1.580  1.00  0.00     0.053 C 
BRANCH  25  29
HETATM   29  C   UNL     1      43.380 -16.475   3.661  1.00  0.00     0.273 C 
BRANCH  29  30
HETATM   30  C   UNL     1      43.560 -17.965   3.545  1.00  0.00    -0.033 A 
HETATM   31  C   UNL     1      43.273 -18.628   2.340  1.00  0.00     0.009 A 
HETATM   32  C   UNL     1      43.392 -20.016   2.250  1.00  0.00     0.001 A 
HETATM   33  C   UNL     1      43.808 -20.753   3.356  1.00  0.00     0.000 A 
HETATM   34  C   UNL     1      44.115 -20.105   4.551  1.00  0.00     0.001 A 
HETATM   35  C   UNL     1      43.992 -18.717   4.647  1.00  0.00     0.009 A 
ENDBRANCH  29  30
ENDBRANCH  25  29
ENDBRANCH  20  22
ENDBRANCH   1  20
TORSDOF 10
ENDMDL
MODEL 2
REMARK VINA RESULT:      -8.3      2.656      3.395
REMARK  10 active torsions:
REMARK  status: ('A' for Active; 'I' for Inactive)
REMARK    1  A    between atoms: C_2  and  C_3 
REMARK    2  A    between atoms: C_3  and  C_4 
REMARK    3  A    between atoms: C_4  and  O_5 
REMARK    4  A    between atoms: O_5  and  C_6 
REMARK    5  A    between atoms: C_10  and  C_11 
REMARK       I    between atoms: C_11  and  N_12 
REMARK    6  A    between atoms: N_12  and  C_13 
REMARK    7  A    between atoms: C_13  and  N_14 
REMARK    8  A    between atoms: N_14  and  C_15 
REMARK    9  A    between atoms: N_18  and  C_20 
REMARK   10  A    between atoms: C_20  and  C_21 
ROOT
HETATM    1  C   UNL     1      39.935 -12.307   5.651  1.00  0.00     0.174 C 
HETATM    2  S   UNL     1      40.040 -11.816   4.055  1.00  0.00    -0.041 SA
ENDROOT
BRANCH   1   3
HETATM    3  N   UNL     1      39.981 -11.345   6.613  1.00  0.00    -0.300 N 
HETATM    4  C   UNL     1      39.175 -10.273   7.005  1.00  0.00     0.257 C 
HETATM    5  O   UNL     1      38.197  -9.839   6.408  1.00  0.00    -0.267 OA
HETATM    6  H   UNL     1      40.877 -11.381   7.089  1.00  0.00     0.171 HD
BRANCH   4   7
HETATM    7  C   UNL     1      39.630  -9.538   8.215  1.00  0.00     0.033 A 
HETATM    8  C   UNL     1      39.472 -10.050   9.505  1.00  0.00     0.039 A 
HETATM    9  C   UNL     1      39.916  -9.302  10.604  1.00  0.00     0.045 A 
HETATM   10  C   UNL     1      40.509  -8.040  10.434  1.00  0.00     0.086 A 
HETATM   11 BR   UNL     1      39.668 -10.054  12.333  1.00  0.00    -0.048 Br
HETATM   12  C   UNL     1      40.644  -7.532   9.139  1.00  0.00     0.039 A 
HETATM   13  C   UNL     1      40.203  -8.273   8.038  1.00  0.00     0.020 A 
BRANCH  10  14
HETATM   14  O   UNL     1      40.928  -7.388  11.563  1.00  0.00    -0.350 OA
BRANCH  14  15
HETATM   15  C   UNL     1      42.315  -7.058  11.665  1.00  0.00     0.176 C 
BRANCH  15  16
HETATM   16  C   UNL     1      43.019  -8.185  12.420  1.00  0.00     0.030 C 
BRANCH  16  17
HETATM   17  C   UNL     1      43.916  -9.053  11.520  1.00  0.00    -0.021 C 
HETATM   18  C   UNL     1      43.994  -8.444  10.119  1.00  0.00     0.009 C 
HETATM   19  C   UNL     1      43.415 -10.495  11.429  1.00  0.00     0.009 C 
ENDBRANCH  16  17
ENDBRANCH  15  16
ENDBRANCH  14  15
ENDBRANCH  10  14
ENDBRANCH   4   7
ENDBRANCH   1   3
BRANCH   1  20
HETATM   20  N   UNL     1      39.839 -13.632   5.869  1.00  0.00    -0.362 N 
HETATM   21  H   UNL     1      38.989 -13.999   5.450  1.00  0.00     0.162 HD
BRANCH  20  22
HETATM   22  C   UNL     1      40.789 -14.589   6.431  1.00  0.00     0.087 C 
HETATM   23  C   UNL     1      42.239 -14.162   6.162  1.00  0.00     0.053 C 
HETATM   24  C   UNL     1      42.740 -14.511   4.769  1.00  0.00     0.237 C 
HETATM   25  N   UNL     1      42.511 -15.978   4.516  1.00  0.00    -0.067 N 
HETATM   26  H   UNL     1      42.960 -16.496   5.283  1.00  0.00     0.280 HD
HETATM   27  C   UNL     1      41.045 -16.299   4.548  1.00  0.00     0.237 C 
HETATM   28  C   UNL     1      40.505 -16.013   5.936  1.00  0.00     0.053 C 
BRANCH  25  29
HETATM   29  C   UNL     1      43.181 -16.484   3.255  1.00  0.00     0.273 C 
BRANCH  29  30
HETATM   30  C   UNL     1      43.439 -17.966   3.295  1.00  0.00    -0.033 A 
HETATM   31  C   UNL     1      43.127 -18.776   2.189  1.00  0.00     0.009 A 
HETATM   32  C   UNL     1      43.319 -20.157   2.246  1.00  0.00     0.001 A 
HETATM   33  C   UNL     1      43.834 -20.741   3.401  1.00  0.00     0.000 A 
HETATM   34  C   UNL     1      44.166 -19.947   4.496  1.00  0.00     0.001 A 
HETATM   35  C   UNL     1      43.970 -18.566   4.445  1.00  0.00     0.009 A 
ENDBRANCH  29  30
ENDBRANCH  25  29
ENDBRANCH  20  22
ENDBRANCH   1  20
TORSDOF 10
ENDMDL
MODEL 3
REMARK VINA RESULT:      -8.1      2.132      3.121
REMARK  10 active torsions:
REMARK  status: ('A' for Active; 'I' for Inactive)
REMARK    1  A    between atoms: C_2  and  C_3 
REMARK    2  A    between atoms: C_3  and  C_4 
REMARK    3  A    between atoms: C_4  and  O_5 
REMARK    4  A    between atoms: O_5  and  C_6 
REMARK    5  A    between atoms: C_10  and  C_11 
REMARK       I    between atoms: C_11  and  N_12 
REMARK    6  A    between atoms: N_12  and  C_13 
REMARK    7  A    between atoms: C_13  and  N_14 
REMARK    8  A    between atoms: N_14  and  C_15 
REMARK    9  A    between atoms: N_18  and  C_20 
REMARK   10  A    between atoms: C_20  and  C_21 
ROOT
HETATM    1  C   UNL     1      39.892 -12.255   5.586  1.00  0.00     0.174 C 
HETATM    2  S   UNL     1      39.515 -11.701   4.052  1.00  0.00    -0.041 SA
ENDROOT
BRANCH   1   3
HETATM    3  N   UNL     1      40.242 -11.332   6.523  1.00  0.00    -0.300 N 
HETATM    4  C   UNL     1      39.605 -10.283   7.191  1.00  0.00     0.257 C 
HETATM    5  O   UNL     1      38.492  -9.832   6.947  1.00  0.00    -0.267 OA
HETATM    6  H   UNL     1      41.241 -11.382   6.693  1.00  0.00     0.171 HD
BRANCH   4   7
HETATM    7  C   UNL     1      40.420  -9.594   8.227  1.00  0.00     0.033 A 
HETATM    8  C   UNL     1      41.764  -9.269   8.027  1.00  0.00     0.039 A 
HETATM    9  C   UNL     1      42.478  -8.628   9.048  1.00  0.00     0.045 A 
HETATM   10  C   UNL     1      41.870  -8.313  10.275  1.00  0.00     0.086 A 
HETATM   11 BR   UNL     1      44.305  -8.217   8.715  1.00  0.00    -0.048 Br
HETATM   12  C   UNL     1      40.530  -8.661  10.467  1.00  0.00     0.039 A 
HETATM   13  C   UNL     1      39.812  -9.301   9.453  1.00  0.00     0.020 A 
BRANCH  10  14
HETATM   14  O   UNL     1      42.640  -7.672  11.209  1.00  0.00    -0.350 OA
BRANCH  14  15
HETATM   15  C   UNL     1      43.142  -8.444  12.302  1.00  0.00     0.176 C 
BRANCH  15  16
HETATM   16  C   UNL     1      43.353  -7.506  13.490  1.00  0.00     0.030 C 
BRANCH  16  17
HETATM   17  C   UNL     1      42.338  -7.724  14.625  1.00  0.00    -0.021 C 
HETATM   18  C   UNL     1      41.424  -8.903  14.289  1.00  0.00     0.009 C 
HETATM   19  C   UNL     1      41.495  -6.476  14.890  1.00  0.00     0.009 C 
ENDBRANCH  16  17
ENDBRANCH  15  16
ENDBRANCH  14  15
ENDBRANCH  10  14
ENDBRANCH   4   7
ENDBRANCH   1   3
BRANCH   1  20
HETATM   20  N   UNL     1      39.845 -13.588   5.773  1.00  0.00    -0.362 N 
HETATM   21  H   UNL     1      39.039 -13.984   5.300  1.00  0.00     0.162 HD
BRANCH  20  22
HETATM   22  C   UNL     1      40.807 -14.511   6.371  1.00  0.00     0.087 C 
HETATM   23  C   UNL     1      42.251 -14.067   6.103  1.00  0.00     0.053 C 
HETATM   24  C   UNL     1      42.772 -14.447   4.725  1.00  0.00     0.237 C 
HETATM   25  N   UNL     1      42.570 -15.924   4.511  1.00  0.00    -0.067 N 
HETATM   26  H   UNL     1      43.021 -16.412   5.296  1.00  0.00     0.280 HD
HETATM   27  C   UNL     1      41.109 -16.269   4.539  1.00  0.00     0.237 C 
HETATM   28  C   UNL     1      40.552 -15.954   5.913  1.00  0.00     0.053 C 
BRANCH  25  29
HETATM   29  C   UNL     1      43.261 -16.453   3.272  1.00  0.00     0.273 C 
BRANCH  29  30
HETATM   30  C   UNL     1      43.430 -17.948   3.300  1.00  0.00    -0.033 A 
HETATM   31  C   UNL     1      43.927 -18.590   4.447  1.00  0.00     0.009 A 
HETATM   32  C   UNL     1      44.132 -19.970   4.454  1.00  0.00     0.001 A 
HETATM   33  C   UNL     1      43.832 -20.724   3.322  1.00  0.00     0.000 A 
HETATM   34  C   UNL     1      43.320 -20.102   2.185  1.00  0.00     0.001 A 
HETATM   35  C   UNL     1      43.119 -18.721   2.172  1.00  0.00     0.009 A 
ENDBRANCH  29  30
ENDBRANCH  25  29
ENDBRANCH  20  22
ENDBRANCH   1  20
TORSDOF 10
ENDMDL
MODEL 4
REMARK VINA RESULT:      -8.0      1.546      2.082
REMARK  10 active torsions:
REMARK  status: ('A' for Active; 'I' for Inactive)
REMARK    1  A    between atoms: C_2  and  C_3 
REMARK    2  A    between atoms: C_3  and  C_4 
REMARK    3  A    between atoms: C_4  and  O_5 
REMARK    4  A    between atoms: O_5  and  C_6 
REMARK    5  A    between atoms: C_10  and  C_11 
REMARK       I    between atoms: C_11  and  N_12 
REMARK    6  A    between atoms: N_12  and  C_13 
REMARK    7  A    between atoms: C_13  and  N_14 
REMARK    8  A    between atoms: N_14  and  C_15 
REMARK    9  A    between atoms: N_18  and  C_20 
REMARK   10  A    between atoms: C_20  and  C_21 
ROOT
HETATM    1  C   UNL     1      40.664 -12.072   2.992  1.00  0.00     0.174 C 
HETATM    2  S   UNL     1      39.125 -11.424   2.891  1.00  0.00    -0.041 SA
ENDROOT
BRANCH   1   3
HETATM    3  N   UNL     1      41.449 -11.679   4.033  1.00  0.00    -0.300 N 
HETATM    4  C   UNL     1      42.794 -11.817   4.388  1.00  0.00     0.257 C 
HETATM    5  O   UNL     1      43.627 -12.520   3.830  1.00  0.00    -0.267 OA
HETATM    6  H   UNL     1      40.872 -11.269   4.759  1.00  0.00     0.171 HD
BRANCH   4   7
HETATM    7  C   UNL     1      43.203 -11.110   5.631  1.00  0.00     0.033 A 
HETATM    8  C   UNL     1      42.437 -10.088   6.196  1.00  0.00     0.039 A 
HETATM    9  C   UNL     1      42.884  -9.456   7.365  1.00  0.00     0.045 A 
HETATM   10  C   UNL     1      44.096  -9.825   7.974  1.00  0.00     0.086 A 
HETATM   11 BR   UNL     1      41.798  -8.070   8.082  1.00  0.00    -0.048 Br
HETATM   12  C   UNL     1      44.860 -10.837   7.387  1.00  0.00     0.039 A 
HETATM   13  C   UNL     1      44.419 -11.471   6.221  1.00  0.00     0.020 A 
BRANCH  10  14
HETATM   14  O   UNL     1      44.445  -9.165   9.122  1.00  0.00    -0.350 OA
BRANCH  14  15
HETATM   15  C   UNL     1      45.049  -9.928  10.170  1.00  0.00     0.176 C 
BRANCH  15  16
HETATM   16  C   UNL     1      43.962 -10.292  11.181  1.00  0.00     0.030 C 
BRANCH  16  17
HETATM   17  C   UNL     1      42.946  -9.161  11.416  1.00  0.00    -0.021 C 
HETATM   18  C   UNL     1      43.359  -8.332  12.633  1.00  0.00     0.009 C 
HETATM   19  C   UNL     1      41.526  -9.695  11.613  1.00  0.00     0.009 C 
ENDBRANCH  16  17
ENDBRANCH  15  16
ENDBRANCH  14  15
ENDBRANCH  10  14
ENDBRANCH   4   7
ENDBRANCH   1   3
BRANCH   1  20
HETATM   20  N   UNL     1      41.025 -12.922   2.013  1.00  0.00    -0.362 N 
HETATM   21  H   UNL     1      41.689 -12.479   1.385  1.00  0.00     0.162 HD
BRANCH  20  22
HETATM   22  C   UNL     1      40.755 -14.346   1.824  1.00  0.00     0.087 C 
HETATM   23  C   UNL     1      40.362 -15.021   3.145  1.00  0.00     0.053 C 
HETATM   24  C   UNL     1      41.543 -15.382   4.034  1.00  0.00     0.237 C 
HETATM   25  N   UNL     1      42.528 -16.196   3.237  1.00  0.00    -0.067 N 
HETATM   26  H   UNL     1      42.018 -16.998   2.845  1.00  0.00     0.280 HD
HETATM   27  C   UNL     1      43.071 -15.396   2.088  1.00  0.00     0.237 C 
HETATM   28  C   UNL     1      41.936 -15.052   1.145  1.00  0.00     0.053 C 
BRANCH  25  29
HETATM   29  C   UNL     1      43.628 -16.805   4.082  1.00  0.00     0.273 C 
BRANCH  29  30
HETATM   30  C   UNL     1      43.712 -18.300   3.927  1.00  0.00    -0.033 A 
HETATM   31  C   UNL     1      44.063 -19.113   5.018  1.00  0.00     0.009 A 
HETATM   32  C   UNL     1      44.191 -20.494   4.859  1.00  0.00     0.001 A 
HETATM   33  C   UNL     1      43.959 -21.077   3.616  1.00  0.00     0.000 A 
HETATM   34  C   UNL     1      43.591 -20.284   2.531  1.00  0.00     0.001 A 
HETATM   35  C   UNL     1      43.467 -18.901   2.684  1.00  0.00     0.009 A 
ENDBRANCH  29  30
ENDBRANCH  25  29
ENDBRANCH  20  22
ENDBRANCH   1  20
TORSDOF 10
ENDMDL
MODEL 5
REMARK VINA RESULT:      -8.0      4.078      7.376
REMARK  10 active torsions:
REMARK  status: ('A' for Active; 'I' for Inactive)
REMARK    1  A    between atoms: C_2  and  C_3 
REMARK    2  A    between atoms: C_3  and  C_4 
REMARK    3  A    between atoms: C_4  and  O_5 
REMARK    4  A    between atoms: O_5  and  C_6 
REMARK    5  A    between atoms: C_10  and  C_11 
REMARK       I    between atoms: C_11  and  N_12 
REMARK    6  A    between atoms: N_12  and  C_13 
REMARK    7  A    between atoms: C_13  and  N_14 
REMARK    8  A    between atoms: N_14  and  C_15 
REMARK    9  A    between atoms: N_18  and  C_20 
REMARK   10  A    between atoms: C_20  and  C_21 
ROOT
HETATM    1  C   UNL     1      39.887 -12.536   5.073  1.00  0.00     0.174 C 
HETATM    2  S   UNL     1      39.493 -11.293   6.121  1.00  0.00    -0.041 SA
ENDROOT
BRANCH   1   3
HETATM    3  N   UNL     1      40.237 -12.204   3.800  1.00  0.00    -0.300 N 
HETATM    4  C   UNL     1      41.347 -11.625   3.179  1.00  0.00     0.257 C 
HETATM    5  O   UNL     1      42.309 -11.111   3.736  1.00  0.00    -0.267 OA
HETATM    6  H   UNL     1      39.442 -12.333   3.184  1.00  0.00     0.171 HD
BRANCH   4   7
HETATM    7  C   UNL     1      41.281 -11.546   1.695  1.00  0.00     0.033 A 
HETATM    8  C   UNL     1      41.501 -10.355   1.000  1.00  0.00     0.039 A 
HETATM    9  C   UNL     1      41.415 -10.346  -0.399  1.00  0.00     0.045 A 
HETATM   10  C   UNL     1      41.103 -11.513  -1.117  1.00  0.00     0.086 A 
HETATM   11 BR   UNL     1      41.720  -8.692  -1.286  1.00  0.00    -0.048 Br
HETATM   12  C   UNL     1      40.868 -12.693  -0.406  1.00  0.00     0.039 A 
HETATM   13  C   UNL     1      40.952 -12.708   0.989  1.00  0.00     0.020 A 
BRANCH  10  14
HETATM   14  O   UNL     1      41.057 -11.415  -2.482  1.00  0.00    -0.350 OA
BRANCH  14  15
HETATM   15  C   UNL     1      39.911 -11.949  -3.150  1.00  0.00     0.176 C 
BRANCH  15  16
HETATM   16  C   UNL     1      38.755 -10.965  -2.971  1.00  0.00     0.030 C 
BRANCH  16  17
HETATM   17  C   UNL     1      37.550 -11.571  -2.231  1.00  0.00    -0.021 C 
HETATM   18  C   UNL     1      37.505 -11.053  -0.793  1.00  0.00     0.009 C 
HETATM   19  C   UNL     1      37.587 -13.101  -2.227  1.00  0.00     0.009 C 
ENDBRANCH  16  17
ENDBRANCH  15  16
ENDBRANCH  14  15
ENDBRANCH  10  14
ENDBRANCH   4   7
ENDBRANCH   1   3
BRANCH   1  20
HETATM   20  N   UNL     1      39.803 -13.787   5.564  1.00  0.00    -0.362 N 
HETATM   21  H   UNL     1      38.920 -14.213   5.300  1.00  0.00     0.162 HD
BRANCH  20  22
HETATM   22  C   UNL     1      40.794 -14.630   6.230  1.00  0.00     0.087 C 
HETATM   23  C   UNL     1      42.221 -14.129   5.970  1.00  0.00     0.053 C 
HETATM   24  C   UNL     1      42.793 -14.553   4.626  1.00  0.00     0.237 C 
HETATM   25  N   UNL     1      42.668 -16.047   4.486  1.00  0.00    -0.067 N 
HETATM   26  H   UNL     1      43.123 -16.471   5.306  1.00  0.00     0.280 HD
HETATM   27  C   UNL     1      41.225 -16.463   4.501  1.00  0.00     0.237 C 
HETATM   28  C   UNL     1      40.620 -16.105   5.844  1.00  0.00     0.053 C 
BRANCH  25  29
HETATM   29  C   UNL     1      43.413 -16.605   3.292  1.00  0.00     0.273 C 
BRANCH  29  30
HETATM   30  C   UNL     1      43.536 -18.105   3.337  1.00  0.00    -0.033 A 
HETATM   31  C   UNL     1      44.075 -18.744   4.467  1.00  0.00     0.009 A 
HETATM   32  C   UNL     1      44.235 -20.130   4.487  1.00  0.00     0.001 A 
HETATM   33  C   UNL     1      43.849 -20.891   3.386  1.00  0.00     0.000 A 
HETATM   34  C   UNL     1      43.296 -20.271   2.269  1.00  0.00     0.001 A 
HETATM   35  C   UNL     1      43.139 -18.885   2.242  1.00  0.00     0.009 A 
ENDBRANCH  29  30
ENDBRANCH  25  29
ENDBRANCH  20  22
ENDBRANCH   1  20
TORSDOF 10
ENDMDL
MODEL 6
REMARK VINA RESULT:      -8.0      2.940     10.603
REMARK  10 active torsions:
REMARK  status: ('A' for Active; 'I' for Inactive)
REMARK    1  A    between atoms: C_2  and  C_3 
REMARK    2  A    between atoms: C_3  and  C_4 
REMARK    3  A    between atoms: C_4  and  O_5 
REMARK    4  A    between atoms: O_5  and  C_6 
REMARK    5  A    between atoms: C_10  and  C_11 
REMARK       I    between atoms: C_11  and  N_12 
REMARK    6  A    between atoms: N_12  and  C_13 
REMARK    7  A    between atoms: C_13  and  N_14 
REMARK    8  A    between atoms: N_14  and  C_15 
REMARK    9  A    between atoms: N_18  and  C_20 
REMARK   10  A    between atoms: C_20  and  C_21 
ROOT
HETATM    1  C   UNL     1      41.205 -10.496   6.060  1.00  0.00     0.174 C 
HETATM    2  S   UNL     1      41.197  -9.238   4.957  1.00  0.00    -0.041 SA
ENDROOT
BRANCH   1   3
HETATM    3  N   UNL     1      41.202 -11.766   5.571  1.00  0.00    -0.300 N 
HETATM    4  C   UNL     1      40.420 -12.911   5.745  1.00  0.00     0.257 C 
HETATM    5  O   UNL     1      39.537 -13.072   6.579  1.00  0.00    -0.267 OA
HETATM    6  H   UNL     1      42.039 -11.920   5.018  1.00  0.00     0.171 HD
BRANCH   4   7
HETATM    7  C   UNL     1      40.785 -14.072   4.890  1.00  0.00     0.033 A 
HETATM    8  C   UNL     1      40.387 -14.172   3.555  1.00  0.00     0.039 A 
HETATM    9  C   UNL     1      40.757 -15.298   2.807  1.00  0.00     0.045 A 
HETATM   10  C   UNL     1      41.515 -16.334   3.378  1.00  0.00     0.086 A 
HETATM   11 BR   UNL     1      40.180 -15.375   0.997  1.00  0.00    -0.048 Br
HETATM   12  C   UNL     1      41.891 -16.229   4.719  1.00  0.00     0.039 A 
HETATM   13  C   UNL     1      41.524 -15.109   5.471  1.00  0.00     0.020 A 
BRANCH  10  14
HETATM   14  O   UNL     1      41.846 -17.387   2.566  1.00  0.00    -0.350 OA
BRANCH  14  15
HETATM   15  C   UNL     1      43.211 -17.510   2.159  1.00  0.00     0.176 C 
BRANCH  15  16
HETATM   16  C   UNL     1      43.893 -18.520   3.081  1.00  0.00     0.030 C 
BRANCH  16  17
HETATM   17  C   UNL     1      43.339 -19.947   2.936  1.00  0.00    -0.021 C 
HETATM   18  C   UNL     1      43.953 -20.857   4.001  1.00  0.00     0.009 C 
HETATM   19  C   UNL     1      43.603 -20.529   1.546  1.00  0.00     0.009 C 
ENDBRANCH  16  17
ENDBRANCH  15  16
ENDBRANCH  14  15
ENDBRANCH  10  14
ENDBRANCH   4   7
ENDBRANCH   1   3
BRANCH   1  20
HETATM   20  N   UNL     1      41.186 -10.155   7.362  1.00  0.00    -0.362 N 
HETATM   21  H   UNL     1      40.853 -10.930   7.927  1.00  0.00     0.162 HD
BRANCH  20  22
HETATM   22  C   UNL     1      41.699  -8.977   8.059  1.00  0.00     0.087 C 
HETATM   23  C   UNL     1      43.151  -9.183   8.512  1.00  0.00     0.053 C 
HETATM   24  C   UNL     1      43.292  -9.982   9.799  1.00  0.00     0.237 C 
HETATM   25  N   UNL     1      42.435  -9.354  10.866  1.00  0.00    -0.067 N 
HETATM   26  H   UNL     1      42.708  -8.365  10.935  1.00  0.00     0.280 HD
HETATM   27  C   UNL     1      40.986  -9.400  10.477  1.00  0.00     0.237 C 
HETATM   28  C   UNL     1      40.783  -8.575   9.222  1.00  0.00     0.053 C 
BRANCH  25  29
HETATM   29  C   UNL     1      42.677  -9.926  12.247  1.00  0.00     0.273 C 
BRANCH  29  30
HETATM   30  C   UNL     1      42.503  -8.899  13.335  1.00  0.00    -0.033 A 
HETATM   31  C   UNL     1      43.293  -7.737  13.354  1.00  0.00     0.009 A 
HETATM   32  C   UNL     1      43.166  -6.812  14.391  1.00  0.00     0.001 A 
HETATM   33  C   UNL     1      42.242  -7.032  15.411  1.00  0.00     0.000 A 
HETATM   34  C   UNL     1      41.440  -8.170  15.392  1.00  0.00     0.001 A 
HETATM   35  C   UNL     1      41.568  -9.101  14.360  1.00  0.00     0.009 A 
ENDBRANCH  29  30
ENDBRANCH  25  29
ENDBRANCH  20  22
ENDBRANCH   1  20
TORSDOF 10
ENDMDL
MODEL 7
REMARK VINA RESULT:      -7.8      4.049      6.087
REMARK  10 active torsions:
REMARK  status: ('A' for Active; 'I' for Inactive)
REMARK    1  A    between atoms: C_2  and  C_3 
REMARK    2  A    between atoms: C_3  and  C_4 
REMARK    3  A    between atoms: C_4  and  O_5 
REMARK    4  A    between atoms: O_5  and  C_6 
REMARK    5  A    between atoms: C_10  and  C_11 
REMARK       I    between atoms: C_11  and  N_12 
REMARK    6  A    between atoms: N_12  and  C_13 
REMARK    7  A    between atoms: C_13  and  N_14 
REMARK    8  A    between atoms: N_14  and  C_15 
REMARK    9  A    between atoms: N_18  and  C_20 
REMARK   10  A    between atoms: C_20  and  C_21 
ROOT
HETATM    1  C   UNL     1      43.914 -10.507   8.573  1.00  0.00     0.174 C 
HETATM    2  S   UNL     1      45.526 -10.298   8.175  1.00  0.00    -0.041 SA
ENDROOT
BRANCH   1   3
HETATM    3  N   UNL     1      43.472  -9.952   9.735  1.00  0.00    -0.300 N 
HETATM    4  C   UNL     1      43.539 -10.272  11.094  1.00  0.00     0.257 C 
HETATM    5  O   UNL     1      43.949 -11.320  11.577  1.00  0.00    -0.267 OA
HETATM    6  H   UNL     1      42.870  -9.162   9.528  1.00  0.00     0.171 HD
BRANCH   4   7
HETATM    7  C   UNL     1      42.952  -9.266  12.019  1.00  0.00     0.033 A 
HETATM    8  C   UNL     1      42.833  -7.917  11.677  1.00  0.00     0.039 A 
HETATM    9  C   UNL     1      42.278  -7.018  12.598  1.00  0.00     0.045 A 
HETATM   10  C   UNL     1      41.847  -7.447  13.865  1.00  0.00     0.086 A 
HETATM   11 BR   UNL     1      42.148  -5.195  12.074  1.00  0.00    -0.048 Br
HETATM   12  C   UNL     1      41.990  -8.796  14.199  1.00  0.00     0.039 A 
HETATM   13  C   UNL     1      42.543  -9.698  13.285  1.00  0.00     0.020 A 
BRANCH  10  14
HETATM   14  O   UNL     1      41.303  -6.502  14.694  1.00  0.00    -0.350 OA
BRANCH  14  15
HETATM   15  C   UNL     1      39.990  -6.744  15.206  1.00  0.00     0.176 C 
BRANCH  15  16
HETATM   16  C   UNL     1      40.005  -6.460  16.708  1.00  0.00     0.030 C 
BRANCH  16  17
HETATM   17  C   UNL     1      40.682  -7.570  17.530  1.00  0.00    -0.021 C 
HETATM   18  C   UNL     1      39.765  -8.006  18.674  1.00  0.00     0.009 C 
HETATM   19  C   UNL     1      42.033  -7.127  18.092  1.00  0.00     0.009 C 
ENDBRANCH  16  17
ENDBRANCH  15  16
ENDBRANCH  14  15
ENDBRANCH  10  14
ENDBRANCH   4   7
ENDBRANCH   1   3
BRANCH   1  20
HETATM   20  N   UNL     1      43.173 -11.239   7.720  1.00  0.00    -0.362 N 
HETATM   21  H   UNL     1      42.233 -11.365   8.085  1.00  0.00     0.162 HD
BRANCH  20  22
HETATM   22  C   UNL     1      43.444 -11.704   6.362  1.00  0.00     0.087 C 
HETATM   23  C   UNL     1      42.143 -11.961   5.588  1.00  0.00     0.053 C 
HETATM   24  C   UNL     1      41.491 -13.300   5.897  1.00  0.00     0.237 C 
HETATM   25  N   UNL     1      42.505 -14.397   5.707  1.00  0.00    -0.067 N 
HETATM   26  H   UNL     1      42.881 -14.306   4.755  1.00  0.00     0.280 HD
HETATM   27  C   UNL     1      43.648 -14.235   6.666  1.00  0.00     0.237 C 
HETATM   28  C   UNL     1      44.364 -12.932   6.367  1.00  0.00     0.053 C 
BRANCH  25  29
HETATM   29  C   UNL     1      41.905 -15.787   5.761  1.00  0.00     0.273 C 
BRANCH  29  30
HETATM   30  C   UNL     1      42.514 -16.718   4.746  1.00  0.00    -0.033 A 
HETATM   31  C   UNL     1      43.470 -17.672   5.135  1.00  0.00     0.009 A 
HETATM   32  C   UNL     1      44.071 -18.499   4.185  1.00  0.00     0.001 A 
HETATM   33  C   UNL     1      43.717 -18.389   2.842  1.00  0.00     0.000 A 
HETATM   34  C   UNL     1      42.757 -17.460   2.447  1.00  0.00     0.001 A 
HETATM   35  C   UNL     1      42.157 -16.627   3.393  1.00  0.00     0.009 A 
ENDBRANCH  29  30
ENDBRANCH  25  29
ENDBRANCH  20  22
ENDBRANCH   1  20
TORSDOF 10
ENDMDL
MODEL 8
REMARK VINA RESULT:      -7.8      4.537      7.619
REMARK  10 active torsions:
REMARK  status: ('A' for Active; 'I' for Inactive)
REMARK    1  A    between atoms: C_2  and  C_3 
REMARK    2  A    between atoms: C_3  and  C_4 
REMARK    3  A    between atoms: C_4  and  O_5 
REMARK    4  A    between atoms: O_5  and  C_6 
REMARK    5  A    between atoms: C_10  and  C_11 
REMARK       I    between atoms: C_11  and  N_12 
REMARK    6  A    between atoms: N_12  and  C_13 
REMARK    7  A    between atoms: C_13  and  N_14 
REMARK    8  A    between atoms: N_14  and  C_15 
REMARK    9  A    between atoms: N_18  and  C_20 
REMARK   10  A    between atoms: C_20  and  C_21 
ROOT
HETATM    1  C   UNL     1      39.925 -12.676   4.699  1.00  0.00     0.174 C 
HETATM    2  S   UNL     1      39.904 -11.212   5.509  1.00  0.00    -0.041 SA
ENDROOT
BRANCH   1   3
HETATM    3  N   UNL     1      40.027 -12.647   3.342  1.00  0.00    -0.300 N 
HETATM    4  C   UNL     1      39.865 -13.564   2.300  1.00  0.00     0.257 C 
HETATM    5  O   UNL     1      39.705 -14.773   2.411  1.00  0.00    -0.267 OA
HETATM    6  H   UNL     1      40.403 -11.752   3.048  1.00  0.00     0.171 HD
BRANCH   4   7
HETATM    7  C   UNL     1      40.010 -13.007   0.928  1.00  0.00     0.033 A 
HETATM    8  C   UNL     1      39.491 -13.649  -0.198  1.00  0.00     0.039 A 
HETATM    9  C   UNL     1      39.670 -13.074  -1.464  1.00  0.00     0.045 A 
HETATM   10  C   UNL     1      40.371 -11.866  -1.623  1.00  0.00     0.086 A 
HETATM   11 BR   UNL     1      38.944 -14.000  -2.957  1.00  0.00    -0.048 Br
HETATM   12  C   UNL     1      40.899 -11.245  -0.488  1.00  0.00     0.039 A 
HETATM   13  C   UNL     1      40.725 -11.814   0.777  1.00  0.00     0.020 A 
BRANCH  10  14
HETATM   14  O   UNL     1      40.482 -11.370  -2.894  1.00  0.00    -0.350 OA
BRANCH  14  15
HETATM   15  C   UNL     1      40.038 -10.031  -3.127  1.00  0.00     0.176 C 
BRANCH  15  16
HETATM   16  C   UNL     1      41.130  -9.296  -3.904  1.00  0.00     0.030 C 
BRANCH  16  17
HETATM   17  C   UNL     1      41.529  -7.954  -3.268  1.00  0.00    -0.021 C 
HETATM   18  C   UNL     1      42.345  -8.200  -1.998  1.00  0.00     0.009 C 
HETATM   19  C   UNL     1      40.312  -7.088  -2.940  1.00  0.00     0.009 C 
ENDBRANCH  16  17
ENDBRANCH  15  16
ENDBRANCH  14  15
ENDBRANCH  10  14
ENDBRANCH   4   7
ENDBRANCH   1   3
BRANCH   1  20
HETATM   20  N   UNL     1      39.814 -13.784   5.455  1.00  0.00    -0.362 N 
HETATM   21  H   UNL     1      38.862 -14.137   5.430  1.00  0.00     0.162 HD
BRANCH  20  22
HETATM   22  C   UNL     1      40.824 -14.600   6.126  1.00  0.00     0.087 C 
HETATM   23  C   UNL     1      42.242 -14.107   5.808  1.00  0.00     0.053 C 
HETATM   24  C   UNL     1      42.779 -14.580   4.466  1.00  0.00     0.237 C 
HETATM   25  N   UNL     1      42.654 -16.078   4.386  1.00  0.00    -0.067 N 
HETATM   26  H   UNL     1      43.132 -16.470   5.208  1.00  0.00     0.280 HD
HETATM   27  C   UNL     1      41.214 -16.496   4.455  1.00  0.00     0.237 C 
HETATM   28  C   UNL     1      40.644 -16.089   5.799  1.00  0.00     0.053 C 
BRANCH  25  29
HETATM   29  C   UNL     1      43.369 -16.679   3.193  1.00  0.00     0.273 C 
BRANCH  29  30
HETATM   30  C   UNL     1      43.583 -18.162   3.336  1.00  0.00    -0.033 A 
HETATM   31  C   UNL     1      43.294 -19.032   2.271  1.00  0.00     0.009 A 
HETATM   32  C   UNL     1      43.445 -20.411   2.423  1.00  0.00     0.001 A 
HETATM   33  C   UNL     1      43.896 -20.933   3.633  1.00  0.00     0.000 A 
HETATM   34  C   UNL     1      44.204 -20.080   4.690  1.00  0.00     0.001 A 
HETATM   35  C   UNL     1      44.050 -18.700   4.544  1.00  0.00     0.009 A 
ENDBRANCH  29  30
ENDBRANCH  25  29
ENDBRANCH  20  22
ENDBRANCH   1  20
TORSDOF 10
ENDMDL
MODEL 9
REMARK VINA RESULT:      -7.8      3.159      5.061
REMARK  10 active torsions:
REMARK  status: ('A' for Active; 'I' for Inactive)
REMARK    1  A    between atoms: C_2  and  C_3 
REMARK    2  A    between atoms: C_3  and  C_4 
REMARK    3  A    between atoms: C_4  and  O_5 
REMARK    4  A    between atoms: O_5  and  C_6 
REMARK    5  A    between atoms: C_10  and  C_11 
REMARK       I    between atoms: C_11  and  N_12 
REMARK    6  A    between atoms: N_12  and  C_13 
REMARK    7  A    between atoms: C_13  and  N_14 
REMARK    8  A    between atoms: N_14  and  C_15 
REMARK    9  A    between atoms: N_18  and  C_20 
REMARK   10  A    between atoms: C_20  and  C_21 
ROOT
HETATM    1  C   UNL     1      41.827 -10.331   6.697  1.00  0.00     0.174 C 
HETATM    2  S   UNL     1      40.233 -10.489   6.213  1.00  0.00    -0.041 SA
ENDROOT
BRANCH   1   3
HETATM    3  N   UNL     1      42.065 -10.052   8.009  1.00  0.00    -0.300 N 
HETATM    4  C   UNL     1      43.060  -9.389   8.733  1.00  0.00     0.257 C 
HETATM    5  O   UNL     1      44.129  -8.980   8.298  1.00  0.00    -0.267 OA
HETATM    6  H   UNL     1      41.387 -10.536   8.588  1.00  0.00     0.171 HD
BRANCH   4   7
HETATM    7  C   UNL     1      42.817  -9.275  10.196  1.00  0.00     0.033 A 
HETATM    8  C   UNL     1      41.657  -9.762  10.802  1.00  0.00     0.039 A 
HETATM    9  C   UNL     1      41.487  -9.614  12.185  1.00  0.00     0.045 A 
HETATM   10  C   UNL     1      42.458  -8.974  12.974  1.00  0.00     0.086 A 
HETATM   11 BR   UNL     1      39.884 -10.296  12.949  1.00  0.00    -0.048 Br
HETATM   12  C   UNL     1      43.604  -8.475  12.351  1.00  0.00     0.039 A 
HETATM   13  C   UNL     1      43.780  -8.620  10.971  1.00  0.00     0.020 A 
BRANCH  10  14
HETATM   14  O   UNL     1      42.214  -8.890  14.319  1.00  0.00    -0.350 OA
BRANCH  14  15
HETATM   15  C   UNL     1      42.264  -7.595  14.924  1.00  0.00     0.176 C 
BRANCH  15  16
HETATM   16  C   UNL     1      40.833  -7.164  15.245  1.00  0.00     0.030 C 
BRANCH  16  17
HETATM   17  C   UNL     1      40.576  -6.980  16.751  1.00  0.00    -0.021 C 
HETATM   18  C   UNL     1      39.478  -5.939  16.970  1.00  0.00     0.009 C 
HETATM   19  C   UNL     1      41.841  -6.563  17.502  1.00  0.00     0.009 C 
ENDBRANCH  16  17
ENDBRANCH  15  16
ENDBRANCH  14  15
ENDBRANCH  10  14
ENDBRANCH   4   7
ENDBRANCH   1   3
BRANCH   1  20
HETATM   20  N   UNL     1      42.764 -10.466   5.740  1.00  0.00    -0.362 N 
HETATM   21  H   UNL     1      42.829  -9.617   5.185  1.00  0.00     0.162 HD
BRANCH  20  22
HETATM   22  C   UNL     1      43.753 -11.514   5.500  1.00  0.00     0.087 C 
HETATM   23  C   UNL     1      43.857 -11.854   4.007  1.00  0.00     0.053 C 
HETATM   24  C   UNL     1      42.770 -12.792   3.506  1.00  0.00     0.237 C 
HETATM   25  N   UNL     1      42.736 -14.018   4.379  1.00  0.00    -0.067 N 
HETATM   26  H   UNL     1      43.684 -14.416   4.386  1.00  0.00     0.280 HD
HETATM   27  C   UNL     1      42.385 -13.654   5.793  1.00  0.00     0.237 C 
HETATM   28  C   UNL     1      43.468 -12.755   6.356  1.00  0.00     0.053 C 
BRANCH  25  29
HETATM   29  C   UNL     1      41.852 -15.121   3.835  1.00  0.00     0.273 C 
BRANCH  29  30
HETATM   30  C   UNL     1      42.595 -16.418   3.651  1.00  0.00    -0.033 A 
HETATM   31  C   UNL     1      43.521 -16.854   4.614  1.00  0.00     0.009 A 
HETATM   32  C   UNL     1      44.246 -18.030   4.417  1.00  0.00     0.001 A 
HETATM   33  C   UNL     1      44.045 -18.787   3.266  1.00  0.00     0.000 A 
HETATM   34  C   UNL     1      43.116 -18.376   2.313  1.00  0.00     0.001 A 
HETATM   35  C   UNL     1      42.393 -17.197   2.503  1.00  0.00     0.009 A 
ENDBRANCH  29  30
ENDBRANCH  25  29
ENDBRANCH  20  22
ENDBRANCH   1  20
TORSDOF 10
ENDMDL
MODEL 10
REMARK VINA RESULT:      -7.6      4.051     11.711
REMARK  10 active torsions:
REMARK  status: ('A' for Active; 'I' for Inactive)
REMARK    1  A    between atoms: C_2  and  C_3 
REMARK    2  A    between atoms: C_3  and  C_4 
REMARK    3  A    between atoms: C_4  and  O_5 
REMARK    4  A    between atoms: O_5  and  C_6 
REMARK    5  A    between atoms: C_10  and  C_11 
REMARK       I    between atoms: C_11  and  N_12 
REMARK    6  A    between atoms: N_12  and  C_13 
REMARK    7  A    between atoms: C_13  and  N_14 
REMARK    8  A    between atoms: N_14  and  C_15 
REMARK    9  A    between atoms: N_18  and  C_20 
REMARK   10  A    between atoms: C_20  and  C_21 
ROOT
HETATM    1  C   UNL     1      44.005 -10.451   9.103  1.00  0.00     0.174 C 
HETATM    2  S   UNL     1      45.219  -9.359   8.739  1.00  0.00    -0.041 SA
ENDROOT
BRANCH   1   3
HETATM    3  N   UNL     1      43.692 -11.386   8.164  1.00  0.00    -0.300 N 
HETATM    4  C   UNL     1      43.263 -11.373   6.833  1.00  0.00     0.257 C 
HETATM    5  O   UNL     1      42.910 -10.392   6.191  1.00  0.00    -0.267 OA
HETATM    6  H   UNL     1      43.687 -12.307   8.588  1.00  0.00     0.171 HD
BRANCH   4   7
HETATM    7  C   UNL     1      43.134 -12.707   6.189  1.00  0.00     0.033 A 
HETATM    8  C   UNL     1      43.398 -13.896   6.873  1.00  0.00     0.039 A 
HETATM    9  C   UNL     1      43.265 -15.121   6.205  1.00  0.00     0.045 A 
HETATM   10  C   UNL     1      42.881 -15.175   4.854  1.00  0.00     0.086 A 
HETATM   11 BR   UNL     1      43.642 -16.702   7.191  1.00  0.00    -0.048 Br
HETATM   12  C   UNL     1      42.639 -13.976   4.178  1.00  0.00     0.039 A 
HETATM   13  C   UNL     1      42.769 -12.751   4.839  1.00  0.00     0.020 A 
BRANCH  10  14
HETATM   14  O   UNL     1      42.761 -16.416   4.288  1.00  0.00    -0.350 OA
BRANCH  14  15
HETATM   15  C   UNL     1      43.262 -16.593   2.960  1.00  0.00     0.176 C 
BRANCH  15  16
HETATM   16  C   UNL     1      42.819 -17.969   2.464  1.00  0.00     0.030 C 
BRANCH  16  17
HETATM   17  C   UNL     1      43.896 -19.054   2.640  1.00  0.00    -0.021 C 
HETATM   18  C   UNL     1      43.477 -20.329   1.907  1.00  0.00     0.009 C 
HETATM   19  C   UNL     1      44.159 -19.368   4.113  1.00  0.00     0.009 C 
ENDBRANCH  16  17
ENDBRANCH  15  16
ENDBRANCH  14  15
ENDBRANCH  10  14
ENDBRANCH   4   7
ENDBRANCH   1   3
BRANCH   1  20
HETATM   20  N   UNL     1      43.404 -10.307  10.299  1.00  0.00    -0.362 N 
HETATM   21  H   UNL     1      44.009 -10.644  11.043  1.00  0.00     0.162 HD
BRANCH  20  22
HETATM   22  C   UNL     1      42.167  -9.629  10.682  1.00  0.00     0.087 C 
HETATM   23  C   UNL     1      42.329  -8.104  10.639  1.00  0.00     0.053 C 
HETATM   24  C   UNL     1      43.008  -7.516  11.866  1.00  0.00     0.237 C 
HETATM   25  N   UNL     1      42.288  -7.988  13.101  1.00  0.00    -0.067 N 
HETATM   26  H   UNL     1      41.296  -7.740  12.992  1.00  0.00     0.280 HD
HETATM   27  C   UNL     1      42.372  -9.482  13.226  1.00  0.00     0.237 C 
HETATM   28  C   UNL     1      41.664 -10.118  12.046  1.00  0.00     0.053 C 
BRANCH  25  29
HETATM   29  C   UNL     1      42.733  -7.282  14.365  1.00  0.00     0.273 C 
BRANCH  29  30
HETATM   30  C   UNL     1      41.580  -6.938  15.270  1.00  0.00    -0.033 A 
HETATM   31  C   UNL     1      41.523  -7.444  16.579  1.00  0.00     0.009 A 
HETATM   32  C   UNL     1      40.428  -7.165  17.399  1.00  0.00     0.001 A 
HETATM   33  C   UNL     1      39.387  -6.371  16.924  1.00  0.00     0.000 A 
HETATM   34  C   UNL     1      39.441  -5.847  15.635  1.00  0.00     0.001 A 
HETATM   35  C   UNL     1      40.532  -6.128  14.809  1.00  0.00     0.009 A 
ENDBRANCH  29  30
ENDBRANCH  25  29
ENDBRANCH  20  22
ENDBRANCH   1  20
TORSDOF 10
ENDMDL
