MODEL 1
REMARK VINA RESULT:      -9.5      0.000      0.000
REMARK  6 active torsions:
REMARK  status: ('A' for Active; 'I' for Inactive)
REMARK    1  A    between atoms: C_5  and  N_6 
REMARK       I    between atoms: N_6  and  C_7 
REMARK       I    between atoms: C_7  and  N_8 
REMARK    2  A    between atoms: N_8  and  C_9 
REMARK    3  A    between atoms: C_9  and  C_10 
REMARK       I    between atoms: C_10  and  N_11 
REMARK    4  A    between atoms: N_11  and  N_12 
REMARK       I    between atoms: N_12  and  C_13 
REMARK       I    between atoms: C_13  and  N_14 
REMARK    5  A    between atoms: N_14  and  C_15 
REMARK    6  A    between atoms: C_17  and  C_18 
ROOT
HETATM    1  C   UNL     1      42.169 -12.085   6.103  1.00  0.00     0.253 C 
HETATM    2  N   UNL     1      42.339 -13.299   6.742  1.00  0.00    -0.265 N 
HETATM    3  O   UNL     1      41.241 -11.868   5.323  1.00  0.00    -0.270 OA
HETATM    4  H   UNL     1      42.988 -13.351   7.530  1.00  0.00     0.190 HD
ENDROOT
BRANCH   2   5
HETATM    5  N   UNL     1      41.296 -14.229   6.687  1.00  0.00    -0.249 N 
HETATM    6  C   UNL     1      41.353 -15.375   5.919  1.00  0.00     0.339 C 
HETATM    7  N   UNL     1      42.589 -15.603   5.361  1.00  0.00    -0.308 N 
HETATM    8  O   UNL     1      40.354 -16.077   5.804  1.00  0.00    -0.245 OA
HETATM    9  H   UNL     1      43.234 -14.834   5.469  1.00  0.00     0.170 HD
HETATM   10  H   UNL     1      40.369 -13.909   6.961  1.00  0.00     0.192 HD
BRANCH   7  11
HETATM   11  C   UNL     1      43.009 -16.701   4.591  1.00  0.00     0.037 A 
HETATM   12  C   UNL     1      43.313 -17.957   5.124  1.00  0.00     0.045 A 
HETATM   13  C   UNL     1      43.744 -19.009   4.296  1.00  0.00     0.050 A 
HETATM   14  C   UNL     1      43.853 -18.790   2.916  1.00  0.00     0.016 A 
HETATM   15  C   UNL     1      43.554 -17.541   2.376  1.00  0.00     0.003 A 
HETATM   16  C   UNL     1      43.138 -16.502   3.211  1.00  0.00     0.029 A 
BRANCH  13  17
HETATM   17  C   UNL     1      44.054 -20.369   4.873  1.00  0.00     0.417 C 
HETATM   18  F   UNL     1      43.459 -20.609   6.073  1.00  0.00    -0.166 F 
HETATM   19  F   UNL     1      43.665 -21.381   4.050  1.00  0.00    -0.166 F 
HETATM   20  F   UNL     1      45.390 -20.554   5.081  1.00  0.00    -0.166 F 
ENDBRANCH  13  17
ENDBRANCH   7  11
ENDBRANCH   2   5
BRANCH   1  21
HETATM   21  C   UNL     1      43.322 -11.094   6.297  1.00  0.00     0.228 C 
BRANCH  21  22
HETATM   22  N   UNL     1      43.885 -11.030   7.636  1.00  0.00    -0.334 N 
HETATM   23  C   UNL     1      45.190 -10.764   7.890  1.00  0.00     0.322 C 
HETATM   24  N   UNL     1      45.530 -10.412   9.156  1.00  0.00    -0.293 N 
HETATM   25  O   UNL     1      46.059 -10.891   7.027  1.00  0.00    -0.247 OA
HETATM   26  H   UNL     1      46.524 -10.292   9.284  1.00  0.00     0.172 HD
HETATM   27  H   UNL     1      43.260 -10.758   8.394  1.00  0.00     0.164 HD
BRANCH  24  28
HETATM   28  C   UNL     1      44.700 -10.150  10.252  1.00  0.00     0.131 A 
HETATM   29  N   UNL     1      44.171 -11.173  10.958  1.00  0.00    -0.243 NA
HETATM   30  C   UNL     1      43.358 -10.860  11.996  1.00  0.00     0.125 A 
HETATM   31  C   UNL     1      43.026  -9.562  12.364  1.00  0.00    -0.044 A 
HETATM   32  C   UNL     1      42.144  -9.291  13.541  1.00  0.00     0.049 C 
HETATM   33  C   UNL     1      43.596  -8.525  11.629  1.00  0.00     0.012 A 
HETATM   34  C   UNL     1      44.438  -8.820  10.558  1.00  0.00     0.051 A 
ENDBRANCH  24  28
ENDBRANCH  21  22
ENDBRANCH   1  21
TORSDOF 6
ENDMDL
MODEL 2
REMARK VINA RESULT:      -9.2      4.756      9.732
REMARK  6 active torsions:
REMARK  status: ('A' for Active; 'I' for Inactive)
REMARK    1  A    between atoms: C_5  and  N_6 
REMARK       I    between atoms: N_6  and  C_7 
REMARK       I    between atoms: C_7  and  N_8 
REMARK    2  A    between atoms: N_8  and  C_9 
REMARK    3  A    between atoms: C_9  and  C_10 
REMARK       I    between atoms: C_10  and  N_11 
REMARK    4  A    between atoms: N_11  and  N_12 
REMARK       I    between atoms: N_12  and  C_13 
REMARK       I    between atoms: C_13  and  N_14 
REMARK    5  A    between atoms: N_14  and  C_15 
REMARK    6  A    between atoms: C_17  and  C_18 
ROOT
HETATM    1  C   UNL     1      40.555 -14.132   6.131  1.00  0.00     0.253 C 
HETATM    2  N   UNL     1      41.726 -13.562   5.667  1.00  0.00    -0.265 N 
HETATM    3  O   UNL     1      39.543 -13.472   6.370  1.00  0.00    -0.270 OA
HETATM    4  H   UNL     1      42.451 -14.174   5.285  1.00  0.00     0.190 HD
ENDROOT
BRANCH   2   5
HETATM    5  N   UNL     1      41.689 -12.235   5.228  1.00  0.00    -0.249 N 
HETATM    6  C   UNL     1      42.257 -11.195   5.937  1.00  0.00     0.339 C 
HETATM    7  N   UNL     1      43.010 -11.607   7.011  1.00  0.00    -0.308 N 
HETATM    8  O   UNL     1      42.070 -10.039   5.572  1.00  0.00    -0.245 OA
HETATM    9  H   UNL     1      42.924 -12.592   7.217  1.00  0.00     0.170 HD
HETATM   10  H   UNL     1      40.972 -11.986   4.550  1.00  0.00     0.192 HD
BRANCH   7  11
HETATM   11  C   UNL     1      43.776 -10.824   7.893  1.00  0.00     0.037 A 
HETATM   12  C   UNL     1      43.238 -10.099   8.959  1.00  0.00     0.045 A 
HETATM   13  C   UNL     1      44.062  -9.323   9.794  1.00  0.00     0.050 A 
HETATM   14  C   UNL     1      45.443  -9.294   9.554  1.00  0.00     0.016 A 
HETATM   15  C   UNL     1      45.988 -10.012   8.492  1.00  0.00     0.003 A 
HETATM   16  C   UNL     1      45.156 -10.771   7.664  1.00  0.00     0.029 A 
BRANCH  13  17
HETATM   17  C   UNL     1      43.481  -8.554  10.955  1.00  0.00     0.417 C 
HETATM   18  F   UNL     1      42.281  -9.031  11.388  1.00  0.00    -0.166 F 
HETATM   19  F   UNL     1      44.302  -8.557  12.041  1.00  0.00    -0.166 F 
HETATM   20  F   UNL     1      43.268  -7.240  10.657  1.00  0.00    -0.166 F 
ENDBRANCH  13  17
ENDBRANCH   7  11
ENDBRANCH   2   5
BRANCH   1  21
HETATM   21  C   UNL     1      40.669 -15.616   6.499  1.00  0.00     0.228 C 
BRANCH  21  22
HETATM   22  N   UNL     1      41.882 -16.287   6.060  1.00  0.00    -0.334 N 
HETATM   23  C   UNL     1      42.891 -16.635   6.894  1.00  0.00     0.322 C 
HETATM   24  N   UNL     1      43.808 -17.529   6.442  1.00  0.00    -0.293 N 
HETATM   25  O   UNL     1      43.023 -16.121   8.006  1.00  0.00    -0.247 OA
HETATM   26  H   UNL     1      44.563 -17.690   7.092  1.00  0.00     0.172 HD
HETATM   27  H   UNL     1      41.814 -16.880   5.234  1.00  0.00     0.164 HD
BRANCH  24  28
HETATM   28  C   UNL     1      43.805 -18.270   5.255  1.00  0.00     0.131 A 
HETATM   29  N   UNL     1      43.631 -17.645   4.070  1.00  0.00    -0.243 NA
HETATM   30  C   UNL     1      43.617 -18.416   2.956  1.00  0.00     0.125 A 
HETATM   31  C   UNL     1      43.753 -19.798   2.959  1.00  0.00    -0.044 A 
HETATM   32  C   UNL     1      43.757 -20.582   1.686  1.00  0.00     0.049 C 
HETATM   33  C   UNL     1      43.946 -20.416   4.193  1.00  0.00     0.012 A 
HETATM   34  C   UNL     1      43.967 -19.647   5.355  1.00  0.00     0.051 A 
ENDBRANCH  24  28
ENDBRANCH  21  22
ENDBRANCH   1  21
TORSDOF 6
ENDMDL
MODEL 3
REMARK VINA RESULT:      -9.0      3.181      6.001
REMARK  6 active torsions:
REMARK  status: ('A' for Active; 'I' for Inactive)
REMARK    1  A    between atoms: C_5  and  N_6 
REMARK       I    between atoms: N_6  and  C_7 
REMARK       I    between atoms: C_7  and  N_8 
REMARK    2  A    between atoms: N_8  and  C_9 
REMARK    3  A    between atoms: C_9  and  C_10 
REMARK       I    between atoms: C_10  and  N_11 
REMARK    4  A    between atoms: N_11  and  N_12 
REMARK       I    between atoms: N_12  and  C_13 
REMARK       I    between atoms: C_13  and  N_14 
REMARK    5  A    between atoms: N_14  and  C_15 
REMARK    6  A    between atoms: C_17  and  C_18 
ROOT
HETATM    1  C   UNL     1      43.671 -12.056   6.777  1.00  0.00     0.253 C 
HETATM    2  N   UNL     1      42.800 -13.130   6.780  1.00  0.00    -0.265 N 
HETATM    3  O   UNL     1      44.611 -11.960   7.566  1.00  0.00    -0.270 OA
HETATM    4  H   UNL     1      42.182 -13.262   5.977  1.00  0.00     0.190 HD
ENDROOT
BRANCH   2   5
HETATM    5  N   UNL     1      43.135 -14.254   7.542  1.00  0.00    -0.249 N 
HETATM    6  C   UNL     1      43.260 -15.517   7.000  1.00  0.00     0.339 C 
HETATM    7  N   UNL     1      43.203 -15.535   5.626  1.00  0.00    -0.308 N 
HETATM    8  O   UNL     1      43.417 -16.482   7.740  1.00  0.00    -0.245 OA
HETATM    9  H   UNL     1      42.933 -14.652   5.216  1.00  0.00     0.170 HD
HETATM   10  H   UNL     1      42.976 -14.202   8.546  1.00  0.00     0.192 HD
BRANCH   7  11
HETATM   11  C   UNL     1      43.365 -16.630   4.760  1.00  0.00     0.037 A 
HETATM   12  C   UNL     1      43.603 -17.937   5.191  1.00  0.00     0.045 A 
HETATM   13  C   UNL     1      43.771 -18.985   4.267  1.00  0.00     0.050 A 
HETATM   14  C   UNL     1      43.682 -18.705   2.896  1.00  0.00     0.016 A 
HETATM   15  C   UNL     1      43.446 -17.404   2.457  1.00  0.00     0.003 A 
HETATM   16  C   UNL     1      43.292 -16.373   3.385  1.00  0.00     0.029 A 
BRANCH  13  17
HETATM   17  C   UNL     1      44.012 -20.398   4.737  1.00  0.00     0.417 C 
HETATM   18  F   UNL     1      45.300 -20.648   5.100  1.00  0.00    -0.166 F 
HETATM   19  F   UNL     1      43.246 -20.723   5.815  1.00  0.00    -0.166 F 
HETATM   20  F   UNL     1      43.713 -21.323   3.780  1.00  0.00    -0.166 F 
ENDBRANCH  13  17
ENDBRANCH   7  11
ENDBRANCH   2   5
BRANCH   1  21
HETATM   21  C   UNL     1      43.269 -10.912   5.840  1.00  0.00     0.228 C 
BRANCH  21  22
HETATM   22  N   UNL     1      42.196 -11.204   4.904  1.00  0.00    -0.334 N 
HETATM   23  C   UNL     1      41.672 -10.289   4.053  1.00  0.00     0.322 C 
HETATM   24  N   UNL     1      40.918 -10.743   3.019  1.00  0.00    -0.293 N 
HETATM   25  O   UNL     1      41.813  -9.079   4.232  1.00  0.00    -0.247 OA
HETATM   26  H   UNL     1      40.509 -10.003   2.467  1.00  0.00     0.172 HD
HETATM   27  H   UNL     1      42.118 -12.164   4.568  1.00  0.00     0.164 HD
BRANCH  24  28
HETATM   28  C   UNL     1      40.692 -12.061   2.605  1.00  0.00     0.131 A 
HETATM   29  N   UNL     1      40.124 -12.946   3.453  1.00  0.00    -0.243 NA
HETATM   30  C   UNL     1      39.948 -14.213   3.005  1.00  0.00     0.125 A 
HETATM   31  C   UNL     1      40.327 -14.656   1.744  1.00  0.00    -0.044 A 
HETATM   32  C   UNL     1      40.075 -16.063   1.307  1.00  0.00     0.049 C 
HETATM   33  C   UNL     1      40.897 -13.719   0.884  1.00  0.00     0.012 A 
HETATM   34  C   UNL     1      41.087 -12.409   1.319  1.00  0.00     0.051 A 
ENDBRANCH  24  28
ENDBRANCH  21  22
ENDBRANCH   1  21
TORSDOF 6
ENDMDL
MODEL 4
REMARK VINA RESULT:      -8.8      3.526      6.698
REMARK  6 active torsions:
REMARK  status: ('A' for Active; 'I' for Inactive)
REMARK    1  A    between atoms: C_5  and  N_6 
REMARK       I    between atoms: N_6  and  C_7 
REMARK       I    between atoms: C_7  and  N_8 
REMARK    2  A    between atoms: N_8  and  C_9 
REMARK    3  A    between atoms: C_9  and  C_10 
REMARK       I    between atoms: C_10  and  N_11 
REMARK    4  A    between atoms: N_11  and  N_12 
REMARK       I    between atoms: N_12  and  C_13 
REMARK       I    between atoms: C_13  and  N_14 
REMARK    5  A    between atoms: N_14  and  C_15 
REMARK    6  A    between atoms: C_17  and  C_18 
ROOT
HETATM    1  C   UNL     1      42.889 -12.516   6.193  1.00  0.00     0.253 C 
HETATM    2  N   UNL     1      42.303 -13.573   6.865  1.00  0.00    -0.265 N 
HETATM    3  O   UNL     1      44.087 -12.247   6.293  1.00  0.00    -0.270 OA
HETATM    4  H   UNL     1      41.370 -13.877   6.579  1.00  0.00     0.190 HD
ENDROOT
BRANCH   2   5
HETATM    5  N   UNL     1      43.137 -14.508   7.488  1.00  0.00    -0.249 N 
HETATM    6  C   UNL     1      43.466 -15.719   6.913  1.00  0.00     0.339 C 
HETATM    7  N   UNL     1      43.050 -15.841   5.608  1.00  0.00    -0.308 N 
HETATM    8  O   UNL     1      44.084 -16.552   7.567  1.00  0.00    -0.245 OA
HETATM    9  H   UNL     1      42.441 -15.095   5.302  1.00  0.00     0.170 HD
HETATM   10  H   UNL     1      43.244 -14.438   8.498  1.00  0.00     0.192 HD
BRANCH   7  11
HETATM   11  C   UNL     1      43.279 -16.901   4.714  1.00  0.00     0.037 A 
HETATM   12  C   UNL     1      43.560 -18.210   5.113  1.00  0.00     0.045 A 
HETATM   13  C   UNL     1      43.795 -19.221   4.164  1.00  0.00     0.050 A 
HETATM   14  C   UNL     1      43.729 -18.904   2.800  1.00  0.00     0.016 A 
HETATM   15  C   UNL     1      43.452 -17.601   2.393  1.00  0.00     0.003 A 
HETATM   16  C   UNL     1      43.231 -16.605   3.347  1.00  0.00     0.029 A 
BRANCH  13  17
HETATM   17  C   UNL     1      44.081 -20.638   4.597  1.00  0.00     0.417 C 
HETATM   18  F   UNL     1      43.201 -21.122   5.516  1.00  0.00    -0.166 F 
HETATM   19  F   UNL     1      44.058 -21.513   3.555  1.00  0.00    -0.166 F 
HETATM   20  F   UNL     1      45.315 -20.770   5.164  1.00  0.00    -0.166 F 
ENDBRANCH  13  17
ENDBRANCH   7  11
ENDBRANCH   2   5
BRANCH   1  21
HETATM   21  C   UNL     1      41.903 -11.599   5.461  1.00  0.00     0.228 C 
BRANCH  21  22
HETATM   22  N   UNL     1      41.005 -12.252   4.523  1.00  0.00    -0.334 N 
HETATM   23  C   UNL     1      39.733 -12.609   4.827  1.00  0.00     0.322 C 
HETATM   24  N   UNL     1      38.897 -12.907   3.800  1.00  0.00    -0.293 N 
HETATM   25  O   UNL     1      39.350 -12.723   5.991  1.00  0.00    -0.247 OA
HETATM   26  H   UNL     1      37.988 -13.226   4.104  1.00  0.00     0.172 HD
HETATM   27  H   UNL     1      41.150 -12.067   3.531  1.00  0.00     0.164 HD
BRANCH  24  28
HETATM   28  C   UNL     1      39.111 -12.779   2.423  1.00  0.00     0.131 A 
HETATM   29  N   UNL     1      39.955 -13.623   1.790  1.00  0.00    -0.243 NA
HETATM   30  C   UNL     1      40.139 -13.439   0.460  1.00  0.00     0.125 A 
HETATM   31  C   UNL     1      39.530 -12.435  -0.282  1.00  0.00    -0.044 A 
HETATM   32  C   UNL     1      39.758 -12.310  -1.754  1.00  0.00     0.049 C 
HETATM   33  C   UNL     1      38.652 -11.588   0.392  1.00  0.00     0.012 A 
HETATM   34  C   UNL     1      38.443 -11.757   1.759  1.00  0.00     0.051 A 
ENDBRANCH  24  28
ENDBRANCH  21  22
ENDBRANCH   1  21
TORSDOF 6
ENDMDL
MODEL 5
REMARK VINA RESULT:      -8.7      5.414      8.611
REMARK  6 active torsions:
REMARK  status: ('A' for Active; 'I' for Inactive)
REMARK    1  A    between atoms: C_5  and  N_6 
REMARK       I    between atoms: N_6  and  C_7 
REMARK       I    between atoms: C_7  and  N_8 
REMARK    2  A    between atoms: N_8  and  C_9 
REMARK    3  A    between atoms: C_9  and  C_10 
REMARK       I    between atoms: C_10  and  N_11 
REMARK    4  A    between atoms: N_11  and  N_12 
REMARK       I    between atoms: N_12  and  C_13 
REMARK       I    between atoms: C_13  and  N_14 
REMARK    5  A    between atoms: N_14  and  C_15 
REMARK    6  A    between atoms: C_17  and  C_18 
ROOT
HETATM    1  C   UNL     1      42.609 -11.187   4.886  1.00  0.00     0.253 C 
HETATM    2  N   UNL     1      41.741 -11.176   3.811  1.00  0.00    -0.265 N 
HETATM    3  O   UNL     1      43.763 -10.763   4.813  1.00  0.00    -0.270 OA
HETATM    4  H   UNL     1      40.746 -11.335   3.984  1.00  0.00     0.190 HD
ENDROOT
BRANCH   2   5
HETATM    5  N   UNL     1      42.101 -10.446   2.674  1.00  0.00    -0.249 N 
HETATM    6  C   UNL     1      41.510 -10.638   1.441  1.00  0.00     0.339 C 
HETATM    7  N   UNL     1      40.421 -11.477   1.477  1.00  0.00    -0.308 N 
HETATM    8  O   UNL     1      41.965 -10.068   0.455  1.00  0.00    -0.245 OA
HETATM    9  H   UNL     1      40.296 -11.946   2.363  1.00  0.00     0.170 HD
HETATM   10  H   UNL     1      43.015  -9.998   2.676  1.00  0.00     0.192 HD
BRANCH   7  11
HETATM   11  C   UNL     1      39.555 -11.828   0.428  1.00  0.00     0.037 A 
HETATM   12  C   UNL     1      39.695 -12.983  -0.346  1.00  0.00     0.045 A 
HETATM   13  C   UNL     1      38.798 -13.265  -1.393  1.00  0.00     0.050 A 
HETATM   14  C   UNL     1      37.744 -12.376  -1.647  1.00  0.00     0.016 A 
HETATM   15  C   UNL     1      37.598 -11.221  -0.882  1.00  0.00     0.003 A 
HETATM   16  C   UNL     1      38.501 -10.948   0.148  1.00  0.00     0.029 A 
BRANCH  13  17
HETATM   17  C   UNL     1      38.942 -14.522  -2.215  1.00  0.00     0.417 C 
HETATM   18  F   UNL     1      37.907 -14.743  -3.071  1.00  0.00    -0.166 F 
HETATM   19  F   UNL     1      40.069 -14.514  -2.980  1.00  0.00    -0.166 F 
HETATM   20  F   UNL     1      39.027 -15.644  -1.443  1.00  0.00    -0.166 F 
ENDBRANCH  13  17
ENDBRANCH   7  11
ENDBRANCH   2   5
BRANCH   1  21
HETATM   21  C   UNL     1      42.088 -11.932   6.120  1.00  0.00     0.228 C 
BRANCH  21  22
HETATM   22  N   UNL     1      41.741 -13.329   5.919  1.00  0.00    -0.334 N 
HETATM   23  C   UNL     1      40.469 -13.796   5.933  1.00  0.00     0.322 C 
HETATM   24  N   UNL     1      40.243 -15.033   5.421  1.00  0.00    -0.293 N 
HETATM   25  O   UNL     1      39.548 -13.159   6.445  1.00  0.00    -0.247 OA
HETATM   26  H   UNL     1      39.286 -15.339   5.524  1.00  0.00     0.172 HD
HETATM   27  H   UNL     1      42.375 -13.891   5.351  1.00  0.00     0.164 HD
BRANCH  24  28
HETATM   28  C   UNL     1      41.125 -15.881   4.742  1.00  0.00     0.131 A 
HETATM   29  N   UNL     1      42.153 -16.456   5.405  1.00  0.00    -0.243 NA
HETATM   30  C   UNL     1      42.986 -17.252   4.691  1.00  0.00     0.125 A 
HETATM   31  C   UNL     1      42.859 -17.497   3.330  1.00  0.00    -0.044 A 
HETATM   32  C   UNL     1      43.802 -18.410   2.614  1.00  0.00     0.049 C 
HETATM   33  C   UNL     1      41.783 -16.903   2.674  1.00  0.00     0.012 A 
HETATM   34  C   UNL     1      40.909 -16.083   3.384  1.00  0.00     0.051 A 
ENDBRANCH  24  28
ENDBRANCH  21  22
ENDBRANCH   1  21
TORSDOF 6
ENDMDL
MODEL 6
REMARK VINA RESULT:      -8.6      2.245      2.970
REMARK  6 active torsions:
REMARK  status: ('A' for Active; 'I' for Inactive)
REMARK    1  A    between atoms: C_5  and  N_6 
REMARK       I    between atoms: N_6  and  C_7 
REMARK       I    between atoms: C_7  and  N_8 
REMARK    2  A    between atoms: N_8  and  C_9 
REMARK    3  A    between atoms: C_9  and  C_10 
REMARK       I    between atoms: C_10  and  N_11 
REMARK    4  A    between atoms: N_11  and  N_12 
REMARK       I    between atoms: N_12  and  C_13 
REMARK       I    between atoms: C_13  and  N_14 
REMARK    5  A    between atoms: N_14  and  C_15 
REMARK    6  A    between atoms: C_17  and  C_18 
ROOT
HETATM    1  C   UNL     1      41.539 -10.052   6.989  1.00  0.00     0.253 C 
HETATM    2  N   UNL     1      41.791 -11.398   6.799  1.00  0.00    -0.265 N 
HETATM    3  O   UNL     1      40.607  -9.466   6.439  1.00  0.00    -0.270 OA
HETATM    4  H   UNL     1      42.433 -11.871   7.438  1.00  0.00     0.190 HD
ENDROOT
BRANCH   2   5
HETATM    5  N   UNL     1      40.820 -12.170   6.152  1.00  0.00    -0.249 N 
HETATM    6  C   UNL     1      41.096 -13.394   5.577  1.00  0.00     0.339 C 
HETATM    7  N   UNL     1      42.359 -13.861   5.855  1.00  0.00    -0.308 N 
HETATM    8  O   UNL     1      40.238 -13.955   4.905  1.00  0.00    -0.245 OA
HETATM    9  H   UNL     1      42.954 -13.184   6.313  1.00  0.00     0.170 HD
HETATM   10  H   UNL     1      39.984 -11.690   5.825  1.00  0.00     0.192 HD
BRANCH   7  11
HETATM   11  C   UNL     1      42.935 -15.091   5.493  1.00  0.00     0.037 A 
HETATM   12  C   UNL     1      42.822 -15.660   4.222  1.00  0.00     0.045 A 
HETATM   13  C   UNL     1      43.412 -16.903   3.931  1.00  0.00     0.050 A 
HETATM   14  C   UNL     1      44.133 -17.567   4.933  1.00  0.00     0.016 A 
HETATM   15  C   UNL     1      44.249 -17.008   6.204  1.00  0.00     0.003 A 
HETATM   16  C   UNL     1      43.650 -15.777   6.481  1.00  0.00     0.029 A 
BRANCH  13  17
HETATM   17  C   UNL     1      43.302 -17.507   2.553  1.00  0.00     0.417 C 
HETATM   18  F   UNL     1      44.132 -18.566   2.346  1.00  0.00    -0.166 F 
HETATM   19  F   UNL     1      42.045 -17.955   2.282  1.00  0.00    -0.166 F 
HETATM   20  F   UNL     1      43.596 -16.612   1.566  1.00  0.00    -0.166 F 
ENDBRANCH  13  17
ENDBRANCH   7  11
ENDBRANCH   2   5
BRANCH   1  21
HETATM   21  C   UNL     1      42.614  -9.309   7.790  1.00  0.00     0.228 C 
BRANCH  21  22
HETATM   22  N   UNL     1      42.693  -9.637   9.204  1.00  0.00    -0.334 N 
HETATM   23  C   UNL     1      43.578 -10.523   9.721  1.00  0.00     0.322 C 
HETATM   24  N   UNL     1      43.779 -10.508  11.064  1.00  0.00    -0.293 N 
HETATM   25  O   UNL     1      44.145 -11.361   9.019  1.00  0.00    -0.247 OA
HETATM   26  H   UNL     1      44.402 -11.236  11.383  1.00  0.00     0.172 HD
HETATM   27  H   UNL     1      42.401  -8.919   9.867  1.00  0.00     0.164 HD
BRANCH  24  28
HETATM   28  C   UNL     1      43.293  -9.607  12.018  1.00  0.00     0.131 A 
HETATM   29  N   UNL     1      43.619  -8.298  11.937  1.00  0.00    -0.243 NA
HETATM   30  C   UNL     1      43.136  -7.476  12.900  1.00  0.00     0.125 A 
HETATM   31  C   UNL     1      42.347  -7.895  13.964  1.00  0.00    -0.044 A 
HETATM   32  C   UNL     1      41.826  -6.924  14.974  1.00  0.00     0.049 C 
HETATM   33  C   UNL     1      42.014  -9.247  14.015  1.00  0.00     0.012 A 
HETATM   34  C   UNL     1      42.495 -10.115  13.036  1.00  0.00     0.051 A 
ENDBRANCH  24  28
ENDBRANCH  21  22
ENDBRANCH   1  21
TORSDOF 6
ENDMDL
MODEL 7
REMARK VINA RESULT:      -8.6      4.898     10.291
REMARK  6 active torsions:
REMARK  status: ('A' for Active; 'I' for Inactive)
REMARK    1  A    between atoms: C_5  and  N_6 
REMARK       I    between atoms: N_6  and  C_7 
REMARK       I    between atoms: C_7  and  N_8 
REMARK    2  A    between atoms: N_8  and  C_9 
REMARK    3  A    between atoms: C_9  and  C_10 
REMARK       I    between atoms: C_10  and  N_11 
REMARK    4  A    between atoms: N_11  and  N_12 
REMARK       I    between atoms: N_12  and  C_13 
REMARK       I    between atoms: C_13  and  N_14 
REMARK    5  A    between atoms: N_14  and  C_15 
REMARK    6  A    between atoms: C_17  and  C_18 
ROOT
HETATM    1  C   UNL     1      42.844 -11.586   5.627  1.00  0.00     0.253 C 
HETATM    2  N   UNL     1      42.813 -11.956   6.959  1.00  0.00    -0.265 N 
HETATM    3  O   UNL     1      43.776 -10.949   5.135  1.00  0.00    -0.270 OA
HETATM    4  H   UNL     1      42.132 -12.658   7.256  1.00  0.00     0.190 HD
ENDROOT
BRANCH   2   5
HETATM    5  N   UNL     1      43.981 -11.812   7.715  1.00  0.00    -0.249 N 
HETATM    6  C   UNL     1      44.107 -10.884   8.730  1.00  0.00     0.339 C 
HETATM    7  N   UNL     1      42.929 -10.248   9.044  1.00  0.00    -0.308 N 
HETATM    8  O   UNL     1      45.199 -10.711   9.260  1.00  0.00    -0.245 OA
HETATM    9  H   UNL     1      42.176 -10.438   8.398  1.00  0.00     0.170 HD
HETATM   10  H   UNL     1      44.845 -12.167   7.312  1.00  0.00     0.192 HD
BRANCH   7  11
HETATM   11  C   UNL     1      42.689  -9.311  10.063  1.00  0.00     0.037 A 
HETATM   12  C   UNL     1      42.169  -9.639  11.318  1.00  0.00     0.045 A 
HETATM   13  C   UNL     1      41.939  -8.647  12.288  1.00  0.00     0.050 A 
HETATM   14  C   UNL     1      42.251  -7.314  11.987  1.00  0.00     0.016 A 
HETATM   15  C   UNL     1      42.767  -6.976  10.738  1.00  0.00     0.003 A 
HETATM   16  C   UNL     1      42.981  -7.971   9.781  1.00  0.00     0.029 A 
BRANCH  13  17
HETATM   17  C   UNL     1      41.394  -9.007  13.648  1.00  0.00     0.417 C 
HETATM   18  F   UNL     1      42.354  -9.289  14.571  1.00  0.00    -0.166 F 
HETATM   19  F   UNL     1      40.638  -8.010  14.184  1.00  0.00    -0.166 F 
HETATM   20  F   UNL     1      40.585 -10.105  13.612  1.00  0.00    -0.166 F 
ENDBRANCH  13  17
ENDBRANCH   7  11
ENDBRANCH   2   5
BRANCH   1  21
HETATM   21  C   UNL     1      41.550 -11.869   4.856  1.00  0.00     0.228 C 
BRANCH  21  22
HETATM   22  N   UNL     1      41.262 -13.269   4.590  1.00  0.00    -0.334 N 
HETATM   23  C   UNL     1      40.223 -13.690   3.829  1.00  0.00     0.322 C 
HETATM   24  N   UNL     1      40.240 -14.975   3.388  1.00  0.00    -0.293 N 
HETATM   25  O   UNL     1      39.258 -12.965   3.587  1.00  0.00    -0.247 OA
HETATM   26  H   UNL     1      39.406 -15.235   2.883  1.00  0.00     0.172 HD
HETATM   27  H   UNL     1      42.048 -13.918   4.601  1.00  0.00     0.164 HD
BRANCH  24  28
HETATM   28  C   UNL     1      41.258 -15.929   3.494  1.00  0.00     0.131 A 
HETATM   29  N   UNL     1      41.815 -16.192   4.697  1.00  0.00    -0.243 NA
HETATM   30  C   UNL     1      42.809 -17.111   4.735  1.00  0.00     0.125 A 
HETATM   31  C   UNL     1      43.298 -17.782   3.621  1.00  0.00    -0.044 A 
HETATM   32  C   UNL     1      44.381 -18.806   3.745  1.00  0.00     0.049 C 
HETATM   33  C   UNL     1      42.697 -17.503   2.396  1.00  0.00     0.012 A 
HETATM   34  C   UNL     1      41.670 -16.564   2.328  1.00  0.00     0.051 A 
ENDBRANCH  24  28
ENDBRANCH  21  22
ENDBRANCH   1  21
TORSDOF 6
ENDMDL
MODEL 8
REMARK VINA RESULT:      -8.5      5.559     10.614
REMARK  6 active torsions:
REMARK  status: ('A' for Active; 'I' for Inactive)
REMARK    1  A    between atoms: C_5  and  N_6 
REMARK       I    between atoms: N_6  and  C_7 
REMARK       I    between atoms: C_7  and  N_8 
REMARK    2  A    between atoms: N_8  and  C_9 
REMARK    3  A    between atoms: C_9  and  C_10 
REMARK       I    between atoms: C_10  and  N_11 
REMARK    4  A    between atoms: N_11  and  N_12 
REMARK       I    between atoms: N_12  and  C_13 
REMARK       I    between atoms: C_13  and  N_14 
REMARK    5  A    between atoms: N_14  and  C_15 
REMARK    6  A    between atoms: C_17  and  C_18 
ROOT
HETATM    1  C   UNL     1      42.876 -11.522   5.551  1.00  0.00     0.253 C 
HETATM    2  N   UNL     1      42.959 -11.898   6.878  1.00  0.00    -0.265 N 
HETATM    3  O   UNL     1      43.763 -10.881   4.985  1.00  0.00    -0.270 OA
HETATM    4  H   UNL     1      42.307 -12.603   7.229  1.00  0.00     0.190 HD
ENDROOT
BRANCH   2   5
HETATM    5  N   UNL     1      44.187 -11.757   7.533  1.00  0.00    -0.249 N 
HETATM    6  C   UNL     1      44.374 -10.899   8.599  1.00  0.00     0.339 C 
HETATM    7  N   UNL     1      43.208 -10.339   9.066  1.00  0.00    -0.308 N 
HETATM    8  O   UNL     1      45.504 -10.716   9.038  1.00  0.00    -0.245 OA
HETATM    9  H   UNL     1      42.405 -10.516   8.479  1.00  0.00     0.170 HD
HETATM   10  H   UNL     1      45.022 -12.044   7.027  1.00  0.00     0.192 HD
BRANCH   7  11
HETATM   11  C   UNL     1      43.030  -9.487  10.170  1.00  0.00     0.037 A 
HETATM   12  C   UNL     1      42.790  -8.115  10.066  1.00  0.00     0.045 A 
HETATM   13  C   UNL     1      42.636  -7.318  11.214  1.00  0.00     0.050 A 
HETATM   14  C   UNL     1      42.712  -7.921  12.478  1.00  0.00     0.016 A 
HETATM   15  C   UNL     1      42.952  -9.289  12.591  1.00  0.00     0.003 A 
HETATM   16  C   UNL     1      43.114 -10.066  11.442  1.00  0.00     0.029 A 
BRANCH  13  17
HETATM   17  C   UNL     1      42.361  -5.839  11.098  1.00  0.00     0.417 C 
HETATM   18  F   UNL     1      41.087  -5.543  10.722  1.00  0.00    -0.166 F 
HETATM   19  F   UNL     1      42.571  -5.179  12.270  1.00  0.00    -0.166 F 
HETATM   20  F   UNL     1      43.166  -5.229  10.181  1.00  0.00    -0.166 F 
ENDBRANCH  13  17
ENDBRANCH   7  11
ENDBRANCH   2   5
BRANCH   1  21
HETATM   21  C   UNL     1      41.522 -11.802   4.891  1.00  0.00     0.228 C 
BRANCH  21  22
HETATM   22  N   UNL     1      41.227 -13.199   4.613  1.00  0.00    -0.334 N 
HETATM   23  C   UNL     1      40.175 -13.609   3.865  1.00  0.00     0.322 C 
HETATM   24  N   UNL     1      40.183 -14.888   3.408  1.00  0.00    -0.293 N 
HETATM   25  O   UNL     1      39.206 -12.880   3.649  1.00  0.00    -0.247 OA
HETATM   26  H   UNL     1      39.339 -15.141   2.915  1.00  0.00     0.172 HD
HETATM   27  H   UNL     1      42.013 -13.848   4.602  1.00  0.00     0.164 HD
BRANCH  24  28
HETATM   28  C   UNL     1      41.201 -15.845   3.484  1.00  0.00     0.131 A 
HETATM   29  N   UNL     1      41.809 -16.090   4.665  1.00  0.00    -0.243 NA
HETATM   30  C   UNL     1      42.802 -17.013   4.674  1.00  0.00     0.125 A 
HETATM   31  C   UNL     1      43.239 -17.703   3.551  1.00  0.00    -0.044 A 
HETATM   32  C   UNL     1      44.322 -18.729   3.642  1.00  0.00     0.049 C 
HETATM   33  C   UNL     1      42.585 -17.441   2.349  1.00  0.00     0.012 A 
HETATM   34  C   UNL     1      41.558 -16.499   2.311  1.00  0.00     0.051 A 
ENDBRANCH  24  28
ENDBRANCH  21  22
ENDBRANCH   1  21
TORSDOF 6
ENDMDL
MODEL 9
REMARK VINA RESULT:      -8.4      4.394      5.522
REMARK  6 active torsions:
REMARK  status: ('A' for Active; 'I' for Inactive)
REMARK    1  A    between atoms: C_5  and  N_6 
REMARK       I    between atoms: N_6  and  C_7 
REMARK       I    between atoms: C_7  and  N_8 
REMARK    2  A    between atoms: N_8  and  C_9 
REMARK    3  A    between atoms: C_9  and  C_10 
REMARK       I    between atoms: C_10  and  N_11 
REMARK    4  A    between atoms: N_11  and  N_12 
REMARK       I    between atoms: N_12  and  C_13 
REMARK       I    between atoms: C_13  and  N_14 
REMARK    5  A    between atoms: N_14  and  C_15 
REMARK    6  A    between atoms: C_17  and  C_18 
ROOT
HETATM    1  C   UNL     1      40.302 -12.079   0.077  1.00  0.00     0.253 C 
HETATM    2  N   UNL     1      40.448 -12.943   1.147  1.00  0.00    -0.265 N 
HETATM    3  O   UNL     1      39.744 -12.408  -0.970  1.00  0.00    -0.270 OA
HETATM    4  H   UNL     1      40.720 -12.557   2.054  1.00  0.00     0.190 HD
ENDROOT
BRANCH   2   5
HETATM    5  N   UNL     1      39.734 -14.145   1.132  1.00  0.00    -0.249 N 
HETATM    6  C   UNL     1      40.253 -15.331   1.612  1.00  0.00     0.339 C 
HETATM    7  N   UNL     1      41.454 -15.183   2.264  1.00  0.00    -0.308 N 
HETATM    8  O   UNL     1      39.633 -16.376   1.443  1.00  0.00    -0.245 OA
HETATM    9  H   UNL     1      41.857 -14.261   2.174  1.00  0.00     0.170 HD
HETATM   10  H   UNL     1      38.956 -14.218   0.480  1.00  0.00     0.192 HD
BRANCH   7  11
HETATM   11  C   UNL     1      42.213 -16.162   2.928  1.00  0.00     0.037 A 
HETATM   12  C   UNL     1      42.352 -16.232   4.317  1.00  0.00     0.045 A 
HETATM   13  C   UNL     1      43.141 -17.231   4.916  1.00  0.00     0.050 A 
HETATM   14  C   UNL     1      43.782 -18.174   4.100  1.00  0.00     0.016 A 
HETATM   15  C   UNL     1      43.651 -18.110   2.714  1.00  0.00     0.003 A 
HETATM   16  C   UNL     1      42.873 -17.107   2.133  1.00  0.00     0.029 A 
BRANCH  13  17
HETATM   17  C   UNL     1      43.274 -17.314   6.416  1.00  0.00     0.417 C 
HETATM   18  F   UNL     1      44.448 -16.818   6.894  1.00  0.00    -0.166 F 
HETATM   19  F   UNL     1      42.287 -16.635   7.062  1.00  0.00    -0.166 F 
HETATM   20  F   UNL     1      43.203 -18.597   6.876  1.00  0.00    -0.166 F 
ENDBRANCH  13  17
ENDBRANCH   7  11
ENDBRANCH   2   5
BRANCH   1  21
HETATM   21  C   UNL     1      41.046 -10.748   0.225  1.00  0.00     0.228 C 
BRANCH  21  22
HETATM   22  N   UNL     1      41.579 -10.462   1.547  1.00  0.00    -0.334 N 
HETATM   23  C   UNL     1      41.183  -9.411   2.306  1.00  0.00     0.322 C 
HETATM   24  N   UNL     1      41.500  -9.427   3.626  1.00  0.00    -0.293 N 
HETATM   25  O   UNL     1      40.606  -8.438   1.819  1.00  0.00    -0.247 OA
HETATM   26  H   UNL     1      41.229  -8.585   4.112  1.00  0.00     0.172 HD
HETATM   27  H   UNL     1      41.923 -11.251   2.093  1.00  0.00     0.164 HD
BRANCH  24  28
HETATM   28  C   UNL     1      42.084 -10.451   4.380  1.00  0.00     0.131 A 
HETATM   29  N   UNL     1      43.386 -10.765   4.197  1.00  0.00    -0.243 NA
HETATM   30  C   UNL     1      43.892 -11.778   4.941  1.00  0.00     0.125 A 
HETATM   31  C   UNL     1      43.157 -12.518   5.859  1.00  0.00    -0.044 A 
HETATM   32  C   UNL     1      43.791 -13.605   6.666  1.00  0.00     0.049 C 
HETATM   33  C   UNL     1      41.821 -12.164   6.039  1.00  0.00     0.012 A 
HETATM   34  C   UNL     1      41.276 -11.123   5.289  1.00  0.00     0.051 A 
ENDBRANCH  24  28
ENDBRANCH  21  22
ENDBRANCH   1  21
TORSDOF 6
ENDMDL
MODEL 10
REMARK VINA RESULT:      -8.4      7.250      9.664
REMARK  6 active torsions:
REMARK  status: ('A' for Active; 'I' for Inactive)
REMARK    1  A    between atoms: C_5  and  N_6 
REMARK       I    between atoms: N_6  and  C_7 
REMARK       I    between atoms: C_7  and  N_8 
REMARK    2  A    between atoms: N_8  and  C_9 
REMARK    3  A    between atoms: C_9  and  C_10 
REMARK       I    between atoms: C_10  and  N_11 
REMARK    4  A    between atoms: N_11  and  N_12 
REMARK       I    between atoms: N_12  and  C_13 
REMARK       I    between atoms: C_13  and  N_14 
REMARK    5  A    between atoms: N_14  and  C_15 
REMARK    6  A    between atoms: C_17  and  C_18 
ROOT
HETATM    1  C   UNL     1      40.437 -12.446  -0.869  1.00  0.00     0.253 C 
HETATM    2  N   UNL     1      40.875 -13.535  -0.139  1.00  0.00    -0.265 N 
HETATM    3  O   UNL     1      39.262 -12.077  -0.872  1.00  0.00    -0.270 OA
HETATM    4  H   UNL     1      41.880 -13.661  -0.003  1.00  0.00     0.190 HD
ENDROOT
BRANCH   2   5
HETATM    5  N   UNL     1      40.010 -14.090   0.810  1.00  0.00    -0.249 N 
HETATM    6  C   UNL     1      40.377 -15.129   1.642  1.00  0.00     0.339 C 
HETATM    7  N   UNL     1      41.714 -15.441   1.575  1.00  0.00    -0.308 N 
HETATM    8  O   UNL     1      39.533 -15.663   2.352  1.00  0.00    -0.245 OA
HETATM    9  H   UNL     1      42.208 -14.972   0.829  1.00  0.00     0.170 HD
HETATM   10  H   UNL     1      39.012 -13.946   0.673  1.00  0.00     0.192 HD
BRANCH   7  11
HETATM   11  C   UNL     1      42.428 -16.387   2.331  1.00  0.00     0.037 A 
HETATM   12  C   UNL     1      42.540 -17.737   1.986  1.00  0.00     0.045 A 
HETATM   13  C   UNL     1      43.259 -18.634   2.798  1.00  0.00     0.050 A 
HETATM   14  C   UNL     1      43.880 -18.154   3.960  1.00  0.00     0.016 A 
HETATM   15  C   UNL     1      43.772 -16.810   4.312  1.00  0.00     0.003 A 
HETATM   16  C   UNL     1      43.047 -15.934   3.502  1.00  0.00     0.029 A 
BRANCH  13  17
HETATM   17  C   UNL     1      43.392 -20.087   2.414  1.00  0.00     0.417 C 
HETATM   18  F   UNL     1      44.437 -20.344   1.581  1.00  0.00    -0.166 F 
HETATM   19  F   UNL     1      43.564 -20.894   3.496  1.00  0.00    -0.166 F 
HETATM   20  F   UNL     1      42.285 -20.560   1.772  1.00  0.00    -0.166 F 
ENDBRANCH  13  17
ENDBRANCH   7  11
ENDBRANCH   2   5
BRANCH   1  21
HETATM   21  C   UNL     1      41.484 -11.846  -1.813  1.00  0.00     0.228 C 
BRANCH  21  22
HETATM   22  N   UNL     1      41.403 -10.410  -2.022  1.00  0.00    -0.334 N 
HETATM   23  C   UNL     1      41.878  -9.496  -1.142  1.00  0.00     0.322 C 
HETATM   24  N   UNL     1      42.041  -8.220  -1.579  1.00  0.00    -0.293 N 
HETATM   25  O   UNL     1      42.102  -9.781   0.035  1.00  0.00    -0.247 OA
HETATM   26  H   UNL     1      42.336  -7.584  -0.853  1.00  0.00     0.172 HD
HETATM   27  H   UNL     1      41.389 -10.078  -2.986  1.00  0.00     0.164 HD
BRANCH  24  28
HETATM   28  C   UNL     1      41.910  -7.709  -2.875  1.00  0.00     0.131 A 
HETATM   29  N   UNL     1      40.722  -7.788  -3.514  1.00  0.00    -0.243 NA
HETATM   30  C   UNL     1      40.660  -7.294  -4.775  1.00  0.00     0.125 A 
HETATM   31  C   UNL     1      41.737  -6.733  -5.450  1.00  0.00    -0.044 A 
HETATM   32  C   UNL     1      41.587  -6.182  -6.831  1.00  0.00     0.049 C 
HETATM   33  C   UNL     1      42.946  -6.651  -4.762  1.00  0.00     0.012 A 
HETATM   34  C   UNL     1      43.037  -7.149  -3.464  1.00  0.00     0.051 A 
ENDBRANCH  24  28
ENDBRANCH  21  22
ENDBRANCH   1  21
TORSDOF 6
ENDMDL
