MODEL 1
REMARK VINA RESULT:      -8.6      0.000      0.000
REMARK  6 active torsions:
REMARK  status: ('A' for Active; 'I' for Inactive)
REMARK    1  A    between atoms: C_2  and  C_3 
REMARK    2  A    between atoms: C_13  and  C_14 
REMARK       I    between atoms: C_14  and  N_15 
REMARK    3  A    between atoms: N_15  and  C_16 
REMARK    4  A    between atoms: C_16  and  C_17 
REMARK    5  A    between atoms: C_17  and  C_18 
REMARK    6  A    between atoms: C_18  and  C_19 
ROOT
HETATM    1  C   UNL     1      40.801 -13.650   1.042  1.00  0.00     0.251 C 
HETATM    2  N   UNL     1      41.390 -12.857   0.079  1.00  0.00    -0.357 N 
HETATM    3  O   UNL     1      39.683 -13.444   1.500  1.00  0.00    -0.268 OA
HETATM    4  H   UNL     1      42.210 -13.191  -0.406  1.00  0.00     0.162 HD
ENDROOT
BRANCH   1   5
HETATM    5  C   UNL     1      41.578 -14.834   1.507  1.00  0.00     0.032 A 
HETATM    6  C   UNL     1      42.974 -14.886   1.464  1.00  0.00     0.017 A 
HETATM    7  C   UNL     1      43.650 -16.025   1.921  1.00  0.00     0.008 A 
HETATM    8  C   UNL     1      42.946 -17.125   2.436  1.00  0.00    -0.052 A 
HETATM    9  C   UNL     1      41.546 -17.057   2.489  1.00  0.00     0.008 A 
HETATM   10  C   UNL     1      40.871 -15.921   2.034  1.00  0.00     0.017 A 
BRANCH   8  11
HETATM   11  C   UNL     1      43.706 -18.355   2.894  1.00  0.00     0.044 C 
HETATM   12  C   UNL     1      43.188 -19.606   2.169  1.00  0.00     0.241 C 
HETATM   13  N   UNL     1      43.955 -20.812   2.622  1.00  0.00    -0.074 N 
HETATM   14  H   UNL     1      44.939 -20.729   2.330  1.00  0.00     0.277 HD
HETATM   15  H   UNL     1      43.592 -21.641   2.131  1.00  0.00     0.277 HD
HETATM   16  C   UNL     1      43.890 -21.052   4.095  1.00  0.00     0.232 C 
HETATM   17  C   UNL     1      44.422 -19.830   4.827  1.00  0.00     0.028 C 
HETATM   18  C   UNL     1      43.675 -18.558   4.421  1.00  0.00     0.013 C 
ENDBRANCH   8  11
ENDBRANCH   1   5
BRANCH   2  19
HETATM   19  C   UNL     1      40.688 -11.732  -0.511  1.00  0.00     0.123 C 
BRANCH  19  20
HETATM   20  C   UNL     1      41.344 -11.193  -1.780  1.00  0.00     0.026 C 
BRANCH  20  21
HETATM   21  C   UNL     1      41.124 -12.108  -2.984  1.00  0.00     0.061 C 
BRANCH  21  22
HETATM   22  C   UNL     1      39.817 -12.829  -2.908  1.00  0.00     0.044 A 
HETATM   23  N   UNL     1      39.824 -14.215  -2.890  1.00  0.00    -0.229 NA
HETATM   24  C   UNL     1      38.601 -14.675  -2.797  1.00  0.00     0.164 A 
HETATM   25  N   UNL     1      38.312 -15.983  -2.753  1.00  0.00    -0.378 N 
HETATM   26  S   UNL     1      37.367 -13.483  -2.761  1.00  0.00    -0.062 SA
HETATM   27  H   UNL     1      39.051 -16.610  -3.044  1.00  0.00     0.158 HD
HETATM   28  H   UNL     1      37.378 -16.277  -3.013  1.00  0.00     0.158 HD
HETATM   29  C   UNL     1      38.560 -12.258  -2.850  1.00  0.00     0.080 A 
ENDBRANCH  21  22
ENDBRANCH  20  21
ENDBRANCH  19  20
ENDBRANCH   2  19
TORSDOF 6
ENDMDL
MODEL 2
REMARK VINA RESULT:      -8.2      7.069      8.952
REMARK  6 active torsions:
REMARK  status: ('A' for Active; 'I' for Inactive)
REMARK    1  A    between atoms: C_2  and  C_3 
REMARK    2  A    between atoms: C_13  and  C_14 
REMARK       I    between atoms: C_14  and  N_15 
REMARK    3  A    between atoms: N_15  and  C_16 
REMARK    4  A    between atoms: C_16  and  C_17 
REMARK    5  A    between atoms: C_17  and  C_18 
REMARK    6  A    between atoms: C_18  and  C_19 
ROOT
HETATM    1  C   UNL     1      43.311 -12.588   5.576  1.00  0.00     0.251 C 
HETATM    2  N   UNL     1      44.172 -12.323   6.620  1.00  0.00    -0.357 N 
HETATM    3  O   UNL     1      42.646 -11.729   5.009  1.00  0.00    -0.268 OA
HETATM    4  H   UNL     1      44.842 -13.024   6.902  1.00  0.00     0.162 HD
ENDROOT
BRANCH   1   5
HETATM    5  C   UNL     1      43.232 -14.003   5.111  1.00  0.00     0.032 A 
HETATM    6  C   UNL     1      42.827 -14.353   3.820  1.00  0.00     0.017 A 
HETATM    7  C   UNL     1      42.779 -15.700   3.439  1.00  0.00     0.008 A 
HETATM    8  C   UNL     1      43.143 -16.718   4.335  1.00  0.00    -0.052 A 
HETATM    9  C   UNL     1      43.562 -16.356   5.624  1.00  0.00     0.008 A 
HETATM   10  C   UNL     1      43.611 -15.012   6.004  1.00  0.00     0.017 A 
BRANCH   8  11
HETATM   11  C   UNL     1      43.050 -18.169   3.901  1.00  0.00     0.044 C 
HETATM   12  C   UNL     1      44.143 -19.004   4.585  1.00  0.00     0.241 C 
HETATM   13  N   UNL     1      44.033 -20.436   4.156  1.00  0.00    -0.074 N 
HETATM   14  H   UNL     1      43.148 -20.834   4.499  1.00  0.00     0.277 HD
HETATM   15  H   UNL     1      44.776 -20.980   4.618  1.00  0.00     0.277 HD
HETATM   16  C   UNL     1      44.132 -20.635   2.679  1.00  0.00     0.232 C 
HETATM   17  C   UNL     1      43.040 -19.832   1.990  1.00  0.00     0.028 C 
HETATM   18  C   UNL     1      43.099 -18.353   2.372  1.00  0.00     0.013 C 
ENDBRANCH   8  11
ENDBRANCH   1   5
BRANCH   2  19
HETATM   19  C   UNL     1      44.396 -10.969   7.093  1.00  0.00     0.123 C 
BRANCH  19  20
HETATM   20  C   UNL     1      45.763 -10.762   7.742  1.00  0.00     0.026 C 
BRANCH  20  21
HETATM   21  C   UNL     1      45.773  -9.587   8.719  1.00  0.00     0.061 C 
BRANCH  21  22
HETATM   22  C   UNL     1      44.712  -9.717   9.764  1.00  0.00     0.044 A 
HETATM   23  N   UNL     1      44.725 -10.833  10.585  1.00  0.00    -0.229 NA
HETATM   24  C   UNL     1      43.744 -10.770  11.452  1.00  0.00     0.164 A 
HETATM   25  N   UNL     1      43.521 -11.716  12.376  1.00  0.00    -0.378 N 
HETATM   26  S   UNL     1      42.729  -9.393  11.316  1.00  0.00    -0.062 SA
HETATM   27  H   UNL     1      43.984 -12.603  12.222  1.00  0.00     0.158 HD
HETATM   28  H   UNL     1      42.594 -11.785  12.777  1.00  0.00     0.158 HD
HETATM   29  C   UNL     1      43.688  -8.825  10.016  1.00  0.00     0.080 A 
ENDBRANCH  21  22
ENDBRANCH  20  21
ENDBRANCH  19  20
ENDBRANCH   2  19
TORSDOF 6
ENDMDL
MODEL 3
REMARK VINA RESULT:      -8.1      1.386      1.606
REMARK  6 active torsions:
REMARK  status: ('A' for Active; 'I' for Inactive)
REMARK    1  A    between atoms: C_2  and  C_3 
REMARK    2  A    between atoms: C_13  and  C_14 
REMARK       I    between atoms: C_14  and  N_15 
REMARK    3  A    between atoms: N_15  and  C_16 
REMARK    4  A    between atoms: C_16  and  C_17 
REMARK    5  A    between atoms: C_17  and  C_18 
REMARK    6  A    between atoms: C_18  and  C_19 
ROOT
HETATM    1  C   UNL     1      42.133 -12.873   2.785  1.00  0.00     0.251 C 
HETATM    2  N   UNL     1      41.657 -12.537   1.535  1.00  0.00    -0.357 N 
HETATM    3  O   UNL     1      42.140 -12.102   3.738  1.00  0.00    -0.268 OA
HETATM    4  H   UNL     1      41.482 -13.265   0.858  1.00  0.00     0.162 HD
ENDROOT
BRANCH   1   5
HETATM    5  C   UNL     1      42.627 -14.268   2.965  1.00  0.00     0.032 A 
HETATM    6  C   UNL     1      42.878 -14.825   4.222  1.00  0.00     0.017 A 
HETATM    7  C   UNL     1      43.336 -16.145   4.327  1.00  0.00     0.008 A 
HETATM    8  C   UNL     1      43.541 -16.932   3.184  1.00  0.00    -0.052 A 
HETATM    9  C   UNL     1      43.272 -16.370   1.928  1.00  0.00     0.008 A 
HETATM   10  C   UNL     1      42.813 -15.053   1.821  1.00  0.00     0.017 A 
BRANCH   8  11
HETATM   11  C   UNL     1      44.067 -18.348   3.331  1.00  0.00     0.044 C 
HETATM   12  C   UNL     1      43.322 -19.298   2.381  1.00  0.00     0.241 C 
HETATM   13  N   UNL     1      43.859 -20.691   2.529  1.00  0.00    -0.074 N 
HETATM   14  H   UNL     1      44.838 -20.720   2.214  1.00  0.00     0.277 HD
HETATM   15  H   UNL     1      43.346 -21.314   1.891  1.00  0.00     0.277 HD
HETATM   16  C   UNL     1      43.764 -21.231   3.918  1.00  0.00     0.232 C 
HETATM   17  C   UNL     1      44.517 -20.312   4.868  1.00  0.00     0.028 C 
HETATM   18  C   UNL     1      44.013 -18.871   4.779  1.00  0.00     0.013 C 
ENDBRANCH   8  11
ENDBRANCH   1   5
BRANCH   2  19
HETATM   19  C   UNL     1      41.068 -11.237   1.271  1.00  0.00     0.123 C 
BRANCH  19  20
HETATM   20  C   UNL     1      40.614 -11.049  -0.175  1.00  0.00     0.026 C 
BRANCH  20  21
HETATM   21  C   UNL     1      41.009 -12.224  -1.069  1.00  0.00     0.061 C 
BRANCH  21  22
HETATM   22  C   UNL     1      39.819 -12.881  -1.689  1.00  0.00     0.044 A 
HETATM   23  N   UNL     1      39.816 -14.261  -1.817  1.00  0.00    -0.229 NA
HETATM   24  C   UNL     1      38.692 -14.665  -2.356  1.00  0.00     0.164 A 
HETATM   25  N   UNL     1      38.414 -15.955  -2.592  1.00  0.00    -0.378 N 
HETATM   26  S   UNL     1      37.586 -13.420  -2.772  1.00  0.00    -0.062 SA
HETATM   27  H   UNL     1      39.203 -16.589  -2.570  1.00  0.00     0.158 HD
HETATM   28  H   UNL     1      37.712 -16.175  -3.287  1.00  0.00     0.158 HD
HETATM   29  C   UNL     1      38.683 -12.254  -2.163  1.00  0.00     0.080 A 
ENDBRANCH  21  22
ENDBRANCH  20  21
ENDBRANCH  19  20
ENDBRANCH   2  19
TORSDOF 6
ENDMDL
MODEL 4
REMARK VINA RESULT:      -8.0      8.349     10.047
REMARK  6 active torsions:
REMARK  status: ('A' for Active; 'I' for Inactive)
REMARK    1  A    between atoms: C_2  and  C_3 
REMARK    2  A    between atoms: C_13  and  C_14 
REMARK       I    between atoms: C_14  and  N_15 
REMARK    3  A    between atoms: N_15  and  C_16 
REMARK    4  A    between atoms: C_16  and  C_17 
REMARK    5  A    between atoms: C_17  and  C_18 
REMARK    6  A    between atoms: C_18  and  C_19 
ROOT
HETATM    1  C   UNL     1      43.328 -11.554   6.694  1.00  0.00     0.251 C 
HETATM    2  N   UNL     1      43.525 -11.498   8.058  1.00  0.00    -0.357 N 
HETATM    3  O   UNL     1      43.242 -10.562   5.979  1.00  0.00    -0.268 OA
HETATM    4  H   UNL     1      43.795 -12.333   8.556  1.00  0.00     0.162 HD
ENDROOT
BRANCH   1   5
HETATM    5  C   UNL     1      43.253 -12.911   6.081  1.00  0.00     0.032 A 
HETATM    6  C   UNL     1      42.960 -13.114   4.730  1.00  0.00     0.017 A 
HETATM    7  C   UNL     1      42.910 -14.414   4.209  1.00  0.00     0.008 A 
HETATM    8  C   UNL     1      43.162 -15.529   5.023  1.00  0.00    -0.052 A 
HETATM    9  C   UNL     1      43.470 -15.314   6.374  1.00  0.00     0.008 A 
HETATM   10  C   UNL     1      43.521 -14.017   6.895  1.00  0.00     0.017 A 
BRANCH   8  11
HETATM   11  C   UNL     1      43.069 -16.925   4.435  1.00  0.00     0.044 C 
HETATM   12  C   UNL     1      44.200 -17.811   4.978  1.00  0.00     0.241 C 
HETATM   13  N   UNL     1      44.091 -19.189   4.398  1.00  0.00    -0.074 N 
HETATM   14  H   UNL     1      43.225 -19.638   4.729  1.00  0.00     0.277 HD
HETATM   15  H   UNL     1      44.858 -19.767   4.767  1.00  0.00     0.277 HD
HETATM   16  C   UNL     1      44.132 -19.222   2.905  1.00  0.00     0.232 C 
HETATM   17  C   UNL     1      43.003 -18.367   2.352  1.00  0.00     0.028 C 
HETATM   18  C   UNL     1      43.058 -16.938   2.894  1.00  0.00     0.013 C 
ENDBRANCH   8  11
ENDBRANCH   1   5
BRANCH   2  19
HETATM   19  C   UNL     1      43.703 -10.233   8.748  1.00  0.00     0.123 C 
BRANCH  19  20
HETATM   20  C   UNL     1      44.174 -10.379  10.192  1.00  0.00     0.026 C 
BRANCH  20  21
HETATM   21  C   UNL     1      44.053  -9.076  10.981  1.00  0.00     0.061 C 
BRANCH  21  22
HETATM   22  C   UNL     1      42.984  -9.147  12.023  1.00  0.00     0.044 A 
HETATM   23  N   UNL     1      41.946 -10.048  11.845  1.00  0.00    -0.229 NA
HETATM   24  C   UNL     1      41.118  -9.992  12.860  1.00  0.00     0.164 A 
HETATM   25  N   UNL     1      40.024 -10.761  12.955  1.00  0.00    -0.378 N 
HETATM   26  S   UNL     1      41.512  -8.839  14.068  1.00  0.00    -0.062 SA
HETATM   27  H   UNL     1      39.722 -11.210  12.100  1.00  0.00     0.158 HD
HETATM   28  H   UNL     1      39.273 -10.453  13.561  1.00  0.00     0.158 HD
HETATM   29  C   UNL     1      42.907  -8.398  13.180  1.00  0.00     0.080 A 
ENDBRANCH  21  22
ENDBRANCH  20  21
ENDBRANCH  19  20
ENDBRANCH   2  19
TORSDOF 6
ENDMDL
MODEL 5
REMARK VINA RESULT:      -8.0      2.658      4.074
REMARK  6 active torsions:
REMARK  status: ('A' for Active; 'I' for Inactive)
REMARK    1  A    between atoms: C_2  and  C_3 
REMARK    2  A    between atoms: C_13  and  C_14 
REMARK       I    between atoms: C_14  and  N_15 
REMARK    3  A    between atoms: N_15  and  C_16 
REMARK    4  A    between atoms: C_16  and  C_17 
REMARK    5  A    between atoms: C_17  and  C_18 
REMARK    6  A    between atoms: C_18  and  C_19 
ROOT
HETATM    1  C   UNL     1      40.775 -13.653   0.837  1.00  0.00     0.251 C 
HETATM    2  N   UNL     1      41.379 -12.876  -0.130  1.00  0.00    -0.357 N 
HETATM    3  O   UNL     1      39.646 -13.446   1.266  1.00  0.00    -0.268 OA
HETATM    4  H   UNL     1      42.212 -13.213  -0.591  1.00  0.00     0.162 HD
ENDROOT
BRANCH   1   5
HETATM    5  C   UNL     1      41.551 -14.821   1.343  1.00  0.00     0.032 A 
HETATM    6  C   UNL     1      42.948 -14.846   1.369  1.00  0.00     0.017 A 
HETATM    7  C   UNL     1      43.622 -15.970   1.863  1.00  0.00     0.008 A 
HETATM    8  C   UNL     1      42.915 -17.082   2.347  1.00  0.00    -0.052 A 
HETATM    9  C   UNL     1      41.513 -17.041   2.331  1.00  0.00     0.008 A 
HETATM   10  C   UNL     1      40.840 -15.919   1.840  1.00  0.00     0.017 A 
BRANCH   8  11
HETATM   11  C   UNL     1      43.675 -18.297   2.846  1.00  0.00     0.044 C 
HETATM   12  C   UNL     1      43.135 -19.575   2.188  1.00  0.00     0.241 C 
HETATM   13  N   UNL     1      43.902 -20.765   2.682  1.00  0.00    -0.074 N 
HETATM   14  H   UNL     1      44.880 -20.703   2.367  1.00  0.00     0.277 HD
HETATM   15  H   UNL     1      43.524 -21.612   2.236  1.00  0.00     0.277 HD
HETATM   16  C   UNL     1      43.863 -20.937   4.165  1.00  0.00     0.232 C 
HETATM   17  C   UNL     1      44.418 -19.687   4.830  1.00  0.00     0.028 C 
HETATM   18  C   UNL     1      43.672 -18.430   4.381  1.00  0.00     0.013 C 
ENDBRANCH   8  11
ENDBRANCH   1   5
BRANCH   2  19
HETATM   19  C   UNL     1      40.682 -11.769  -0.759  1.00  0.00     0.123 C 
BRANCH  19  20
HETATM   20  C   UNL     1      41.166 -10.396  -0.300  1.00  0.00     0.026 C 
BRANCH  20  21
HETATM   21  C   UNL     1      40.421  -9.898   0.938  1.00  0.00     0.061 C 
BRANCH  21  22
HETATM   22  C   UNL     1      41.188 -10.156   2.195  1.00  0.00     0.044 A 
HETATM   23  N   UNL     1      42.331 -10.937   2.126  1.00  0.00    -0.229 NA
HETATM   24  C   UNL     1      42.885 -11.038   3.308  1.00  0.00     0.164 A 
HETATM   25  N   UNL     1      44.010 -11.731   3.534  1.00  0.00    -0.378 N 
HETATM   26  S   UNL     1      42.057 -10.235   4.580  1.00  0.00    -0.062 SA
HETATM   27  H   UNL     1      44.282 -12.382   2.808  1.00  0.00     0.158 HD
HETATM   28  H   UNL     1      44.198 -12.046   4.478  1.00  0.00     0.158 HD
HETATM   29  C   UNL     1      40.882  -9.691   3.459  1.00  0.00     0.080 A 
ENDBRANCH  21  22
ENDBRANCH  20  21
ENDBRANCH  19  20
ENDBRANCH   2  19
TORSDOF 6
ENDMDL
MODEL 6
REMARK VINA RESULT:      -7.9      3.175      8.303
REMARK  6 active torsions:
REMARK  status: ('A' for Active; 'I' for Inactive)
REMARK    1  A    between atoms: C_2  and  C_3 
REMARK    2  A    between atoms: C_13  and  C_14 
REMARK       I    between atoms: C_14  and  N_15 
REMARK    3  A    between atoms: N_15  and  C_16 
REMARK    4  A    between atoms: C_16  and  C_17 
REMARK    5  A    between atoms: C_17  and  C_18 
REMARK    6  A    between atoms: C_18  and  C_19 
ROOT
HETATM    1  C   UNL     1      41.574 -15.277   4.476  1.00  0.00     0.251 C 
HETATM    2  N   UNL     1      42.769 -14.745   4.914  1.00  0.00    -0.357 N 
HETATM    3  O   UNL     1      40.853 -15.987   5.167  1.00  0.00    -0.268 OA
HETATM    4  H   UNL     1      43.209 -14.007   4.384  1.00  0.00     0.162 HD
ENDROOT
BRANCH   1   5
HETATM    5  C   UNL     1      41.146 -14.923   3.092  1.00  0.00     0.032 A 
HETATM    6  C   UNL     1      41.532 -13.736   2.463  1.00  0.00     0.017 A 
HETATM    7  C   UNL     1      41.103 -13.461   1.158  1.00  0.00     0.008 A 
HETATM    8  C   UNL     1      40.293 -14.368   0.457  1.00  0.00    -0.052 A 
HETATM    9  C   UNL     1      39.925 -15.564   1.091  1.00  0.00     0.008 A 
HETATM   10  C   UNL     1      40.353 -15.840   2.393  1.00  0.00     0.017 A 
BRANCH   8  11
HETATM   11  C   UNL     1      39.821 -14.026  -0.944  1.00  0.00     0.044 C 
HETATM   12  C   UNL     1      38.885 -12.809  -0.912  1.00  0.00     0.241 C 
HETATM   13  N   UNL     1      38.435 -12.475  -2.303  1.00  0.00    -0.074 N 
HETATM   14  H   UNL     1      39.242 -12.170  -2.865  1.00  0.00     0.277 HD
HETATM   15  H   UNL     1      37.805 -11.662  -2.262  1.00  0.00     0.277 HD
HETATM   16  C   UNL     1      37.737 -13.597  -2.998  1.00  0.00     0.232 C 
HETATM   17  C   UNL     1      38.661 -14.804  -3.059  1.00  0.00     0.028 C 
HETATM   18  C   UNL     1      39.152 -15.210  -1.668  1.00  0.00     0.013 C 
ENDBRANCH   8  11
ENDBRANCH   1   5
BRANCH   2  19
HETATM   19  C   UNL     1      43.238 -14.950   6.272  1.00  0.00     0.123 C 
BRANCH  19  20
HETATM   20  C   UNL     1      44.302 -16.037   6.399  1.00  0.00     0.026 C 
BRANCH  20  21
HETATM   21  C   UNL     1      43.697 -17.426   6.599  1.00  0.00     0.061 C 
BRANCH  21  22
HETATM   22  C   UNL     1      43.832 -18.277   5.378  1.00  0.00     0.044 A 
HETATM   23  N   UNL     1      43.927 -19.650   5.535  1.00  0.00    -0.229 NA
HETATM   24  C   UNL     1      44.015 -20.236   4.366  1.00  0.00     0.164 A 
HETATM   25  N   UNL     1      44.112 -21.566   4.218  1.00  0.00    -0.378 N 
HETATM   26  S   UNL     1      44.024 -19.181   3.013  1.00  0.00    -0.062 SA
HETATM   27  H   UNL     1      44.366 -22.086   5.048  1.00  0.00     0.158 HD
HETATM   28  H   UNL     1      44.501 -21.925   3.356  1.00  0.00     0.158 HD
HETATM   29  C   UNL     1      43.874 -17.841   4.068  1.00  0.00     0.080 A 
ENDBRANCH  21  22
ENDBRANCH  20  21
ENDBRANCH  19  20
ENDBRANCH   2  19
TORSDOF 6
ENDMDL
MODEL 7
REMARK VINA RESULT:      -7.8      2.788      3.888
REMARK  6 active torsions:
REMARK  status: ('A' for Active; 'I' for Inactive)
REMARK    1  A    between atoms: C_2  and  C_3 
REMARK    2  A    between atoms: C_13  and  C_14 
REMARK       I    between atoms: C_14  and  N_15 
REMARK    3  A    between atoms: N_15  and  C_16 
REMARK    4  A    between atoms: C_16  and  C_17 
REMARK    5  A    between atoms: C_17  and  C_18 
REMARK    6  A    between atoms: C_18  and  C_19 
ROOT
HETATM    1  C   UNL     1      42.150 -13.596   1.718  1.00  0.00     0.251 C 
HETATM    2  N   UNL     1      41.309 -13.641   0.626  1.00  0.00    -0.357 N 
HETATM    3  O   UNL     1      42.479 -12.557   2.279  1.00  0.00    -0.268 OA
HETATM    4  H   UNL     1      40.910 -14.524   0.342  1.00  0.00     0.162 HD
ENDROOT
BRANCH   1   5
HETATM    5  C   UNL     1      42.642 -14.902   2.243  1.00  0.00     0.032 A 
HETATM    6  C   UNL     1      42.891 -16.002   1.418  1.00  0.00     0.017 A 
HETATM    7  C   UNL     1      43.359 -17.202   1.969  1.00  0.00     0.008 A 
HETATM    8  C   UNL     1      43.596 -17.320   3.348  1.00  0.00    -0.052 A 
HETATM    9  C   UNL     1      43.358 -16.206   4.165  1.00  0.00     0.008 A 
HETATM   10  C   UNL     1      42.893 -15.007   3.616  1.00  0.00     0.017 A 
BRANCH   8  11
HETATM   11  C   UNL     1      44.074 -18.644   3.917  1.00  0.00     0.044 C 
HETATM   12  C   UNL     1      43.659 -19.803   2.999  1.00  0.00     0.241 C 
HETATM   13  N   UNL     1      44.146 -21.102   3.567  1.00  0.00    -0.074 N 
HETATM   14  H   UNL     1      45.175 -21.119   3.560  1.00  0.00     0.277 HD
HETATM   15  H   UNL     1      43.855 -21.868   2.943  1.00  0.00     0.277 HD
HETATM   16  C   UNL     1      43.649 -21.383   4.947  1.00  0.00     0.232 C 
HETATM   17  C   UNL     1      44.073 -20.254   5.873  1.00  0.00     0.028 C 
HETATM   18  C   UNL     1      43.598 -18.894   5.361  1.00  0.00     0.013 C 
ENDBRANCH   8  11
ENDBRANCH   1   5
BRANCH   2  19
HETATM   19  C   UNL     1      40.699 -12.439   0.088  1.00  0.00     0.123 C 
BRANCH  19  20
HETATM   20  C   UNL     1      39.175 -12.505   0.008  1.00  0.00     0.026 C 
BRANCH  20  21
HETATM   21  C   UNL     1      38.499 -11.432   0.862  1.00  0.00     0.061 C 
BRANCH  21  22
HETATM   22  C   UNL     1      38.934 -11.496   2.290  1.00  0.00     0.044 A 
HETATM   23  N   UNL     1      39.046 -12.738   2.894  1.00  0.00    -0.229 NA
HETATM   24  C   UNL     1      39.459 -12.607   4.130  1.00  0.00     0.164 A 
HETATM   25  N   UNL     1      39.661 -13.649   4.949  1.00  0.00    -0.378 N 
HETATM   26  S   UNL     1      39.705 -10.993   4.657  1.00  0.00    -0.062 SA
HETATM   27  H   UNL     1      39.246 -14.526   4.661  1.00  0.00     0.158 HD
HETATM   28  H   UNL     1      39.652 -13.483   5.948  1.00  0.00     0.158 HD
HETATM   29  C   UNL     1      39.250 -10.427   3.106  1.00  0.00     0.080 A 
ENDBRANCH  21  22
ENDBRANCH  20  21
ENDBRANCH  19  20
ENDBRANCH   2  19
TORSDOF 6
ENDMDL
MODEL 8
REMARK VINA RESULT:      -7.7      2.084      2.563
REMARK  6 active torsions:
REMARK  status: ('A' for Active; 'I' for Inactive)
REMARK    1  A    between atoms: C_2  and  C_3 
REMARK    2  A    between atoms: C_13  and  C_14 
REMARK       I    between atoms: C_14  and  N_15 
REMARK    3  A    between atoms: N_15  and  C_16 
REMARK    4  A    between atoms: C_16  and  C_17 
REMARK    5  A    between atoms: C_17  and  C_18 
REMARK    6  A    between atoms: C_18  and  C_19 
ROOT
HETATM    1  C   UNL     1      42.859 -12.310   2.638  1.00  0.00     0.251 C 
HETATM    2  N   UNL     1      41.753 -11.805   1.986  1.00  0.00    -0.357 N 
HETATM    3  O   UNL     1      43.758 -11.611   3.090  1.00  0.00    -0.268 OA
HETATM    4  H   UNL     1      40.955 -12.403   1.826  1.00  0.00     0.162 HD
ENDROOT
BRANCH   1   5
HETATM    5  C   UNL     1      42.918 -13.790   2.816  1.00  0.00     0.032 A 
HETATM    6  C   UNL     1      43.202 -14.666   1.765  1.00  0.00     0.017 A 
HETATM    7  C   UNL     1      43.250 -16.047   1.995  1.00  0.00     0.008 A 
HETATM    8  C   UNL     1      43.026 -16.574   3.277  1.00  0.00    -0.052 A 
HETATM    9  C   UNL     1      42.757 -15.685   4.327  1.00  0.00     0.008 A 
HETATM   10  C   UNL     1      42.710 -14.307   4.099  1.00  0.00     0.017 A 
BRANCH   8  11
HETATM   11  C   UNL     1      43.055 -18.077   3.486  1.00  0.00     0.044 C 
HETATM   12  C   UNL     1      44.151 -18.457   4.493  1.00  0.00     0.241 C 
HETATM   13  N   UNL     1      44.161 -19.942   4.699  1.00  0.00    -0.074 N 
HETATM   14  H   UNL     1      43.282 -20.237   5.146  1.00  0.00     0.277 HD
HETATM   15  H   UNL     1      44.904 -20.180   5.371  1.00  0.00     0.277 HD
HETATM   16  C   UNL     1      44.372 -20.725   3.445  1.00  0.00     0.232 C 
HETATM   17  C   UNL     1      43.280 -20.377   2.445  1.00  0.00     0.028 C 
HETATM   18  C   UNL     1      43.218 -18.872   2.177  1.00  0.00     0.013 C 
ENDBRANCH   8  11
ENDBRANCH   1   5
BRANCH   2  19
HETATM   19  C   UNL     1      41.547 -10.377   1.837  1.00  0.00     0.123 C 
BRANCH  19  20
HETATM   20  C   UNL     1      41.720  -9.875   0.405  1.00  0.00     0.026 C 
BRANCH  20  21
HETATM   21  C   UNL     1      40.398  -9.830  -0.361  1.00  0.00     0.061 C 
BRANCH  21  22
HETATM   22  C   UNL     1      40.147 -11.092  -1.121  1.00  0.00     0.044 A 
HETATM   23  N   UNL     1      38.923 -11.724  -0.970  1.00  0.00    -0.229 NA
HETATM   24  C   UNL     1      38.868 -12.794  -1.723  1.00  0.00     0.164 A 
HETATM   25  N   UNL     1      37.795 -13.596  -1.779  1.00  0.00    -0.378 N 
HETATM   26  S   UNL     1      40.286 -13.130  -2.630  1.00  0.00    -0.062 SA
HETATM   27  H   UNL     1      37.121 -13.487  -1.032  1.00  0.00     0.158 HD
HETATM   28  H   UNL     1      37.924 -14.549  -2.098  1.00  0.00     0.158 HD
HETATM   29  C   UNL     1      41.020 -11.723  -1.986  1.00  0.00     0.080 A 
ENDBRANCH  21  22
ENDBRANCH  20  21
ENDBRANCH  19  20
ENDBRANCH   2  19
TORSDOF 6
ENDMDL
MODEL 9
REMARK VINA RESULT:      -7.7     16.547     18.723
REMARK  6 active torsions:
REMARK  status: ('A' for Active; 'I' for Inactive)
REMARK    1  A    between atoms: C_2  and  C_3 
REMARK    2  A    between atoms: C_13  and  C_14 
REMARK       I    between atoms: C_14  and  N_15 
REMARK    3  A    between atoms: N_15  and  C_16 
REMARK    4  A    between atoms: C_16  and  C_17 
REMARK    5  A    between atoms: C_17  and  C_18 
REMARK    6  A    between atoms: C_18  and  C_19 
ROOT
HETATM    1  C   UNL     1      40.816  -7.530  16.735  1.00  0.00     0.251 C 
HETATM    2  N   UNL     1      41.313  -8.123  17.878  1.00  0.00    -0.357 N 
HETATM    3  O   UNL     1      39.860  -6.763  16.729  1.00  0.00    -0.268 OA
HETATM    4  H   UNL     1      42.218  -8.570  17.852  1.00  0.00     0.162 HD
ENDROOT
BRANCH   1   5
HETATM    5  C   UNL     1      41.524  -7.832  15.458  1.00  0.00     0.032 A 
HETATM    6  C   UNL     1      41.160  -8.892  14.625  1.00  0.00     0.017 A 
HETATM    7  C   UNL     1      41.860  -9.122  13.433  1.00  0.00     0.008 A 
HETATM    8  C   UNL     1      42.926  -8.293  13.049  1.00  0.00    -0.052 A 
HETATM    9  C   UNL     1      43.274  -7.222  13.885  1.00  0.00     0.008 A 
HETATM   10  C   UNL     1      42.576  -6.991  15.073  1.00  0.00     0.017 A 
BRANCH   8  11
HETATM   11  C   UNL     1      43.683  -8.588  11.767  1.00  0.00     0.044 C 
HETATM   12  C   UNL     1      43.116  -7.757  10.607  1.00  0.00     0.241 C 
HETATM   13  N   UNL     1      43.879  -8.050   9.350  1.00  0.00    -0.074 N 
HETATM   14  H   UNL     1      44.852  -7.728   9.451  1.00  0.00     0.277 HD
HETATM   15  H   UNL     1      43.483  -7.490   8.582  1.00  0.00     0.277 HD
HETATM   16  C   UNL     1      43.868  -9.491   8.957  1.00  0.00     0.232 C 
HETATM   17  C   UNL     1      44.448 -10.325  10.088  1.00  0.00     0.028 C 
HETATM   18  C   UNL     1      43.708 -10.086  11.405  1.00  0.00     0.013 C 
ENDBRANCH   8  11
ENDBRANCH   1   5
BRANCH   2  19
HETATM   19  C   UNL     1      40.759  -7.830  19.187  1.00  0.00     0.123 C 
BRANCH  19  20
HETATM   20  C   UNL     1      39.816  -8.909  19.712  1.00  0.00     0.026 C 
BRANCH  20  21
HETATM   21  C   UNL     1      40.026  -9.195  21.198  1.00  0.00     0.061 C 
BRANCH  21  22
HETATM   22  C   UNL     1      41.422  -9.642  21.491  1.00  0.00     0.044 A 
HETATM   23  N   UNL     1      41.879 -10.813  20.907  1.00  0.00    -0.229 NA
HETATM   24  C   UNL     1      43.122 -11.037  21.253  1.00  0.00     0.164 A 
HETATM   25  N   UNL     1      43.821 -12.100  20.827  1.00  0.00    -0.378 N 
HETATM   26  S   UNL     1      43.809  -9.884  22.322  1.00  0.00    -0.062 SA
HETATM   27  H   UNL     1      43.278 -12.856  20.429  1.00  0.00     0.158 HD
HETATM   28  H   UNL     1      44.625 -12.393  21.368  1.00  0.00     0.158 HD
HETATM   29  C   UNL     1      42.341  -9.004  22.302  1.00  0.00     0.080 A 
ENDBRANCH  21  22
ENDBRANCH  20  21
ENDBRANCH  19  20
ENDBRANCH   2  19
TORSDOF 6
ENDMDL
MODEL 10
REMARK VINA RESULT:      -7.5      8.272     10.211
REMARK  6 active torsions:
REMARK  status: ('A' for Active; 'I' for Inactive)
REMARK    1  A    between atoms: C_2  and  C_3 
REMARK    2  A    between atoms: C_13  and  C_14 
REMARK       I    between atoms: C_14  and  N_15 
REMARK    3  A    between atoms: N_15  and  C_16 
REMARK    4  A    between atoms: C_16  and  C_17 
REMARK    5  A    between atoms: C_17  and  C_18 
REMARK    6  A    between atoms: C_18  and  C_19 
ROOT
HETATM    1  C   UNL     1      44.573 -11.371   7.768  1.00  0.00     0.251 C 
HETATM    2  N   UNL     1      43.734 -11.109   8.831  1.00  0.00    -0.357 N 
HETATM    3  O   UNL     1      45.740 -11.001   7.718  1.00  0.00    -0.268 OA
HETATM    4  H   UNL     1      42.862 -11.612   8.912  1.00  0.00     0.162 HD
ENDROOT
BRANCH   1   5
HETATM    5  C   UNL     1      44.010 -12.180   6.649  1.00  0.00     0.032 A 
HETATM    6  C   UNL     1      43.874 -11.682   5.351  1.00  0.00     0.017 A 
HETATM    7  C   UNL     1      43.343 -12.493   4.339  1.00  0.00     0.008 A 
HETATM    8  C   UNL     1      42.949 -13.814   4.604  1.00  0.00    -0.052 A 
HETATM    9  C   UNL     1      43.104 -14.309   5.907  1.00  0.00     0.008 A 
HETATM   10  C   UNL     1      43.635 -13.502   6.917  1.00  0.00     0.017 A 
BRANCH   8  11
HETATM   11  C   UNL     1      42.349 -14.656   3.493  1.00  0.00     0.044 C 
HETATM   12  C   UNL     1      42.750 -14.095   2.120  1.00  0.00     0.241 C 
HETATM   13  N   UNL     1      42.160 -14.942   1.032  1.00  0.00    -0.074 N 
HETATM   14  H   UNL     1      42.575 -15.884   1.061  1.00  0.00     0.277 HD
HETATM   15  H   UNL     1      42.433 -14.550   0.121  1.00  0.00     0.277 HD
HETATM   16  C   UNL     1      40.672 -15.049   1.089  1.00  0.00     0.232 C 
HETATM   17  C   UNL     1      40.260 -15.625   2.436  1.00  0.00     0.028 C 
HETATM   18  C   UNL     1      40.819 -14.802   3.597  1.00  0.00     0.013 C 
ENDBRANCH   8  11
ENDBRANCH   1   5
BRANCH   2  19
HETATM   19  C   UNL     1      44.203 -10.409  10.013  1.00  0.00     0.123 C 
BRANCH  19  20
HETATM   20  C   UNL     1      43.697  -8.972  10.119  1.00  0.00     0.026 C 
BRANCH  20  21
HETATM   21  C   UNL     1      43.207  -8.628  11.525  1.00  0.00     0.061 C 
BRANCH  21  22
HETATM   22  C   UNL     1      41.875  -9.238  11.820  1.00  0.00     0.044 A 
HETATM   23  N   UNL     1      40.954  -9.348  10.790  1.00  0.00    -0.229 NA
HETATM   24  C   UNL     1      39.859  -9.924  11.219  1.00  0.00     0.164 A 
HETATM   25  N   UNL     1      38.800 -10.164  10.433  1.00  0.00    -0.378 N 
HETATM   26  S   UNL     1      39.849 -10.339  12.885  1.00  0.00    -0.062 SA
HETATM   27  H   UNL     1      38.777  -9.660   9.555  1.00  0.00     0.158 HD
HETATM   28  H   UNL     1      37.896 -10.293  10.871  1.00  0.00     0.158 HD
HETATM   29  C   UNL     1      41.440  -9.724  13.037  1.00  0.00     0.080 A 
ENDBRANCH  21  22
ENDBRANCH  20  21
ENDBRANCH  19  20
ENDBRANCH   2  19
TORSDOF 6
ENDMDL
