MODEL 1
REMARK VINA RESULT:      -8.7      0.000      0.000
REMARK  8 active torsions:
REMARK  status: ('A' for Active; 'I' for Inactive)
REMARK    1  A    between atoms: C_2  and  N_3 
REMARK       I    between atoms: N_3  and  C_4 
REMARK       I    between atoms: C_4  and  N_5 
REMARK    2  A    between atoms: N_8  and  C_9 
REMARK    3  A    between atoms: C_11  and  C_12 
REMARK    4  A    between atoms: C_19  and  C_20 
REMARK    5  A    between atoms: C_20  and  O_21 
REMARK    6  A    between atoms: C_23  and  C_24 
REMARK    7  A    between atoms: C_24  and  C_25 
REMARK    8  A    between atoms: C_27  and  O_28 
ROOT
HETATM    1  C   UNL     1      41.956 -13.299   4.688  1.00  0.00     0.137 A 
HETATM    2  N   UNL     1      42.650 -12.276   5.225  1.00  0.00    -0.210 NA
HETATM    3  C   UNL     1      43.167 -12.435   6.458  1.00  0.00     0.162 A 
HETATM    4  N   UNL     1      42.999 -13.532   7.210  1.00  0.00    -0.230 NA
HETATM    5  C   UNL     1      42.330 -14.568   6.666  1.00  0.00     0.071 A 
HETATM    6  C   UNL     1      41.790 -14.509   5.377  1.00  0.00     0.019 A 
ENDROOT
BRANCH   1   7
HETATM    7  N   UNL     1      41.490 -13.140   3.384  1.00  0.00    -0.362 N 
HETATM    8  C   UNL     1      40.038 -12.943   3.159  1.00  0.00     0.144 C 
HETATM    9  C   UNL     1      39.686 -11.530   2.658  1.00  0.00     0.147 C 
HETATM   10  N   UNL     1      40.559 -11.144   1.552  1.00  0.00    -0.331 N 
HETATM   11  C   UNL     1      40.051 -11.198   0.267  1.00  0.00     0.318 C 
HETATM   12  C   UNL     1      41.968 -11.128   1.957  1.00  0.00     0.147 C 
HETATM   13  N   UNL     1      40.967 -11.040  -0.741  1.00  0.00    -0.339 N 
HETATM   14  O   UNL     1      38.854 -11.356   0.043  1.00  0.00    -0.247 OA
HETATM   15  H   UNL     1      41.900 -11.352  -0.541  1.00  0.00     0.164 HD
HETATM   16  C   UNL     1      42.404 -12.539   2.390  1.00  0.00     0.144 C 
BRANCH  13  17
HETATM   17  C   UNL     1      40.621 -11.016  -2.161  1.00  0.00     0.078 C 
HETATM   18  C   UNL     1      41.214 -12.190  -2.938  1.00  0.00     0.032 C 
HETATM   19  C   UNL     1      40.953  -9.680  -2.822  1.00  0.00     0.032 C 
ENDBRANCH  13  17
ENDBRANCH   1   7
BRANCH   6  20
HETATM   20  C   UNL     1      41.172 -15.729   4.735  1.00  0.00     0.083 C 
BRANCH  20  21
HETATM   21  C   UNL     1      42.068 -16.658   3.932  1.00  0.00    -0.051 A 
HETATM   22  C   UNL     1      42.939 -17.499   4.652  1.00  0.00     0.044 A 
HETATM   23  C   UNL     1      43.804 -18.377   3.995  1.00  0.00     0.068 A 
HETATM   24  C   UNL     1      43.784 -18.436   2.603  1.00  0.00     0.037 A 
HETATM   25  C   UNL     1      42.930 -17.612   1.871  1.00  0.00     0.003 A 
HETATM   26  C   UNL     1      42.081 -16.723   2.531  1.00  0.00     0.007 A 
BRANCH  23  27
HETATM   27  O   UNL     1      44.695 -19.222   4.598  1.00  0.00    -0.356 OA
HETATM   28  C   UNL     1      44.167 -20.429   5.133  1.00  0.00     0.210 C 
ENDBRANCH  23  27
ENDBRANCH  20  21
ENDBRANCH   6  20
BRANCH   3  29
HETATM   29  C   UNL     1      44.035 -11.371   7.008  1.00  0.00     0.012 A 
HETATM   30  C   UNL     1      45.439 -11.449   6.943  1.00  0.00     0.015 A 
HETATM   31  C   UNL     1      46.253 -10.452   7.496  1.00  0.00     0.001 A 
HETATM   32  C   UNL     1      45.682  -9.354   8.134  1.00  0.00     0.000 A 
HETATM   33  C   UNL     1      44.298  -9.246   8.210  1.00  0.00     0.001 A 
HETATM   34  C   UNL     1      43.488 -10.241   7.654  1.00  0.00     0.015 A 
ENDBRANCH   3  29
BRANCH   5  35
HETATM   35  C   UNL     1      42.241 -15.800   7.543  1.00  0.00     0.226 C 
BRANCH  35  36
HETATM   36  O   UNL     1      43.402 -15.919   8.367  1.00  0.00    -0.390 OA
HETATM   37  C   UNL     1      44.251 -16.964   7.914  1.00  0.00     0.201 C 
ENDBRANCH  35  36
ENDBRANCH   5  35
TORSDOF 8
ENDMDL
MODEL 2
REMARK VINA RESULT:      -8.4      2.235      7.130
REMARK  8 active torsions:
REMARK  status: ('A' for Active; 'I' for Inactive)
REMARK    1  A    between atoms: C_2  and  N_3 
REMARK       I    between atoms: N_3  and  C_4 
REMARK       I    between atoms: C_4  and  N_5 
REMARK    2  A    between atoms: N_8  and  C_9 
REMARK    3  A    between atoms: C_11  and  C_12 
REMARK    4  A    between atoms: C_19  and  C_20 
REMARK    5  A    between atoms: C_20  and  O_21 
REMARK    6  A    between atoms: C_23  and  C_24 
REMARK    7  A    between atoms: C_24  and  C_25 
REMARK    8  A    between atoms: C_27  and  O_28 
ROOT
HETATM    1  C   UNL     1      41.700 -12.290   3.221  1.00  0.00     0.137 A 
HETATM    2  N   UNL     1      41.819 -11.148   2.515  1.00  0.00    -0.210 NA
HETATM    3  C   UNL     1      41.352 -11.128   1.252  1.00  0.00     0.162 A 
HETATM    4  N   UNL     1      40.815 -12.187   0.630  1.00  0.00    -0.230 NA
HETATM    5  C   UNL     1      40.668 -13.323   1.341  1.00  0.00     0.071 A 
HETATM    6  C   UNL     1      41.088 -13.426   2.670  1.00  0.00     0.019 A 
ENDROOT
BRANCH   1   7
HETATM    7  N   UNL     1      42.124 -12.268   4.548  1.00  0.00    -0.362 N 
HETATM    8  C   UNL     1      43.516 -12.671   4.864  1.00  0.00     0.144 C 
HETATM    9  C   UNL     1      44.392 -11.501   5.349  1.00  0.00     0.147 C 
HETATM   10  N   UNL     1      43.701 -10.736   6.384  1.00  0.00    -0.331 N 
HETATM   11  C   UNL     1      44.077 -10.927   7.701  1.00  0.00     0.318 C 
HETATM   12  C   UNL     1      42.444 -10.166   5.885  1.00  0.00     0.147 C 
HETATM   13  N   UNL     1      43.258 -10.356   8.641  1.00  0.00    -0.339 N 
HETATM   14  O   UNL     1      45.090 -11.548   8.008  1.00  0.00    -0.247 OA
HETATM   15  H   UNL     1      42.290 -10.270   8.388  1.00  0.00     0.164 HD
HETATM   16  C   UNL     1      41.490 -11.297   5.463  1.00  0.00     0.144 C 
BRANCH  13  17
HETATM   17  C   UNL     1      43.512 -10.403  10.080  1.00  0.00     0.078 C 
HETATM   18  C   UNL     1      42.336  -9.888  10.909  1.00  0.00     0.032 C 
HETATM   19  C   UNL     1      44.817  -9.712  10.467  1.00  0.00     0.032 C 
ENDBRANCH  13  17
ENDBRANCH   1   7
BRANCH   6  20
HETATM   20  C   UNL     1      40.783 -14.659   3.490  1.00  0.00     0.083 C 
BRANCH  20  21
HETATM   21  C   UNL     1      41.820 -15.768   3.546  1.00  0.00    -0.051 A 
HETATM   22  C   UNL     1      42.204 -16.231   4.819  1.00  0.00     0.044 A 
HETATM   23  C   UNL     1      43.158 -17.240   4.964  1.00  0.00     0.068 A 
HETATM   24  C   UNL     1      43.719 -17.814   3.825  1.00  0.00     0.037 A 
HETATM   25  C   UNL     1      43.354 -17.370   2.555  1.00  0.00     0.003 A 
HETATM   26  C   UNL     1      42.414 -16.348   2.416  1.00  0.00     0.007 A 
BRANCH  23  27
HETATM   27  O   UNL     1      43.609 -17.750   6.151  1.00  0.00    -0.356 OA
HETATM   28  C   UNL     1      43.681 -16.846   7.247  1.00  0.00     0.210 C 
ENDBRANCH  23  27
ENDBRANCH  20  21
ENDBRANCH   6  20
BRANCH   3  29
HETATM   29  C   UNL     1      41.362  -9.848   0.510  1.00  0.00     0.012 A 
HETATM   30  C   UNL     1      41.918  -9.739  -0.778  1.00  0.00     0.015 A 
HETATM   31  C   UNL     1      41.952  -8.514  -1.458  1.00  0.00     0.001 A 
HETATM   32  C   UNL     1      41.435  -7.367  -0.863  1.00  0.00     0.000 A 
HETATM   33  C   UNL     1      40.874  -7.443   0.407  1.00  0.00     0.001 A 
HETATM   34  C   UNL     1      40.838  -8.667   1.082  1.00  0.00     0.015 A 
ENDBRANCH   3  29
BRANCH   5  35
HETATM   35  C   UNL     1      39.989 -14.455   0.598  1.00  0.00     0.226 C 
BRANCH  35  36
HETATM   36  O   UNL     1      40.303 -14.406  -0.795  1.00  0.00    -0.390 OA
HETATM   37  C   UNL     1      39.128 -14.467  -1.591  1.00  0.00     0.201 C 
ENDBRANCH  35  36
ENDBRANCH   5  35
TORSDOF 8
ENDMDL
MODEL 3
REMARK VINA RESULT:      -8.3      2.210      7.548
REMARK  8 active torsions:
REMARK  status: ('A' for Active; 'I' for Inactive)
REMARK    1  A    between atoms: C_2  and  N_3 
REMARK       I    between atoms: N_3  and  C_4 
REMARK       I    between atoms: C_4  and  N_5 
REMARK    2  A    between atoms: N_8  and  C_9 
REMARK    3  A    between atoms: C_11  and  C_12 
REMARK    4  A    between atoms: C_19  and  C_20 
REMARK    5  A    between atoms: C_20  and  O_21 
REMARK    6  A    between atoms: C_23  and  C_24 
REMARK    7  A    between atoms: C_24  and  C_25 
REMARK    8  A    between atoms: C_27  and  O_28 
ROOT
HETATM    1  C   UNL     1      41.068 -12.285   1.287  1.00  0.00     0.137 A 
HETATM    2  N   UNL     1      41.372 -11.266   0.461  1.00  0.00    -0.210 NA
HETATM    3  C   UNL     1      41.075 -11.395  -0.847  1.00  0.00     0.162 A 
HETATM    4  N   UNL     1      40.535 -12.493  -1.393  1.00  0.00    -0.230 NA
HETATM    5  C   UNL     1      40.203 -13.505  -0.565  1.00  0.00     0.071 A 
HETATM    6  C   UNL     1      40.438 -13.446   0.812  1.00  0.00     0.019 A 
ENDROOT
BRANCH   1   7
HETATM    7  N   UNL     1      41.318 -12.103   2.645  1.00  0.00    -0.362 N 
HETATM    8  C   UNL     1      42.627 -12.528   3.198  1.00  0.00     0.144 C 
HETATM    9  C   UNL     1      43.511 -11.348   3.643  1.00  0.00     0.147 C 
HETATM   10  N   UNL     1      42.746 -10.415   4.467  1.00  0.00    -0.331 N 
HETATM   11  C   UNL     1      42.935 -10.442   5.837  1.00  0.00     0.318 C 
HETATM   12  C   UNL     1      41.606  -9.857   3.732  1.00  0.00     0.147 C 
HETATM   13  N   UNL     1      42.044  -9.708   6.574  1.00  0.00    -0.339 N 
HETATM   14  O   UNL     1      43.857 -11.066   6.356  1.00  0.00    -0.247 OA
HETATM   15  H   UNL     1      41.124  -9.609   6.182  1.00  0.00     0.164 HD
HETATM   16  C   UNL     1      40.639 -10.985   3.332  1.00  0.00     0.144 C 
BRANCH  13  17
HETATM   17  C   UNL     1      42.106  -9.570   8.027  1.00  0.00     0.078 C 
HETATM   18  C   UNL     1      40.741  -9.306   8.661  1.00  0.00     0.032 C 
HETATM   19  C   UNL     1      43.140  -8.539   8.474  1.00  0.00     0.032 C 
ENDBRANCH  13  17
ENDBRANCH   1   7
BRANCH   6  20
HETATM   20  C   UNL     1      39.927 -14.526   1.736  1.00  0.00     0.083 C 
BRANCH  20  21
HETATM   21  C   UNL     1      40.936 -15.444   2.406  1.00  0.00    -0.051 A 
HETATM   22  C   UNL     1      40.771 -15.692   3.783  1.00  0.00     0.044 A 
HETATM   23  C   UNL     1      41.656 -16.516   4.481  1.00  0.00     0.068 A 
HETATM   24  C   UNL     1      42.708 -17.120   3.794  1.00  0.00     0.037 A 
HETATM   25  C   UNL     1      42.890 -16.886   2.432  1.00  0.00     0.003 A 
HETATM   26  C   UNL     1      42.014 -16.048   1.742  1.00  0.00     0.007 A 
BRANCH  23  27
HETATM   27  O   UNL     1      41.593 -16.809   5.816  1.00  0.00    -0.356 OA
HETATM   28  C   UNL     1      41.479 -15.706   6.706  1.00  0.00     0.210 C 
ENDBRANCH  23  27
ENDBRANCH  20  21
ENDBRANCH   6  20
BRANCH   3  29
HETATM   29  C   UNL     1      41.288 -10.236  -1.742  1.00  0.00     0.012 A 
HETATM   30  C   UNL     1      40.718 -10.175  -3.028  1.00  0.00     0.015 A 
HETATM   31  C   UNL     1      40.953  -9.088  -3.880  1.00  0.00     0.001 A 
HETATM   32  C   UNL     1      41.769  -8.038  -3.470  1.00  0.00     0.000 A 
HETATM   33  C   UNL     1      42.343  -8.066  -2.203  1.00  0.00     0.001 A 
HETATM   34  C   UNL     1      42.104  -9.151  -1.353  1.00  0.00     0.015 A 
ENDBRANCH   3  29
BRANCH   5  35
HETATM   35  C   UNL     1      39.532 -14.684  -1.239  1.00  0.00     0.226 C 
BRANCH  35  36
HETATM   36  O   UNL     1      39.600 -14.559  -2.661  1.00  0.00    -0.390 OA
HETATM   37  C   UNL     1      38.335 -14.804  -3.261  1.00  0.00     0.201 C 
ENDBRANCH  35  36
ENDBRANCH   5  35
TORSDOF 8
ENDMDL
MODEL 4
REMARK VINA RESULT:      -8.2      2.287      6.189
REMARK  8 active torsions:
REMARK  status: ('A' for Active; 'I' for Inactive)
REMARK    1  A    between atoms: C_2  and  N_3 
REMARK       I    between atoms: N_3  and  C_4 
REMARK       I    between atoms: C_4  and  N_5 
REMARK    2  A    between atoms: N_8  and  C_9 
REMARK    3  A    between atoms: C_11  and  C_12 
REMARK    4  A    between atoms: C_19  and  C_20 
REMARK    5  A    between atoms: C_20  and  O_21 
REMARK    6  A    between atoms: C_23  and  C_24 
REMARK    7  A    between atoms: C_24  and  C_25 
REMARK    8  A    between atoms: C_27  and  O_28 
ROOT
HETATM    1  C   UNL     1      41.419 -15.272   3.764  1.00  0.00     0.137 A 
HETATM    2  N   UNL     1      42.011 -16.371   3.256  1.00  0.00    -0.210 NA
HETATM    3  C   UNL     1      42.579 -17.242   4.113  1.00  0.00     0.162 A 
HETATM    4  N   UNL     1      42.634 -17.067   5.441  1.00  0.00    -0.230 NA
HETATM    5  C   UNL     1      42.019 -15.983   5.955  1.00  0.00     0.071 A 
HETATM    6  C   UNL     1      41.371 -15.044   5.147  1.00  0.00     0.019 A 
ENDROOT
BRANCH   1   7
HETATM    7  N   UNL     1      40.777 -14.421   2.867  1.00  0.00    -0.362 N 
HETATM    8  C   UNL     1      41.533 -13.283   2.290  1.00  0.00     0.144 C 
HETATM    9  C   UNL     1      41.810 -13.438   0.784  1.00  0.00     0.147 C 
HETATM   10  N   UNL     1      40.592 -13.817   0.073  1.00  0.00    -0.331 N 
HETATM   11  C   UNL     1      39.922 -12.844  -0.646  1.00  0.00     0.318 C 
HETATM   12  C   UNL     1      40.062 -15.097   0.556  1.00  0.00     0.147 C 
HETATM   13  N   UNL     1      38.681 -13.195  -1.107  1.00  0.00    -0.339 N 
HETATM   14  O   UNL     1      40.417 -11.743  -0.873  1.00  0.00    -0.247 OA
HETATM   15  H   UNL     1      38.178 -13.866  -0.553  1.00  0.00     0.164 HD
HETATM   16  C   UNL     1      39.685 -14.978   2.043  1.00  0.00     0.144 C 
BRANCH  13  17
HETATM   17  C   UNL     1      37.839 -12.325  -1.927  1.00  0.00     0.078 C 
HETATM   18  C   UNL     1      37.106 -11.262  -1.109  1.00  0.00     0.032 C 
HETATM   19  C   UNL     1      36.878 -13.109  -2.817  1.00  0.00     0.032 C 
ENDBRANCH  13  17
ENDBRANCH   1   7
BRANCH   6  20
HETATM   20  C   UNL     1      40.566 -13.918   5.754  1.00  0.00     0.083 C 
BRANCH  20  21
HETATM   21  C   UNL     1      41.236 -12.568   5.944  1.00  0.00    -0.051 A 
HETATM   22  C   UNL     1      42.643 -12.528   5.877  1.00  0.00     0.044 A 
HETATM   23  C   UNL     1      43.342 -11.332   6.049  1.00  0.00     0.068 A 
HETATM   24  C   UNL     1      42.631 -10.154   6.268  1.00  0.00     0.037 A 
HETATM   25  C   UNL     1      41.238 -10.171   6.340  1.00  0.00     0.003 A 
HETATM   26  C   UNL     1      40.545 -11.371   6.185  1.00  0.00     0.007 A 
BRANCH  23  27
HETATM   27  O   UNL     1      44.702 -11.189   6.017  1.00  0.00    -0.356 OA
HETATM   28  C   UNL     1      45.350 -10.969   7.263  1.00  0.00     0.210 C 
ENDBRANCH  23  27
ENDBRANCH  20  21
ENDBRANCH   6  20
BRANCH   3  29
HETATM   29  C   UNL     1      43.120 -18.512   3.581  1.00  0.00     0.012 A 
HETATM   30  C   UNL     1      42.983 -18.870   2.227  1.00  0.00     0.015 A 
HETATM   31  C   UNL     1      43.471 -20.090   1.740  1.00  0.00     0.001 A 
HETATM   32  C   UNL     1      44.102 -20.986   2.598  1.00  0.00     0.000 A 
HETATM   33  C   UNL     1      44.257 -20.659   3.941  1.00  0.00     0.001 A 
HETATM   34  C   UNL     1      43.773 -19.439   4.423  1.00  0.00     0.015 A 
ENDBRANCH   3  29
BRANCH   5  35
HETATM   35  C   UNL     1      42.059 -15.886   7.466  1.00  0.00     0.226 C 
BRANCH  35  36
HETATM   36  O   UNL     1      43.360 -15.501   7.914  1.00  0.00    -0.390 OA
HETATM   37  C   UNL     1      44.127 -16.633   8.303  1.00  0.00     0.201 C 
ENDBRANCH  35  36
ENDBRANCH   5  35
TORSDOF 8
ENDMDL
MODEL 5
REMARK VINA RESULT:      -8.1      2.682      8.365
REMARK  8 active torsions:
REMARK  status: ('A' for Active; 'I' for Inactive)
REMARK    1  A    between atoms: C_2  and  N_3 
REMARK       I    between atoms: N_3  and  C_4 
REMARK       I    between atoms: C_4  and  N_5 
REMARK    2  A    between atoms: N_8  and  C_9 
REMARK    3  A    between atoms: C_11  and  C_12 
REMARK    4  A    between atoms: C_19  and  C_20 
REMARK    5  A    between atoms: C_20  and  O_21 
REMARK    6  A    between atoms: C_23  and  C_24 
REMARK    7  A    between atoms: C_24  and  C_25 
REMARK    8  A    between atoms: C_27  and  O_28 
ROOT
HETATM    1  C   UNL     1      42.437 -13.327   3.782  1.00  0.00     0.137 A 
HETATM    2  N   UNL     1      42.744 -14.626   3.966  1.00  0.00    -0.210 NA
HETATM    3  C   UNL     1      42.567 -15.474   2.935  1.00  0.00     0.162 A 
HETATM    4  N   UNL     1      42.061 -15.120   1.745  1.00  0.00    -0.230 NA
HETATM    5  C   UNL     1      41.779 -13.817   1.548  1.00  0.00     0.071 A 
HETATM    6  C   UNL     1      41.966 -12.857   2.547  1.00  0.00     0.019 A 
ENDROOT
BRANCH   1   7
HETATM    7  N   UNL     1      42.693 -12.454   4.838  1.00  0.00    -0.362 N 
HETATM    8  C   UNL     1      42.362 -12.881   6.219  1.00  0.00     0.144 C 
HETATM    9  C   UNL     1      43.605 -13.115   7.098  1.00  0.00     0.147 C 
HETATM   10  N   UNL     1      44.534 -11.994   6.984  1.00  0.00    -0.331 N 
HETATM   11  C   UNL     1      44.579 -11.073   8.015  1.00  0.00     0.318 C 
HETATM   12  C   UNL     1      44.999 -11.816   5.604  1.00  0.00     0.147 C 
HETATM   13  N   UNL     1      45.299  -9.935   7.763  1.00  0.00    -0.339 N 
HETATM   14  O   UNL     1      44.028 -11.273   9.094  1.00  0.00    -0.247 OA
HETATM   15  H   UNL     1      45.333  -9.638   6.804  1.00  0.00     0.164 HD
HETATM   16  C   UNL     1      43.805 -11.493   4.689  1.00  0.00     0.144 C 
BRANCH  13  17
HETATM   17  C   UNL     1      45.507  -8.868   8.741  1.00  0.00     0.078 C 
HETATM   18  C   UNL     1      45.822  -9.395  10.140  1.00  0.00     0.032 C 
HETATM   19  C   UNL     1      44.358  -7.863   8.764  1.00  0.00     0.032 C 
ENDBRANCH  13  17
ENDBRANCH   1   7
BRANCH   6  20
HETATM   20  C   UNL     1      41.782 -11.385   2.258  1.00  0.00     0.083 C 
BRANCH  20  21
HETATM   21  C   UNL     1      40.403 -10.775   2.450  1.00  0.00    -0.051 A 
HETATM   22  C   UNL     1      39.928 -10.654   3.771  1.00  0.00     0.044 A 
HETATM   23  C   UNL     1      38.669 -10.113   4.040  1.00  0.00     0.068 A 
HETATM   24  C   UNL     1      37.881  -9.665   2.981  1.00  0.00     0.037 A 
HETATM   25  C   UNL     1      38.332  -9.778   1.667  1.00  0.00     0.003 A 
HETATM   26  C   UNL     1      39.583 -10.335   1.401  1.00  0.00     0.007 A 
BRANCH  23  27
HETATM   27  O   UNL     1      38.111  -9.965   5.280  1.00  0.00    -0.356 OA
HETATM   28  C   UNL     1      38.732 -10.669   6.347  1.00  0.00     0.210 C 
ENDBRANCH  23  27
ENDBRANCH  20  21
ENDBRANCH   6  20
BRANCH   3  29
HETATM   29  C   UNL     1      43.017 -16.876   3.082  1.00  0.00     0.012 A 
HETATM   30  C   UNL     1      43.761 -17.305   4.197  1.00  0.00     0.015 A 
HETATM   31  C   UNL     1      44.211 -18.627   4.311  1.00  0.00     0.001 A 
HETATM   32  C   UNL     1      43.933 -19.551   3.309  1.00  0.00     0.000 A 
HETATM   33  C   UNL     1      43.196 -19.160   2.196  1.00  0.00     0.001 A 
HETATM   34  C   UNL     1      42.745 -17.840   2.087  1.00  0.00     0.015 A 
ENDBRANCH   3  29
BRANCH   5  35
HETATM   35  C   UNL     1      41.280 -13.477   0.158  1.00  0.00     0.226 C 
BRANCH  35  36
HETATM   36  O   UNL     1      39.910 -13.853   0.007  1.00  0.00    -0.390 OA
HETATM   37  C   UNL     1      39.591 -14.103  -1.354  1.00  0.00     0.201 C 
ENDBRANCH  35  36
ENDBRANCH   5  35
TORSDOF 8
ENDMDL
MODEL 6
REMARK VINA RESULT:      -7.9      3.030      8.151
REMARK  8 active torsions:
REMARK  status: ('A' for Active; 'I' for Inactive)
REMARK    1  A    between atoms: C_2  and  N_3 
REMARK       I    between atoms: N_3  and  C_4 
REMARK       I    between atoms: C_4  and  N_5 
REMARK    2  A    between atoms: N_8  and  C_9 
REMARK    3  A    between atoms: C_11  and  C_12 
REMARK    4  A    between atoms: C_19  and  C_20 
REMARK    5  A    between atoms: C_20  and  O_21 
REMARK    6  A    between atoms: C_23  and  C_24 
REMARK    7  A    between atoms: C_24  and  C_25 
REMARK    8  A    between atoms: C_27  and  O_28 
ROOT
HETATM    1  C   UNL     1      40.544 -13.264   2.900  1.00  0.00     0.137 A 
HETATM    2  N   UNL     1      41.325 -14.266   3.350  1.00  0.00    -0.210 NA
HETATM    3  C   UNL     1      41.490 -15.347   2.564  1.00  0.00     0.162 A 
HETATM    4  N   UNL     1      40.891 -15.515   1.377  1.00  0.00    -0.230 NA
HETATM    5  C   UNL     1      40.131 -14.504   0.911  1.00  0.00     0.071 A 
HETATM    6  C   UNL     1      39.932 -13.327   1.639  1.00  0.00     0.019 A 
ENDROOT
BRANCH   1   7
HETATM    7  N   UNL     1      40.443 -12.126   3.696  1.00  0.00    -0.362 N 
HETATM    8  C   UNL     1      39.510 -12.136   4.850  1.00  0.00     0.144 C 
HETATM    9  C   UNL     1      40.228 -12.110   6.212  1.00  0.00     0.147 C 
HETATM   10  N   UNL     1      41.255 -11.071   6.233  1.00  0.00    -0.331 N 
HETATM   11  C   UNL     1      40.980  -9.893   6.903  1.00  0.00     0.318 C 
HETATM   12  C   UNL     1      42.274 -11.299   5.204  1.00  0.00     0.147 C 
HETATM   13  N   UNL     1      41.879  -8.877   6.709  1.00  0.00    -0.339 N 
HETATM   14  O   UNL     1      40.006  -9.772   7.642  1.00  0.00    -0.247 OA
HETATM   15  H   UNL     1      42.350  -8.869   5.822  1.00  0.00     0.164 HD
HETATM   16  C   UNL     1      41.628 -11.250   3.809  1.00  0.00     0.144 C 
BRANCH  13  17
HETATM   17  C   UNL     1      41.792  -7.574   7.367  1.00  0.00     0.078 C 
HETATM   18  C   UNL     1      41.763  -6.408   6.380  1.00  0.00     0.032 C 
HETATM   19  C   UNL     1      42.870  -7.382   8.431  1.00  0.00     0.032 C 
ENDBRANCH  13  17
ENDBRANCH   1   7
BRANCH   6  20
HETATM   20  C   UNL     1      39.199 -12.152   1.035  1.00  0.00     0.083 C 
BRANCH  20  21
HETATM   21  C   UNL     1      39.943 -11.256   0.059  1.00  0.00    -0.051 A 
HETATM   22  C   UNL     1      39.293 -10.933  -1.148  1.00  0.00     0.044 A 
HETATM   23  C   UNL     1      39.907 -10.124  -2.106  1.00  0.00     0.068 A 
HETATM   24  C   UNL     1      41.176  -9.609  -1.849  1.00  0.00     0.037 A 
HETATM   25  C   UNL     1      41.838  -9.917  -0.661  1.00  0.00     0.003 A 
HETATM   26  C   UNL     1      41.228 -10.741   0.286  1.00  0.00     0.007 A 
BRANCH  23  27
HETATM   27  O   UNL     1      39.370  -9.764  -3.312  1.00  0.00    -0.356 OA
HETATM   28  C   UNL     1      37.957  -9.856  -3.434  1.00  0.00     0.210 C 
ENDBRANCH  23  27
ENDBRANCH  20  21
ENDBRANCH   6  20
BRANCH   3  29
HETATM   29  C   UNL     1      42.443 -16.396   2.990  1.00  0.00     0.012 A 
HETATM   30  C   UNL     1      42.701 -17.531   2.198  1.00  0.00     0.015 A 
HETATM   31  C   UNL     1      43.580 -18.535   2.625  1.00  0.00     0.001 A 
HETATM   32  C   UNL     1      44.219 -18.430   3.858  1.00  0.00     0.000 A 
HETATM   33  C   UNL     1      43.989 -17.318   4.660  1.00  0.00     0.001 A 
HETATM   34  C   UNL     1      43.114 -16.316   4.230  1.00  0.00     0.015 A 
ENDBRANCH   3  29
BRANCH   5  35
HETATM   35  C   UNL     1      39.544 -14.733  -0.467  1.00  0.00     0.226 C 
BRANCH  35  36
HETATM   36  O   UNL     1      40.433 -14.259  -1.481  1.00  0.00    -0.390 OA
HETATM   37  C   UNL     1      39.781 -14.176  -2.740  1.00  0.00     0.201 C 
ENDBRANCH  35  36
ENDBRANCH   5  35
TORSDOF 8
ENDMDL
MODEL 7
REMARK VINA RESULT:      -7.9      3.017      8.145
REMARK  8 active torsions:
REMARK  status: ('A' for Active; 'I' for Inactive)
REMARK    1  A    between atoms: C_2  and  N_3 
REMARK       I    between atoms: N_3  and  C_4 
REMARK       I    between atoms: C_4  and  N_5 
REMARK    2  A    between atoms: N_8  and  C_9 
REMARK    3  A    between atoms: C_11  and  C_12 
REMARK    4  A    between atoms: C_19  and  C_20 
REMARK    5  A    between atoms: C_20  and  O_21 
REMARK    6  A    between atoms: C_23  and  C_24 
REMARK    7  A    between atoms: C_24  and  C_25 
REMARK    8  A    between atoms: C_27  and  O_28 
ROOT
HETATM    1  C   UNL     1      40.610 -13.312   2.895  1.00  0.00     0.137 A 
HETATM    2  N   UNL     1      41.360 -14.331   3.357  1.00  0.00    -0.210 NA
HETATM    3  C   UNL     1      41.491 -15.427   2.584  1.00  0.00     0.162 A 
HETATM    4  N   UNL     1      40.886 -15.590   1.399  1.00  0.00    -0.230 NA
HETATM    5  C   UNL     1      40.157 -14.561   0.921  1.00  0.00     0.071 A 
HETATM    6  C   UNL     1      39.996 -13.370   1.636  1.00  0.00     0.019 A 
ENDROOT
BRANCH   1   7
HETATM    7  N   UNL     1      40.545 -12.161   3.679  1.00  0.00    -0.362 N 
HETATM    8  C   UNL     1      39.489 -12.055   4.714  1.00  0.00     0.144 C 
HETATM    9  C   UNL     1      40.040 -12.097   6.151  1.00  0.00     0.147 C 
HETATM   10  N   UNL     1      41.167 -11.180   6.297  1.00  0.00    -0.331 N 
HETATM   11  C   UNL     1      40.951  -9.971   6.934  1.00  0.00     0.318 C 
HETATM   12  C   UNL     1      42.268 -11.531   5.394  1.00  0.00     0.147 C 
HETATM   13  N   UNL     1      41.975  -9.064   6.851  1.00  0.00    -0.339 N 
HETATM   14  O   UNL     1      39.917  -9.735   7.553  1.00  0.00    -0.247 OA
HETATM   15  H   UNL     1      42.545  -9.118   6.025  1.00  0.00     0.164 HD
HETATM   16  C   UNL     1      41.800 -11.423   3.932  1.00  0.00     0.144 C 
BRANCH  13  17
HETATM   17  C   UNL     1      41.958  -7.754   7.498  1.00  0.00     0.078 C 
HETATM   18  C   UNL     1      41.799  -6.601   6.507  1.00  0.00     0.032 C 
HETATM   19  C   UNL     1      43.157  -7.540   8.419  1.00  0.00     0.032 C 
ENDBRANCH  13  17
ENDBRANCH   1   7
BRANCH   6  20
HETATM   20  C   UNL     1      39.298 -12.180   1.018  1.00  0.00     0.083 C 
BRANCH  20  21
HETATM   21  C   UNL     1      40.147 -11.032   0.497  1.00  0.00    -0.051 A 
HETATM   22  C   UNL     1      39.973  -9.773   1.102  1.00  0.00     0.044 A 
HETATM   23  C   UNL     1      40.705  -8.661   0.681  1.00  0.00     0.068 A 
HETATM   24  C   UNL     1      41.640  -8.809  -0.341  1.00  0.00     0.037 A 
HETATM   25  C   UNL     1      41.827 -10.048  -0.955  1.00  0.00     0.003 A 
HETATM   26  C   UNL     1      41.081 -11.152  -0.543  1.00  0.00     0.007 A 
BRANCH  23  27
HETATM   27  O   UNL     1      40.602  -7.395   1.190  1.00  0.00    -0.356 OA
HETATM   28  C   UNL     1      41.240  -6.358   0.455  1.00  0.00     0.210 C 
ENDBRANCH  23  27
ENDBRANCH  20  21
ENDBRANCH   6  20
BRANCH   3  29
HETATM   29  C   UNL     1      42.411 -16.499   3.021  1.00  0.00     0.012 A 
HETATM   30  C   UNL     1      43.101 -16.434   4.247  1.00  0.00     0.015 A 
HETATM   31  C   UNL     1      43.995 -17.440   4.636  1.00  0.00     0.001 A 
HETATM   32  C   UNL     1      44.227 -18.533   3.806  1.00  0.00     0.000 A 
HETATM   33  C   UNL     1      43.557 -18.629   2.591  1.00  0.00     0.001 A 
HETATM   34  C   UNL     1      42.662 -17.625   2.206  1.00  0.00     0.015 A 
ENDBRANCH   3  29
BRANCH   5  35
HETATM   35  C   UNL     1      39.562 -14.788  -0.453  1.00  0.00     0.226 C 
BRANCH  35  36
HETATM   36  O   UNL     1      40.440 -14.301  -1.471  1.00  0.00    -0.390 OA
HETATM   37  C   UNL     1      39.730 -14.004  -2.665  1.00  0.00     0.201 C 
ENDBRANCH  35  36
ENDBRANCH   5  35
TORSDOF 8
ENDMDL
MODEL 8
REMARK VINA RESULT:      -7.7      2.738      8.514
REMARK  8 active torsions:
REMARK  status: ('A' for Active; 'I' for Inactive)
REMARK    1  A    between atoms: C_2  and  N_3 
REMARK       I    between atoms: N_3  and  C_4 
REMARK       I    between atoms: C_4  and  N_5 
REMARK    2  A    between atoms: N_8  and  C_9 
REMARK    3  A    between atoms: C_11  and  C_12 
REMARK    4  A    between atoms: C_19  and  C_20 
REMARK    5  A    between atoms: C_20  and  O_21 
REMARK    6  A    between atoms: C_23  and  C_24 
REMARK    7  A    between atoms: C_24  and  C_25 
REMARK    8  A    between atoms: C_27  and  O_28 
ROOT
HETATM    1  C   UNL     1      42.221 -13.251   3.115  1.00  0.00     0.137 A 
HETATM    2  N   UNL     1      42.596 -14.497   3.466  1.00  0.00    -0.210 NA
HETATM    3  C   UNL     1      42.362 -15.501   2.599  1.00  0.00     0.162 A 
HETATM    4  N   UNL     1      41.736 -15.351   1.422  1.00  0.00    -0.230 NA
HETATM    5  C   UNL     1      41.385 -14.102   1.056  1.00  0.00     0.071 A 
HETATM    6  C   UNL     1      41.622 -12.993   1.873  1.00  0.00     0.019 A 
ENDROOT
BRANCH   1   7
HETATM    7  N   UNL     1      42.535 -12.218   3.995  1.00  0.00    -0.362 N 
HETATM    8  C   UNL     1      41.447 -11.344   4.496  1.00  0.00     0.144 C 
HETATM    9  C   UNL     1      41.162 -11.528   5.998  1.00  0.00     0.147 C 
HETATM   10  N   UNL     1      42.405 -11.498   6.765  1.00  0.00    -0.331 N 
HETATM   11  C   UNL     1      42.718 -10.345   7.462  1.00  0.00     0.318 C 
HETATM   12  C   UNL     1      43.317 -12.572   6.356  1.00  0.00     0.147 C 
HETATM   13  N   UNL     1      43.986 -10.290   7.979  1.00  0.00    -0.339 N 
HETATM   14  O   UNL     1      41.905  -9.440   7.625  1.00  0.00    -0.247 OA
HETATM   15  H   UNL     1      44.691 -10.794   7.472  1.00  0.00     0.164 HD
HETATM   16  C   UNL     1      43.707 -12.392   4.878  1.00  0.00     0.144 C 
BRANCH  13  17
HETATM   17  C   UNL     1      44.489  -9.181   8.788  1.00  0.00     0.078 C 
HETATM   18  C   UNL     1      45.889  -8.729   8.374  1.00  0.00     0.032 C 
HETATM   19  C   UNL     1      44.411  -9.465  10.286  1.00  0.00     0.032 C 
ENDBRANCH  13  17
ENDBRANCH   1   7
BRANCH   6  20
HETATM   20  C   UNL     1      41.352 -11.590   1.380  1.00  0.00     0.083 C 
BRANCH  20  21
HETATM   21  C   UNL     1      39.917 -11.191   1.078  1.00  0.00    -0.051 A 
HETATM   22  C   UNL     1      39.689 -10.421  -0.079  1.00  0.00     0.044 A 
HETATM   23  C   UNL     1      38.404 -10.002  -0.428  1.00  0.00     0.068 A 
HETATM   24  C   UNL     1      37.326 -10.377   0.372  1.00  0.00     0.037 A 
HETATM   25  C   UNL     1      37.530 -11.139   1.522  1.00  0.00     0.003 A 
HETATM   26  C   UNL     1      38.818 -11.539   1.877  1.00  0.00     0.007 A 
BRANCH  23  27
HETATM   27  O   UNL     1      38.078  -9.242  -1.518  1.00  0.00    -0.356 OA
HETATM   28  C   UNL     1      36.878  -9.587  -2.200  1.00  0.00     0.210 C 
ENDBRANCH  23  27
ENDBRANCH  20  21
ENDBRANCH   6  20
BRANCH   3  29
HETATM   29  C   UNL     1      42.880 -16.849   2.916  1.00  0.00     0.012 A 
HETATM   30  C   UNL     1      43.593 -17.113   4.101  1.00  0.00     0.015 A 
HETATM   31  C   UNL     1      44.109 -18.386   4.376  1.00  0.00     0.001 A 
HETATM   32  C   UNL     1      43.929 -19.427   3.469  1.00  0.00     0.000 A 
HETATM   33  C   UNL     1      43.225 -19.200   2.292  1.00  0.00     0.001 A 
HETATM   34  C   UNL     1      42.708 -17.928   2.021  1.00  0.00     0.015 A 
ENDBRANCH   3  29
BRANCH   5  35
HETATM   35  C   UNL     1      40.749 -13.998  -0.315  1.00  0.00     0.226 C 
BRANCH  35  36
HETATM   36  O   UNL     1      39.621 -14.869  -0.418  1.00  0.00    -0.390 OA
HETATM   37  C   UNL     1      39.056 -14.830  -1.720  1.00  0.00     0.201 C 
ENDBRANCH  35  36
ENDBRANCH   5  35
TORSDOF 8
ENDMDL
MODEL 9
REMARK VINA RESULT:      -7.7      2.707      8.478
REMARK  8 active torsions:
REMARK  status: ('A' for Active; 'I' for Inactive)
REMARK    1  A    between atoms: C_2  and  N_3 
REMARK       I    between atoms: N_3  and  C_4 
REMARK       I    between atoms: C_4  and  N_5 
REMARK    2  A    between atoms: N_8  and  C_9 
REMARK    3  A    between atoms: C_11  and  C_12 
REMARK    4  A    between atoms: C_19  and  C_20 
REMARK    5  A    between atoms: C_20  and  O_21 
REMARK    6  A    between atoms: C_23  and  C_24 
REMARK    7  A    between atoms: C_24  and  C_25 
REMARK    8  A    between atoms: C_27  and  O_28 
ROOT
HETATM    1  C   UNL     1      42.841 -14.464   4.821  1.00  0.00     0.137 A 
HETATM    2  N   UNL     1      43.040 -15.796   4.818  1.00  0.00    -0.210 NA
HETATM    3  C   UNL     1      42.932 -16.453   3.647  1.00  0.00     0.162 A 
HETATM    4  N   UNL     1      42.594 -15.875   2.486  1.00  0.00    -0.230 NA
HETATM    5  C   UNL     1      42.421 -14.538   2.480  1.00  0.00     0.071 A 
HETATM    6  C   UNL     1      42.550 -13.767   3.639  1.00  0.00     0.019 A 
ENDROOT
BRANCH   1   7
HETATM    7  N   UNL     1      43.027 -13.794   6.029  1.00  0.00    -0.362 N 
HETATM    8  C   UNL     1      44.408 -13.551   6.510  1.00  0.00     0.144 C 
HETATM    9  C   UNL     1      44.808 -12.064   6.486  1.00  0.00     0.147 C 
HETATM   10  N   UNL     1      43.767 -11.241   7.098  1.00  0.00    -0.331 N 
HETATM   11  C   UNL     1      43.972 -10.774   8.384  1.00  0.00     0.318 C 
HETATM   12  C   UNL     1      42.492 -11.365   6.384  1.00  0.00     0.147 C 
HETATM   13  N   UNL     1      42.885 -10.199   8.987  1.00  0.00    -0.339 N 
HETATM   14  O   UNL     1      45.065 -10.850   8.940  1.00  0.00    -0.247 OA
HETATM   15  H   UNL     1      41.987 -10.547   8.702  1.00  0.00     0.164 HD
HETATM   16  C   UNL     1      41.997 -12.820   6.447  1.00  0.00     0.144 C 
BRANCH  13  17
HETATM   17  C   UNL     1      42.913  -9.602  10.321  1.00  0.00     0.078 C 
HETATM   18  C   UNL     1      41.590  -9.756  11.071  1.00  0.00     0.032 C 
HETATM   19  C   UNL     1      43.383  -8.149  10.303  1.00  0.00     0.032 C 
ENDBRANCH  13  17
ENDBRANCH   1   7
BRANCH   6  20
HETATM   20  C   UNL     1      42.496 -12.258   3.581  1.00  0.00     0.083 C 
BRANCH  20  21
HETATM   21  C   UNL     1      41.231 -11.597   3.059  1.00  0.00    -0.051 A 
HETATM   22  C   UNL     1      41.380 -10.604   2.071  1.00  0.00     0.044 A 
HETATM   23  C   UNL     1      40.272  -9.939   1.542  1.00  0.00     0.068 A 
HETATM   24  C   UNL     1      38.996 -10.284   1.983  1.00  0.00     0.037 A 
HETATM   25  C   UNL     1      38.827 -11.264   2.961  1.00  0.00     0.003 A 
HETATM   26  C   UNL     1      39.938 -11.913   3.500  1.00  0.00     0.007 A 
BRANCH  23  27
HETATM   27  O   UNL     1      40.309  -8.953   0.594  1.00  0.00    -0.356 OA
HETATM   28  C   UNL     1      41.525  -8.808  -0.128  1.00  0.00     0.210 C 
ENDBRANCH  23  27
ENDBRANCH  20  21
ENDBRANCH   6  20
BRANCH   3  29
HETATM   29  C   UNL     1      43.271 -17.893   3.605  1.00  0.00     0.012 A 
HETATM   30  C   UNL     1      43.832 -18.557   4.712  1.00  0.00     0.015 A 
HETATM   31  C   UNL     1      44.180 -19.913   4.652  1.00  0.00     0.001 A 
HETATM   32  C   UNL     1      43.981 -20.637   3.479  1.00  0.00     0.000 A 
HETATM   33  C   UNL     1      43.425 -20.010   2.369  1.00  0.00     0.001 A 
HETATM   34  C   UNL     1      43.075 -18.657   2.434  1.00  0.00     0.015 A 
ENDBRANCH   3  29
BRANCH   5  35
HETATM   35  C   UNL     1      42.112 -13.943   1.122  1.00  0.00     0.226 C 
BRANCH  35  36
HETATM   36  O   UNL     1      40.973 -14.579   0.538  1.00  0.00    -0.390 OA
HETATM   37  C   UNL     1      40.018 -13.624   0.099  1.00  0.00     0.201 C 
ENDBRANCH  35  36
ENDBRANCH   5  35
TORSDOF 8
ENDMDL
MODEL 10
REMARK VINA RESULT:      -7.4     16.460     19.227
REMARK  8 active torsions:
REMARK  status: ('A' for Active; 'I' for Inactive)
REMARK    1  A    between atoms: C_2  and  N_3 
REMARK       I    between atoms: N_3  and  C_4 
REMARK       I    between atoms: C_4  and  N_5 
REMARK    2  A    between atoms: N_8  and  C_9 
REMARK    3  A    between atoms: C_11  and  C_12 
REMARK    4  A    between atoms: C_19  and  C_20 
REMARK    5  A    between atoms: C_20  and  O_21 
REMARK    6  A    between atoms: C_23  and  C_24 
REMARK    7  A    between atoms: C_24  and  C_25 
REMARK    8  A    between atoms: C_27  and  O_28 
ROOT
HETATM    1  C   UNL     1      44.556 -29.834   0.759  1.00  0.00     0.137 A 
HETATM    2  N   UNL     1      44.161 -30.268  -0.454  1.00  0.00    -0.210 NA
HETATM    3  C   UNL     1      44.900 -29.923  -1.526  1.00  0.00     0.162 A 
HETATM    4  N   UNL     1      45.983 -29.135  -1.473  1.00  0.00    -0.230 NA
HETATM    5  C   UNL     1      46.397 -28.721  -0.259  1.00  0.00     0.071 A 
HETATM    6  C   UNL     1      45.716 -29.061   0.914  1.00  0.00     0.019 A 
ENDROOT
BRANCH   1   7
HETATM    7  N   UNL     1      43.818 -30.260   1.862  1.00  0.00    -0.362 N 
HETATM    8  C   UNL     1      42.485 -29.660   2.110  1.00  0.00     0.144 C 
HETATM    9  C   UNL     1      41.324 -30.648   1.896  1.00  0.00     0.147 C 
HETATM   10  N   UNL     1      41.590 -31.911   2.580  1.00  0.00    -0.331 N 
HETATM   11  C   UNL     1      40.938 -32.159   3.775  1.00  0.00     0.318 C 
HETATM   12  C   UNL     1      42.809 -32.551   2.076  1.00  0.00     0.147 C 
HETATM   13  N   UNL     1      41.384 -33.247   4.479  1.00  0.00    -0.339 N 
HETATM   14  O   UNL     1      40.007 -31.462   4.168  1.00  0.00    -0.247 OA
HETATM   15  H   UNL     1      42.354 -33.481   4.361  1.00  0.00     0.164 HD
HETATM   16  C   UNL     1      44.023 -31.643   2.340  1.00  0.00     0.144 C 
BRANCH  13  17
HETATM   17  C   UNL     1      40.793 -33.702   5.736  1.00  0.00     0.078 C 
HETATM   18  C   UNL     1      41.839 -34.109   6.773  1.00  0.00     0.032 C 
HETATM   19  C   UNL     1      39.751 -34.799   5.530  1.00  0.00     0.032 C 
ENDBRANCH  13  17
ENDBRANCH   1   7
BRANCH   6  20
HETATM   20  C   UNL     1      46.279 -28.708   2.272  1.00  0.00     0.083 C 
BRANCH  20  21
HETATM   21  C   UNL     1      47.516 -29.446   2.757  1.00  0.00    -0.051 A 
HETATM   22  C   UNL     1      47.562 -30.838   2.551  1.00  0.00     0.044 A 
HETATM   23  C   UNL     1      48.655 -31.597   2.973  1.00  0.00     0.068 A 
HETATM   24  C   UNL     1      49.730 -30.957   3.588  1.00  0.00     0.037 A 
HETATM   25  C   UNL     1      49.704 -29.580   3.802  1.00  0.00     0.003 A 
HETATM   26  C   UNL     1      48.602 -28.828   3.395  1.00  0.00     0.007 A 
BRANCH  23  27
HETATM   27  O   UNL     1      48.791 -32.951   2.834  1.00  0.00    -0.356 OA
HETATM   28  C   UNL     1      49.275 -33.418   1.581  1.00  0.00     0.210 C 
ENDBRANCH  23  27
ENDBRANCH  20  21
ENDBRANCH   6  20
BRANCH   3  29
HETATM   29  C   UNL     1      44.551 -30.496  -2.844  1.00  0.00     0.012 A 
HETATM   30  C   UNL     1      44.538 -31.885  -3.072  1.00  0.00     0.015 A 
HETATM   31  C   UNL     1      44.238 -32.417  -4.333  1.00  0.00     0.001 A 
HETATM   32  C   UNL     1      43.949 -31.571  -5.400  1.00  0.00     0.000 A 
HETATM   33  C   UNL     1      43.949 -30.194  -5.206  1.00  0.00     0.001 A 
HETATM   34  C   UNL     1      44.245 -29.666  -3.945  1.00  0.00     0.015 A 
ENDBRANCH   3  29
BRANCH   5  35
HETATM   35  C   UNL     1      47.667 -27.895  -0.268  1.00  0.00     0.226 C 
BRANCH  35  36
HETATM   36  O   UNL     1      48.657 -28.497  -1.103  1.00  0.00    -0.390 OA
HETATM   37  C   UNL     1      49.299 -29.580  -0.444  1.00  0.00     0.201 C 
ENDBRANCH  35  36
ENDBRANCH   5  35
TORSDOF 8
ENDMDL
