MODEL 1
REMARK VINA RESULT:      -8.5      0.000      0.000
REMARK  7 active torsions:
REMARK  status: ('A' for Active; 'I' for Inactive)
REMARK    1  A    between atoms: O_2  and  C_3 
REMARK    2  A    between atoms: C_6  and  C_7 
REMARK    3  A    between atoms: C_7  and  N_8 
REMARK    4  A    between atoms: C_7  and  C_25 
REMARK    5  A    between atoms: N_8  and  C_11 
REMARK    6  A    between atoms: C_11  and  C_12 
REMARK       I    between atoms: C_12  and  N_13 
REMARK    7  A    between atoms: N_13  and  C_14 
ROOT
HETATM    1  N   UNL     1      42.743 -16.407   5.288  1.00  0.00    -0.055 N 
HETATM    2  H   UNL     1      41.739 -16.170   5.238  1.00  0.00     0.278 HD
HETATM    3  H   UNL     1      42.766 -17.234   5.893  1.00  0.00     0.278 HD
ENDROOT
BRANCH   1   4
HETATM    4  C   UNL     1      43.243 -16.738   3.920  1.00  0.00     0.252 C 
BRANCH   4   5
HETATM    5  C   UNL     1      42.358 -16.161   2.827  1.00  0.00    -0.023 A 
HETATM    6  C   UNL     1      40.979 -16.443   2.835  1.00  0.00     0.012 A 
HETATM    7  C   UNL     1      40.124 -15.908   1.864  1.00  0.00     0.037 A 
HETATM    8  C   UNL     1      40.628 -15.074   0.870  1.00  0.00     0.068 A 
HETATM    9  C   UNL     1      41.994 -14.792   0.849  1.00  0.00     0.037 A 
HETATM   10  C   UNL     1      42.853 -15.322   1.817  1.00  0.00     0.012 A 
BRANCH   8  11
HETATM   11  O   UNL     1      39.907 -14.480  -0.126  1.00  0.00    -0.356 OA
HETATM   12  C   UNL     1      40.131 -13.093  -0.351  1.00  0.00     0.210 C 
ENDBRANCH   8  11
ENDBRANCH   4   5
BRANCH   4  13
HETATM   13  C   UNL     1      43.521 -18.222   3.749  1.00  0.00    -0.023 A 
HETATM   14  C   UNL     1      43.938 -18.982   4.857  1.00  0.00     0.009 A 
HETATM   15  C   UNL     1      44.178 -20.351   4.733  1.00  0.00     0.001 A 
HETATM   16  C   UNL     1      44.011 -20.979   3.502  1.00  0.00     0.000 A 
HETATM   17  C   UNL     1      43.608 -20.241   2.393  1.00  0.00     0.001 A 
HETATM   18  C   UNL     1      43.368 -18.871   2.511  1.00  0.00     0.009 A 
ENDBRANCH   4  13
ENDBRANCH   1   4
BRANCH   1  19
HETATM   19  C   UNL     1      43.436 -15.268   5.993  1.00  0.00     0.336 C 
BRANCH  19  20
HETATM   20  C   UNL     1      42.822 -13.940   5.550  1.00  0.00     0.248 C 
HETATM   21  N   UNL     1      41.447 -13.956   5.443  1.00  0.00    -0.326 N 
HETATM   22  H   UNL     1      40.955 -14.825   5.625  1.00  0.00     0.169 HD
HETATM   23  O   UNL     1      43.586 -13.001   5.331  1.00  0.00    -0.271 OA
BRANCH  21  24
HETATM   24  C   UNL     1      40.610 -12.873   5.083  1.00  0.00     0.037 A 
HETATM   25  C   UNL     1      40.166 -11.901   5.987  1.00  0.00     0.061 A 
HETATM   26  C   UNL     1      39.348 -10.909   5.491  1.00  0.00     0.065 A 
HETATM   27  C   UNL     1      38.967 -10.851   4.154  1.00  0.00     0.063 A 
HETATM   28  N   UNL     1      38.762  -9.832   6.148  1.00  0.00    -0.306 N 
HETATM   29  N   UNL     1      38.150  -9.741   3.986  1.00  0.00    -0.307 N 
HETATM   30  C   UNL     1      39.382 -11.784   3.238  1.00  0.00     0.034 A 
HETATM   31  C   UNL     1      38.010  -9.094   5.222  1.00  0.00     0.325 A 
HETATM   32  H   UNL     1      37.708  -9.420   3.139  1.00  0.00     0.170 HD
HETATM   33  O   UNL     1      37.363  -8.088   5.450  1.00  0.00    -0.247 OA
HETATM   34  C   UNL     1      40.213 -12.806   3.719  1.00  0.00     0.032 A 
HETATM   35  H   UNL     1      38.835  -9.587   7.122  1.00  0.00     0.170 HD
ENDBRANCH  21  24
ENDBRANCH  19  20
ENDBRANCH   1  19
TORSDOF 7
ENDMDL
MODEL 2
REMARK VINA RESULT:      -8.5      2.596      3.106
REMARK  7 active torsions:
REMARK  status: ('A' for Active; 'I' for Inactive)
REMARK    1  A    between atoms: O_2  and  C_3 
REMARK    2  A    between atoms: C_6  and  C_7 
REMARK    3  A    between atoms: C_7  and  N_8 
REMARK    4  A    between atoms: C_7  and  C_25 
REMARK    5  A    between atoms: N_8  and  C_11 
REMARK    6  A    between atoms: C_11  and  C_12 
REMARK       I    between atoms: C_12  and  N_13 
REMARK    7  A    between atoms: N_13  and  C_14 
ROOT
HETATM    1  N   UNL     1      43.033 -16.924   5.625  1.00  0.00    -0.055 N 
HETATM    2  H   UNL     1      42.221 -16.288   5.691  1.00  0.00     0.278 HD
HETATM    3  H   UNL     1      42.666 -17.818   5.965  1.00  0.00     0.278 HD
ENDROOT
BRANCH   1   4
HETATM    4  C   UNL     1      43.461 -17.035   4.199  1.00  0.00     0.252 C 
BRANCH   4   5
HETATM    5  C   UNL     1      42.573 -16.229   3.264  1.00  0.00    -0.023 A 
HETATM    6  C   UNL     1      41.175 -16.366   3.353  1.00  0.00     0.012 A 
HETATM    7  C   UNL     1      40.320 -15.621   2.532  1.00  0.00     0.037 A 
HETATM    8  C   UNL     1      40.845 -14.718   1.612  1.00  0.00     0.068 A 
HETATM    9  C   UNL     1      42.229 -14.578   1.512  1.00  0.00     0.037 A 
HETATM   10  C   UNL     1      43.088 -15.318   2.330  1.00  0.00     0.012 A 
BRANCH   8  11
HETATM   11  O   UNL     1      40.128 -13.925   0.762  1.00  0.00    -0.356 OA
HETATM   12  C   UNL     1      39.862 -14.441  -0.538  1.00  0.00     0.210 C 
ENDBRANCH   8  11
ENDBRANCH   4   5
BRANCH   4  13
HETATM   13  C   UNL     1      43.643 -18.478   3.761  1.00  0.00    -0.023 A 
HETATM   14  C   UNL     1      43.986 -19.455   4.713  1.00  0.00     0.009 A 
HETATM   15  C   UNL     1      44.138 -20.792   4.341  1.00  0.00     0.001 A 
HETATM   16  C   UNL     1      43.953 -21.172   3.015  1.00  0.00     0.000 A 
HETATM   17  C   UNL     1      43.623 -20.217   2.057  1.00  0.00     0.001 A 
HETATM   18  C   UNL     1      43.472 -18.878   2.424  1.00  0.00     0.009 A 
ENDBRANCH   4  13
ENDBRANCH   1   4
BRANCH   1  19
HETATM   19  C   UNL     1      44.073 -16.423   6.595  1.00  0.00     0.336 C 
BRANCH  19  20
HETATM   20  C   UNL     1      43.631 -15.078   7.173  1.00  0.00     0.248 C 
HETATM   21  N   UNL     1      43.811 -14.006   6.323  1.00  0.00    -0.326 N 
HETATM   22  H   UNL     1      44.240 -14.170   5.418  1.00  0.00     0.169 HD
HETATM   23  O   UNL     1      43.170 -15.068   8.314  1.00  0.00    -0.271 OA
BRANCH  21  24
HETATM   24  C   UNL     1      43.472 -12.656   6.575  1.00  0.00     0.037 A 
HETATM   25  C   UNL     1      44.249 -11.793   7.361  1.00  0.00     0.061 A 
HETATM   26  C   UNL     1      43.787 -10.506   7.523  1.00  0.00     0.065 A 
HETATM   27  C   UNL     1      42.605 -10.054   6.942  1.00  0.00     0.063 A 
HETATM   28  N   UNL     1      44.338  -9.450   8.241  1.00  0.00    -0.306 N 
HETATM   29  N   UNL     1      42.430  -8.724   7.299  1.00  0.00    -0.307 N 
HETATM   30  C   UNL     1      41.819 -10.868   6.166  1.00  0.00     0.034 A 
HETATM   31  C   UNL     1      43.502  -8.331   8.112  1.00  0.00     0.325 A 
HETATM   32  H   UNL     1      41.673  -8.109   7.044  1.00  0.00     0.170 HD
HETATM   33  O   UNL     1      43.677  -7.233   8.610  1.00  0.00    -0.247 OA
HETATM   34  C   UNL     1      42.266 -12.185   5.988  1.00  0.00     0.032 A 
HETATM   35  H   UNL     1      45.190  -9.445   8.780  1.00  0.00     0.170 HD
ENDBRANCH  21  24
ENDBRANCH  19  20
ENDBRANCH   1  19
TORSDOF 7
ENDMDL
MODEL 3
REMARK VINA RESULT:      -8.4      0.947      1.689
REMARK  7 active torsions:
REMARK  status: ('A' for Active; 'I' for Inactive)
REMARK    1  A    between atoms: O_2  and  C_3 
REMARK    2  A    between atoms: C_6  and  C_7 
REMARK    3  A    between atoms: C_7  and  N_8 
REMARK    4  A    between atoms: C_7  and  C_25 
REMARK    5  A    between atoms: N_8  and  C_11 
REMARK    6  A    between atoms: C_11  and  C_12 
REMARK       I    between atoms: C_12  and  N_13 
REMARK    7  A    between atoms: N_13  and  C_14 
ROOT
HETATM    1  N   UNL     1      42.889 -16.304   5.657  1.00  0.00    -0.055 N 
HETATM    2  H   UNL     1      41.876 -16.100   5.637  1.00  0.00     0.278 HD
HETATM    3  H   UNL     1      42.964 -17.092   6.308  1.00  0.00     0.278 HD
ENDROOT
BRANCH   1   4
HETATM    4  C   UNL     1      43.340 -16.701   4.290  1.00  0.00     0.252 C 
BRANCH   4   5
HETATM    5  C   UNL     1      42.436 -16.152   3.200  1.00  0.00    -0.023 A 
HETATM    6  C   UNL     1      43.003 -15.435   2.130  1.00  0.00     0.012 A 
HETATM    7  C   UNL     1      42.209 -14.937   1.089  1.00  0.00     0.037 A 
HETATM    8  C   UNL     1      40.834 -15.153   1.092  1.00  0.00     0.068 A 
HETATM    9  C   UNL     1      40.261 -15.859   2.150  1.00  0.00     0.037 A 
HETATM   10  C   UNL     1      41.048 -16.359   3.192  1.00  0.00     0.012 A 
BRANCH   8  11
HETATM   11  O   UNL     1      39.950 -14.734   0.139  1.00  0.00    -0.356 OA
HETATM   12  C   UNL     1      39.865 -13.333  -0.095  1.00  0.00     0.210 C 
ENDBRANCH   8  11
ENDBRANCH   4   5
BRANCH   4  13
HETATM   13  C   UNL     1      43.583 -18.197   4.174  1.00  0.00    -0.023 A 
HETATM   14  C   UNL     1      43.822 -18.954   5.335  1.00  0.00     0.009 A 
HETATM   15  C   UNL     1      44.026 -20.333   5.258  1.00  0.00     0.001 A 
HETATM   16  C   UNL     1      43.999 -20.974   4.024  1.00  0.00     0.000 A 
HETATM   17  C   UNL     1      43.774 -20.239   2.863  1.00  0.00     0.001 A 
HETATM   18  C   UNL     1      43.572 -18.859   2.934  1.00  0.00     0.009 A 
ENDBRANCH   4  13
ENDBRANCH   1   4
BRANCH   1  19
HETATM   19  C   UNL     1      43.574 -15.105   6.262  1.00  0.00     0.336 C 
BRANCH  19  20
HETATM   20  C   UNL     1      42.914 -13.824   5.750  1.00  0.00     0.248 C 
HETATM   21  N   UNL     1      41.539 -13.881   5.677  1.00  0.00    -0.326 N 
HETATM   22  H   UNL     1      41.074 -14.749   5.926  1.00  0.00     0.169 HD
HETATM   23  O   UNL     1      43.648 -12.881   5.453  1.00  0.00    -0.271 OA
BRANCH  21  24
HETATM   24  C   UNL     1      40.665 -12.846   5.268  1.00  0.00     0.037 A 
HETATM   25  C   UNL     1      40.473 -12.475   3.930  1.00  0.00     0.061 A 
HETATM   26  C   UNL     1      39.595 -11.441   3.686  1.00  0.00     0.065 A 
HETATM   27  C   UNL     1      38.914 -10.779   4.704  1.00  0.00     0.063 A 
HETATM   28  N   UNL     1      39.217 -10.866   2.477  1.00  0.00    -0.306 N 
HETATM   29  N   UNL     1      38.119  -9.800   4.124  1.00  0.00    -0.307 N 
HETATM   30  C   UNL     1      39.076 -11.114   6.024  1.00  0.00     0.034 A 
HETATM   31  C   UNL     1      38.297  -9.839   2.734  1.00  0.00     0.325 A 
HETATM   32  H   UNL     1      37.506  -9.147   4.586  1.00  0.00     0.170 HD
HETATM   33  O   UNL     1      37.759  -9.124   1.909  1.00  0.00    -0.247 OA
HETATM   34  C   UNL     1      39.967 -12.161   6.300  1.00  0.00     0.032 A 
HETATM   35  H   UNL     1      39.529 -11.112   1.551  1.00  0.00     0.170 HD
ENDBRANCH  21  24
ENDBRANCH  19  20
ENDBRANCH   1  19
TORSDOF 7
ENDMDL
MODEL 4
REMARK VINA RESULT:      -7.9      3.162      6.252
REMARK  7 active torsions:
REMARK  status: ('A' for Active; 'I' for Inactive)
REMARK    1  A    between atoms: O_2  and  C_3 
REMARK    2  A    between atoms: C_6  and  C_7 
REMARK    3  A    between atoms: C_7  and  N_8 
REMARK    4  A    between atoms: C_7  and  C_25 
REMARK    5  A    between atoms: N_8  and  C_11 
REMARK    6  A    between atoms: C_11  and  C_12 
REMARK       I    between atoms: C_12  and  N_13 
REMARK    7  A    between atoms: N_13  and  C_14 
ROOT
HETATM    1  N   UNL     1      40.481 -12.520   2.086  1.00  0.00    -0.055 N 
HETATM    2  H   UNL     1      41.487 -12.336   2.237  1.00  0.00     0.278 HD
HETATM    3  H   UNL     1      40.151 -11.676   1.608  1.00  0.00     0.278 HD
ENDROOT
BRANCH   1   4
HETATM    4  C   UNL     1      40.323 -13.720   1.211  1.00  0.00     0.252 C 
BRANCH   4   5
HETATM    5  C   UNL     1      41.255 -14.853   1.610  1.00  0.00    -0.023 A 
HETATM    6  C   UNL     1      42.647 -14.666   1.515  1.00  0.00     0.012 A 
HETATM    7  C   UNL     1      43.541 -15.673   1.900  1.00  0.00     0.037 A 
HETATM    8  C   UNL     1      43.063 -16.882   2.396  1.00  0.00     0.068 A 
HETATM    9  C   UNL     1      41.685 -17.080   2.489  1.00  0.00     0.037 A 
HETATM   10  C   UNL     1      40.787 -16.079   2.108  1.00  0.00     0.012 A 
BRANCH   8  11
HETATM   11  O   UNL     1      43.821 -17.938   2.814  1.00  0.00    -0.356 OA
HETATM   12  C   UNL     1      43.988 -18.101   4.218  1.00  0.00     0.210 C 
ENDBRANCH   8  11
ENDBRANCH   4   5
BRANCH   4  13
HETATM   13  C   UNL     1      40.396 -13.373  -0.266  1.00  0.00    -0.023 A 
HETATM   14  C   UNL     1      40.963 -12.148  -0.664  1.00  0.00     0.009 A 
HETATM   15  C   UNL     1      41.063 -11.814  -2.016  1.00  0.00     0.001 A 
HETATM   16  C   UNL     1      40.595 -12.694  -2.987  1.00  0.00     0.000 A 
HETATM   17  C   UNL     1      40.021 -13.905  -2.612  1.00  0.00     0.001 A 
HETATM   18  C   UNL     1      39.917 -14.243  -1.261  1.00  0.00     0.009 A 
ENDBRANCH   4  13
ENDBRANCH   1   4
BRANCH   1  19
HETATM   19  C   UNL     1      39.832 -12.596   3.445  1.00  0.00     0.336 C 
BRANCH  19  20
HETATM   20  C   UNL     1      40.910 -12.662   4.526  1.00  0.00     0.248 C 
HETATM   21  N   UNL     1      41.683 -11.525   4.631  1.00  0.00    -0.326 N 
HETATM   22  H   UNL     1      41.514 -10.761   3.985  1.00  0.00     0.169 HD
HETATM   23  O   UNL     1      40.995 -13.697   5.188  1.00  0.00    -0.271 OA
BRANCH  21  24
HETATM   24  C   UNL     1      42.731 -11.291   5.553  1.00  0.00     0.037 A 
HETATM   25  C   UNL     1      42.533 -10.767   6.837  1.00  0.00     0.061 A 
HETATM   26  C   UNL     1      43.652 -10.588   7.621  1.00  0.00     0.065 A 
HETATM   27  C   UNL     1      44.933 -10.907   7.182  1.00  0.00     0.063 A 
HETATM   28  N   UNL     1      43.756 -10.089   8.915  1.00  0.00    -0.306 N 
HETATM   29  N   UNL     1      45.825 -10.607   8.204  1.00  0.00    -0.307 N 
HETATM   30  C   UNL     1      45.167 -11.423   5.933  1.00  0.00     0.034 A 
HETATM   31  C   UNL     1      45.108 -10.094   9.293  1.00  0.00     0.325 A 
HETATM   32  H   UNL     1      46.827 -10.720   8.202  1.00  0.00     0.170 HD
HETATM   33  O   UNL     1      45.565  -9.725  10.359  1.00  0.00    -0.247 OA
HETATM   34  C   UNL     1      44.045 -11.612   5.114  1.00  0.00     0.032 A 
HETATM   35  H   UNL     1      43.015  -9.765   9.516  1.00  0.00     0.170 HD
ENDBRANCH  21  24
ENDBRANCH  19  20
ENDBRANCH   1  19
TORSDOF 7
ENDMDL
MODEL 5
REMARK VINA RESULT:      -7.7      3.779      5.086
REMARK  7 active torsions:
REMARK  status: ('A' for Active; 'I' for Inactive)
REMARK    1  A    between atoms: O_2  and  C_3 
REMARK    2  A    between atoms: C_6  and  C_7 
REMARK    3  A    between atoms: C_7  and  N_8 
REMARK    4  A    between atoms: C_7  and  C_25 
REMARK    5  A    between atoms: N_8  and  C_11 
REMARK    6  A    between atoms: C_11  and  C_12 
REMARK       I    between atoms: C_12  and  N_13 
REMARK    7  A    between atoms: N_13  and  C_14 
ROOT
HETATM    1  N   UNL     1      42.509 -12.877   3.162  1.00  0.00    -0.055 N 
HETATM    2  H   UNL     1      41.711 -12.265   2.924  1.00  0.00     0.278 HD
HETATM    3  H   UNL     1      42.239 -13.286   4.062  1.00  0.00     0.278 HD
ENDROOT
BRANCH   1   4
HETATM    4  C   UNL     1      42.648 -13.937   2.119  1.00  0.00     0.252 C 
BRANCH   4   5
HETATM    5  C   UNL     1      41.514 -13.905   1.107  1.00  0.00    -0.023 A 
HETATM    6  C   UNL     1      41.234 -12.708   0.422  1.00  0.00     0.012 A 
HETATM    7  C   UNL     1      40.218 -12.643  -0.539  1.00  0.00     0.037 A 
HETATM    8  C   UNL     1      39.466 -13.775  -0.841  1.00  0.00     0.068 A 
HETATM    9  C   UNL     1      39.732 -14.966  -0.164  1.00  0.00     0.037 A 
HETATM   10  C   UNL     1      40.746 -15.038   0.795  1.00  0.00     0.012 A 
BRANCH   8  11
HETATM   11  O   UNL     1      38.458 -13.853  -1.759  1.00  0.00    -0.356 OA
HETATM   12  C   UNL     1      37.604 -12.721  -1.881  1.00  0.00     0.210 C 
ENDBRANCH   8  11
ENDBRANCH   4   5
BRANCH   4  13
HETATM   13  C   UNL     1      42.880 -15.312   2.720  1.00  0.00    -0.023 A 
HETATM   14  C   UNL     1      43.336 -16.361   1.899  1.00  0.00     0.009 A 
HETATM   15  C   UNL     1      43.578 -17.628   2.431  1.00  0.00     0.001 A 
HETATM   16  C   UNL     1      43.367 -17.869   3.785  1.00  0.00     0.000 A 
HETATM   17  C   UNL     1      42.907 -16.846   4.610  1.00  0.00     0.001 A 
HETATM   18  C   UNL     1      42.660 -15.577   4.083  1.00  0.00     0.009 A 
ENDBRANCH   4  13
ENDBRANCH   1   4
BRANCH   1  19
HETATM   19  C   UNL     1      43.708 -11.987   3.370  1.00  0.00     0.336 C 
BRANCH  19  20
HETATM   20  C   UNL     1      43.557 -11.220   4.684  1.00  0.00     0.248 C 
HETATM   21  N   UNL     1      44.458 -11.583   5.663  1.00  0.00    -0.326 N 
HETATM   22  H   UNL     1      45.116 -12.331   5.465  1.00  0.00     0.169 HD
HETATM   23  O   UNL     1      42.667 -10.373   4.754  1.00  0.00    -0.271 OA
BRANCH  21  24
HETATM   24  C   UNL     1      44.573 -11.031   6.960  1.00  0.00     0.037 A 
HETATM   25  C   UNL     1      43.532 -11.030   7.899  1.00  0.00     0.061 A 
HETATM   26  C   UNL     1      43.789 -10.448   9.121  1.00  0.00     0.065 A 
HETATM   27  C   UNL     1      45.020  -9.881   9.437  1.00  0.00     0.063 A 
HETATM   28  N   UNL     1      42.957 -10.301  10.225  1.00  0.00    -0.306 N 
HETATM   29  N   UNL     1      44.947  -9.387  10.732  1.00  0.00    -0.307 N 
HETATM   30  C   UNL     1      46.062  -9.863   8.545  1.00  0.00     0.034 A 
HETATM   31  C   UNL     1      43.665  -9.639  11.239  1.00  0.00     0.325 A 
HETATM   32  H   UNL     1      45.668  -8.915  11.256  1.00  0.00     0.170 HD
HETATM   33  O   UNL     1      43.246  -9.344  12.343  1.00  0.00    -0.247 OA
HETATM   34  C   UNL     1      45.826 -10.446   7.293  1.00  0.00     0.032 A 
HETATM   35  H   UNL     1      42.000 -10.601  10.324  1.00  0.00     0.170 HD
ENDBRANCH  21  24
ENDBRANCH  19  20
ENDBRANCH   1  19
TORSDOF 7
ENDMDL
MODEL 6
REMARK VINA RESULT:      -7.7      3.397      5.844
REMARK  7 active torsions:
REMARK  status: ('A' for Active; 'I' for Inactive)
REMARK    1  A    between atoms: O_2  and  C_3 
REMARK    2  A    between atoms: C_6  and  C_7 
REMARK    3  A    between atoms: C_7  and  N_8 
REMARK    4  A    between atoms: C_7  and  C_25 
REMARK    5  A    between atoms: N_8  and  C_11 
REMARK    6  A    between atoms: C_11  and  C_12 
REMARK       I    between atoms: C_12  and  N_13 
REMARK    7  A    between atoms: N_13  and  C_14 
ROOT
HETATM    1  N   UNL     1      41.403 -15.936   1.808  1.00  0.00    -0.055 N 
HETATM    2  H   UNL     1      41.924 -15.193   1.313  1.00  0.00     0.278 HD
HETATM    3  H   UNL     1      41.667 -16.790   1.307  1.00  0.00     0.278 HD
ENDROOT
BRANCH   1   4
HETATM    4  C   UNL     1      41.856 -15.994   3.230  1.00  0.00     0.252 C 
BRANCH   4   5
HETATM    5  C   UNL     1      42.461 -14.681   3.698  1.00  0.00    -0.023 A 
HETATM    6  C   UNL     1      42.393 -14.337   5.061  1.00  0.00     0.012 A 
HETATM    7  C   UNL     1      42.964 -13.152   5.540  1.00  0.00     0.037 A 
HETATM    8  C   UNL     1      43.621 -12.289   4.668  1.00  0.00     0.068 A 
HETATM    9  C   UNL     1      43.690 -12.617   3.314  1.00  0.00     0.037 A 
HETATM   10  C   UNL     1      43.124 -13.800   2.830  1.00  0.00     0.012 A 
BRANCH   8  11
HETATM   11  O   UNL     1      44.227 -11.112   5.002  1.00  0.00    -0.356 OA
HETATM   12  C   UNL     1      45.228 -11.161   6.013  1.00  0.00     0.210 C 
ENDBRANCH   8  11
ENDBRANCH   4   5
BRANCH   4  13
HETATM   13  C   UNL     1      42.742 -17.197   3.506  1.00  0.00    -0.023 A 
HETATM   14  C   UNL     1      43.183 -17.448   4.818  1.00  0.00     0.009 A 
HETATM   15  C   UNL     1      43.979 -18.558   5.103  1.00  0.00     0.001 A 
HETATM   16  C   UNL     1      44.349 -19.431   4.083  1.00  0.00     0.000 A 
HETATM   17  C   UNL     1      43.930 -19.193   2.777  1.00  0.00     0.001 A 
HETATM   18  C   UNL     1      43.135 -18.082   2.487  1.00  0.00     0.009 A 
ENDBRANCH   4  13
ENDBRANCH   1   4
BRANCH   1  19
HETATM   19  C   UNL     1      39.935 -15.675   1.587  1.00  0.00     0.336 C 
BRANCH  19  20
HETATM   20  C   UNL     1      39.750 -14.314   0.915  1.00  0.00     0.248 C 
HETATM   21  N   UNL     1      39.514 -14.377  -0.443  1.00  0.00    -0.326 N 
HETATM   22  H   UNL     1      39.514 -15.285  -0.895  1.00  0.00     0.169 HD
HETATM   23  O   UNL     1      39.828 -13.311   1.622  1.00  0.00    -0.271 OA
BRANCH  21  24
HETATM   24  C   UNL     1      39.281 -13.287  -1.316  1.00  0.00     0.037 A 
HETATM   25  C   UNL     1      40.292 -12.444  -1.793  1.00  0.00     0.061 A 
HETATM   26  C   UNL     1      39.911 -11.419  -2.632  1.00  0.00     0.065 A 
HETATM   27  C   UNL     1      38.587 -11.210  -3.006  1.00  0.00     0.063 A 
HETATM   28  N   UNL     1      40.687 -10.440  -3.244  1.00  0.00    -0.306 N 
HETATM   29  N   UNL     1      38.546 -10.106  -3.847  1.00  0.00    -0.307 N 
HETATM   30  C   UNL     1      37.570 -12.014  -2.560  1.00  0.00     0.034 A 
HETATM   31  C   UNL     1      39.848  -9.612  -4.006  1.00  0.00     0.325 A 
HETATM   32  H   UNL     1      37.739  -9.694  -4.288  1.00  0.00     0.170 HD
HETATM   33  O   UNL     1      40.189  -8.652  -4.673  1.00  0.00    -0.247 OA
HETATM   34  C   UNL     1      37.931 -13.064  -1.703  1.00  0.00     0.032 A 
HETATM   35  H   UNL     1      41.683 -10.308  -3.178  1.00  0.00     0.170 HD
ENDBRANCH  21  24
ENDBRANCH  19  20
ENDBRANCH   1  19
TORSDOF 7
ENDMDL
MODEL 7
REMARK VINA RESULT:      -7.6      3.089      6.751
REMARK  7 active torsions:
REMARK  status: ('A' for Active; 'I' for Inactive)
REMARK    1  A    between atoms: O_2  and  C_3 
REMARK    2  A    between atoms: C_6  and  C_7 
REMARK    3  A    between atoms: C_7  and  N_8 
REMARK    4  A    between atoms: C_7  and  C_25 
REMARK    5  A    between atoms: N_8  and  C_11 
REMARK    6  A    between atoms: C_11  and  C_12 
REMARK       I    between atoms: C_12  and  N_13 
REMARK    7  A    between atoms: N_13  and  C_14 
ROOT
HETATM    1  N   UNL     1      41.395 -12.098   6.399  1.00  0.00    -0.055 N 
HETATM    2  H   UNL     1      40.822 -12.955   6.477  1.00  0.00     0.278 HD
HETATM    3  H   UNL     1      41.410 -11.729   7.355  1.00  0.00     0.278 HD
ENDROOT
BRANCH   1   4
HETATM    4  C   UNL     1      42.771 -12.463   5.949  1.00  0.00     0.252 C 
BRANCH   4   5
HETATM    5  C   UNL     1      42.974 -13.967   5.868  1.00  0.00    -0.023 A 
HETATM    6  C   UNL     1      43.202 -14.697   7.050  1.00  0.00     0.012 A 
HETATM    7  C   UNL     1      43.364 -16.087   7.024  1.00  0.00     0.037 A 
HETATM    8  C   UNL     1      43.292 -16.778   5.818  1.00  0.00     0.068 A 
HETATM    9  C   UNL     1      43.070 -16.064   4.640  1.00  0.00     0.037 A 
HETATM   10  C   UNL     1      42.907 -14.676   4.659  1.00  0.00     0.012 A 
BRANCH   8  11
HETATM   11  O   UNL     1      43.421 -18.128   5.653  1.00  0.00    -0.356 OA
HETATM   12  C   UNL     1      44.351 -18.576   4.673  1.00  0.00     0.210 C 
ENDBRANCH   8  11
ENDBRANCH   4   5
BRANCH   4  13
HETATM   13  C   UNL     1      43.849 -11.753   6.751  1.00  0.00    -0.023 A 
HETATM   14  C   UNL     1      45.159 -11.683   6.244  1.00  0.00     0.009 A 
HETATM   15  C   UNL     1      46.162 -11.018   6.951  1.00  0.00     0.001 A 
HETATM   16  C   UNL     1      45.874 -10.417   8.172  1.00  0.00     0.000 A 
HETATM   17  C   UNL     1      44.585 -10.485   8.695  1.00  0.00     0.001 A 
HETATM   18  C   UNL     1      43.578 -11.152   7.993  1.00  0.00     0.009 A 
ENDBRANCH   4  13
ENDBRANCH   1   4
BRANCH   1  19
HETATM   19  C   UNL     1      40.640 -11.135   5.517  1.00  0.00     0.336 C 
BRANCH  19  20
HETATM   20  C   UNL     1      40.821 -11.531   4.051  1.00  0.00     0.248 C 
HETATM   21  N   UNL     1      40.000 -12.556   3.632  1.00  0.00    -0.326 N 
HETATM   22  H   UNL     1      39.377 -12.988   4.307  1.00  0.00     0.169 HD
HETATM   23  O   UNL     1      41.662 -10.920   3.393  1.00  0.00    -0.271 OA
BRANCH  21  24
HETATM   24  C   UNL     1      39.928 -13.110   2.332  1.00  0.00     0.037 A 
HETATM   25  C   UNL     1      39.676 -12.355   1.179  1.00  0.00     0.061 A 
HETATM   26  C   UNL     1      39.628 -13.035  -0.019  1.00  0.00     0.065 A 
HETATM   27  C   UNL     1      39.821 -14.411  -0.108  1.00  0.00     0.063 A 
HETATM   28  N   UNL     1      39.395 -12.554  -1.303  1.00  0.00    -0.306 N 
HETATM   29  N   UNL     1      39.709 -14.776  -1.443  1.00  0.00    -0.307 N 
HETATM   30  C   UNL     1      40.071 -15.183   0.998  1.00  0.00     0.034 A 
HETATM   31  C   UNL     1      39.441 -13.629  -2.203  1.00  0.00     0.325 A 
HETATM   32  H   UNL     1      39.794 -15.699  -1.841  1.00  0.00     0.170 HD
HETATM   33  O   UNL     1      39.280 -13.574  -3.408  1.00  0.00    -0.247 OA
HETATM   34  C   UNL     1      40.122 -14.515   2.230  1.00  0.00     0.032 A 
HETATM   35  H   UNL     1      39.216 -11.604  -1.585  1.00  0.00     0.170 HD
ENDBRANCH  21  24
ENDBRANCH  19  20
ENDBRANCH   1  19
TORSDOF 7
ENDMDL
MODEL 8
REMARK VINA RESULT:      -7.6      3.433      5.426
REMARK  7 active torsions:
REMARK  status: ('A' for Active; 'I' for Inactive)
REMARK    1  A    between atoms: O_2  and  C_3 
REMARK    2  A    between atoms: C_6  and  C_7 
REMARK    3  A    between atoms: C_7  and  N_8 
REMARK    4  A    between atoms: C_7  and  C_25 
REMARK    5  A    between atoms: N_8  and  C_11 
REMARK    6  A    between atoms: C_11  and  C_12 
REMARK       I    between atoms: C_12  and  N_13 
REMARK    7  A    between atoms: N_13  and  C_14 
ROOT
HETATM    1  N   UNL     1      41.620 -15.466   1.345  1.00  0.00    -0.055 N 
HETATM    2  H   UNL     1      42.259 -14.735   0.992  1.00  0.00     0.278 HD
HETATM    3  H   UNL     1      41.939 -16.316   0.871  1.00  0.00     0.278 HD
ENDROOT
BRANCH   1   4
HETATM    4  C   UNL     1      41.781 -15.592   2.824  1.00  0.00     0.252 C 
BRANCH   4   5
HETATM    5  C   UNL     1      42.193 -14.282   3.475  1.00  0.00    -0.023 A 
HETATM    6  C   UNL     1      43.108 -13.441   2.814  1.00  0.00     0.012 A 
HETATM    7  C   UNL     1      43.492 -12.212   3.364  1.00  0.00     0.037 A 
HETATM    8  C   UNL     1      42.962 -11.794   4.581  1.00  0.00     0.068 A 
HETATM    9  C   UNL     1      42.057 -12.621   5.247  1.00  0.00     0.037 A 
HETATM   10  C   UNL     1      41.669 -13.849   4.703  1.00  0.00     0.012 A 
BRANCH   8  11
HETATM   11  O   UNL     1      43.241 -10.620   5.221  1.00  0.00    -0.356 OA
HETATM   12  C   UNL     1      42.204 -10.050   6.012  1.00  0.00     0.210 C 
ENDBRANCH   8  11
ENDBRANCH   4   5
BRANCH   4  13
HETATM   13  C   UNL     1      42.671 -16.761   3.211  1.00  0.00    -0.023 A 
HETATM   14  C   UNL     1      42.787 -17.863   2.342  1.00  0.00     0.009 A 
HETATM   15  C   UNL     1      43.615 -18.940   2.663  1.00  0.00     0.001 A 
HETATM   16  C   UNL     1      44.335 -18.935   3.854  1.00  0.00     0.000 A 
HETATM   17  C   UNL     1      44.225 -17.859   4.729  1.00  0.00     0.001 A 
HETATM   18  C   UNL     1      43.397 -16.780   4.415  1.00  0.00     0.009 A 
ENDBRANCH   4  13
ENDBRANCH   1   4
BRANCH   1  19
HETATM   19  C   UNL     1      40.236 -15.123   0.854  1.00  0.00     0.336 C 
BRANCH  19  20
HETATM   20  C   UNL     1      40.135 -13.617   0.610  1.00  0.00     0.248 C 
HETATM   21  N   UNL     1      41.007 -13.135  -0.343  1.00  0.00    -0.326 N 
HETATM   22  H   UNL     1      41.657 -13.781  -0.779  1.00  0.00     0.169 HD
HETATM   23  O   UNL     1      39.310 -12.985   1.269  1.00  0.00    -0.271 OA
BRANCH  21  24
HETATM   24  C   UNL     1      41.119 -11.798  -0.792  1.00  0.00     0.037 A 
HETATM   25  C   UNL     1      41.501 -10.731   0.032  1.00  0.00     0.061 A 
HETATM   26  C   UNL     1      41.560  -9.481  -0.546  1.00  0.00     0.065 A 
HETATM   27  C   UNL     1      41.260  -9.261  -1.887  1.00  0.00     0.063 A 
HETATM   28  N   UNL     1      41.898  -8.257   0.022  1.00  0.00    -0.306 N 
HETATM   29  N   UNL     1      41.415  -7.905  -2.145  1.00  0.00    -0.307 N 
HETATM   30  C   UNL     1      40.884 -10.279  -2.725  1.00  0.00     0.034 A 
HETATM   31  C   UNL     1      41.811  -7.263  -0.964  1.00  0.00     0.325 A 
HETATM   32  H   UNL     1      41.272  -7.422  -3.019  1.00  0.00     0.170 HD
HETATM   33  O   UNL     1      42.036  -6.076  -0.819  1.00  0.00    -0.247 OA
HETATM   34  C   UNL     1      40.814 -11.561  -2.161  1.00  0.00     0.032 A 
HETATM   35  H   UNL     1      42.163  -8.069   0.976  1.00  0.00     0.170 HD
ENDBRANCH  21  24
ENDBRANCH  19  20
ENDBRANCH   1  19
TORSDOF 7
ENDMDL
MODEL 9
REMARK VINA RESULT:      -7.5     15.639     17.489
REMARK  7 active torsions:
REMARK  status: ('A' for Active; 'I' for Inactive)
REMARK    1  A    between atoms: O_2  and  C_3 
REMARK    2  A    between atoms: C_6  and  C_7 
REMARK    3  A    between atoms: C_7  and  N_8 
REMARK    4  A    between atoms: C_7  and  C_25 
REMARK    5  A    between atoms: N_8  and  C_11 
REMARK    6  A    between atoms: C_11  and  C_12 
REMARK       I    between atoms: C_12  and  N_13 
REMARK    7  A    between atoms: N_13  and  C_14 
ROOT
HETATM    1  N   UNL     1      45.928 -28.318   0.781  1.00  0.00    -0.055 N 
HETATM    2  H   UNL     1      46.676 -27.637   0.567  1.00  0.00     0.278 HD
HETATM    3  H   UNL     1      45.069 -27.819   0.531  1.00  0.00     0.278 HD
ENDROOT
BRANCH   1   4
HETATM    4  C   UNL     1      46.104 -29.531  -0.073  1.00  0.00     0.252 C 
BRANCH   4   5
HETATM    5  C   UNL     1      47.557 -29.967  -0.166  1.00  0.00    -0.023 A 
HETATM    6  C   UNL     1      47.999 -31.060   0.602  1.00  0.00     0.012 A 
HETATM    7  C   UNL     1      49.322 -31.514   0.524  1.00  0.00     0.037 A 
HETATM    8  C   UNL     1      50.227 -30.889  -0.329  1.00  0.00     0.068 A 
HETATM    9  C   UNL     1      49.800 -29.801  -1.091  1.00  0.00     0.037 A 
HETATM   10  C   UNL     1      48.481 -29.344  -1.019  1.00  0.00     0.012 A 
BRANCH   8  11
HETATM   11  O   UNL     1      51.536 -31.234  -0.508  1.00  0.00    -0.356 OA
HETATM   12  C   UNL     1      51.993 -31.370  -1.849  1.00  0.00     0.210 C 
ENDBRANCH   8  11
ENDBRANCH   4   5
BRANCH   4  13
HETATM   13  C   UNL     1      45.431 -29.386  -1.427  1.00  0.00    -0.023 A 
HETATM   14  C   UNL     1      45.530 -28.168  -2.125  1.00  0.00     0.009 A 
HETATM   15  C   UNL     1      44.940 -28.017  -3.381  1.00  0.00     0.001 A 
HETATM   16  C   UNL     1      44.242 -29.074  -3.956  1.00  0.00     0.000 A 
HETATM   17  C   UNL     1      44.125 -30.283  -3.275  1.00  0.00     0.001 A 
HETATM   18  C   UNL     1      44.711 -30.439  -2.018  1.00  0.00     0.009 A 
ENDBRANCH   4  13
ENDBRANCH   1   4
BRANCH   1  19
HETATM   19  C   UNL     1      45.944 -28.545   2.272  1.00  0.00     0.336 C 
BRANCH  19  20
HETATM   20  C   UNL     1      44.940 -29.639   2.636  1.00  0.00     0.248 C 
HETATM   21  N   UNL     1      43.621 -29.292   2.433  1.00  0.00    -0.326 N 
HETATM   22  H   UNL     1      43.409 -28.357   2.100  1.00  0.00     0.169 HD
HETATM   23  O   UNL     1      45.383 -30.702   3.070  1.00  0.00    -0.271 OA
BRANCH  21  24
HETATM   24  C   UNL     1      42.484 -30.106   2.655  1.00  0.00     0.037 A 
HETATM   25  C   UNL     1      41.872 -30.260   3.905  1.00  0.00     0.061 A 
HETATM   26  C   UNL     1      40.775 -31.092   3.969  1.00  0.00     0.065 A 
HETATM   27  C   UNL     1      40.276 -31.761   2.854  1.00  0.00     0.063 A 
HETATM   28  N   UNL     1      39.983 -31.432   5.060  1.00  0.00    -0.306 N 
HETATM   29  N   UNL     1      39.179 -32.510   3.257  1.00  0.00    -0.307 N 
HETATM   30  C   UNL     1      40.848 -31.635   1.615  1.00  0.00     0.034 A 
HETATM   31  C   UNL     1      38.982 -32.317   4.632  1.00  0.00     0.325 A 
HETATM   32  H   UNL     1      38.596 -33.107   2.691  1.00  0.00     0.170 HD
HETATM   33  O   UNL     1      38.113 -32.819   5.322  1.00  0.00    -0.247 OA
HETATM   34  C   UNL     1      41.968 -30.795   1.523  1.00  0.00     0.032 A 
HETATM   35  H   UNL     1      40.076 -31.122   6.014  1.00  0.00     0.170 HD
ENDBRANCH  21  24
ENDBRANCH  19  20
ENDBRANCH   1  19
TORSDOF 7
ENDMDL
MODEL 10
REMARK VINA RESULT:      -7.4      5.378      9.680
REMARK  7 active torsions:
REMARK  status: ('A' for Active; 'I' for Inactive)
REMARK    1  A    between atoms: O_2  and  C_3 
REMARK    2  A    between atoms: C_6  and  C_7 
REMARK    3  A    between atoms: C_7  and  N_8 
REMARK    4  A    between atoms: C_7  and  C_25 
REMARK    5  A    between atoms: N_8  and  C_11 
REMARK    6  A    between atoms: C_11  and  C_12 
REMARK       I    between atoms: C_12  and  N_13 
REMARK    7  A    between atoms: N_13  and  C_14 
ROOT
HETATM    1  N   UNL     1      41.528  -8.661   8.480  1.00  0.00    -0.055 N 
HETATM    2  H   UNL     1      41.158  -7.799   8.915  1.00  0.00     0.278 HD
HETATM    3  H   UNL     1      42.046  -8.317   7.666  1.00  0.00     0.278 HD
ENDROOT
BRANCH   1   4
HETATM    4  C   UNL     1      42.444  -9.345   9.440  1.00  0.00     0.252 C 
BRANCH   4   5
HETATM    5  C   UNL     1      42.562  -8.599  10.759  1.00  0.00    -0.023 A 
HETATM    6  C   UNL     1      42.178  -7.247  10.823  1.00  0.00     0.012 A 
HETATM    7  C   UNL     1      42.242  -6.530  12.025  1.00  0.00     0.037 A 
HETATM    8  C   UNL     1      42.684  -7.154  13.188  1.00  0.00     0.068 A 
HETATM    9  C   UNL     1      43.072  -8.492  13.135  1.00  0.00     0.037 A 
HETATM   10  C   UNL     1      43.009  -9.213  11.939  1.00  0.00     0.012 A 
BRANCH   8  11
HETATM   11  O   UNL     1      42.785  -6.578  14.423  1.00  0.00    -0.356 OA
HETATM   12  C   UNL     1      41.582  -6.422  15.167  1.00  0.00     0.210 C 
ENDBRANCH   8  11
ENDBRANCH   4   5
BRANCH   4  13
HETATM   13  C   UNL     1      43.788  -9.681   8.817  1.00  0.00    -0.023 A 
HETATM   14  C   UNL     1      43.976 -10.934   8.204  1.00  0.00     0.009 A 
HETATM   15  C   UNL     1      45.194 -11.259   7.604  1.00  0.00     0.001 A 
HETATM   16  C   UNL     1      46.241 -10.342   7.611  1.00  0.00     0.000 A 
HETATM   17  C   UNL     1      46.077  -9.102   8.221  1.00  0.00     0.001 A 
HETATM   18  C   UNL     1      44.861  -8.772   8.825  1.00  0.00     0.009 A 
ENDBRANCH   4  13
ENDBRANCH   1   4
BRANCH   1  19
HETATM   19  C   UNL     1      40.344  -9.464   8.002  1.00  0.00     0.336 C 
BRANCH  19  20
HETATM   20  C   UNL     1      40.714 -10.213   6.722  1.00  0.00     0.248 C 
HETATM   21  N   UNL     1      40.444 -11.565   6.754  1.00  0.00    -0.326 N 
HETATM   22  H   UNL     1      40.064 -11.965   7.606  1.00  0.00     0.169 HD
HETATM   23  O   UNL     1      41.210  -9.564   5.802  1.00  0.00    -0.271 OA
BRANCH  21  24
HETATM   24  C   UNL     1      40.655 -12.499   5.712  1.00  0.00     0.037 A 
HETATM   25  C   UNL     1      39.700 -12.796   4.731  1.00  0.00     0.061 A 
HETATM   26  C   UNL     1      40.046 -13.734   3.783  1.00  0.00     0.065 A 
HETATM   27  C   UNL     1      41.284 -14.371   3.775  1.00  0.00     0.063 A 
HETATM   28  N   UNL     1      39.308 -14.223   2.710  1.00  0.00    -0.306 N 
HETATM   29  N   UNL     1      41.309 -15.249   2.700  1.00  0.00    -0.307 N 
HETATM   30  C   UNL     1      42.244 -14.106   4.717  1.00  0.00     0.034 A 
HETATM   31  C   UNL     1      40.083 -15.171   2.024  1.00  0.00     0.325 A 
HETATM   32  H   UNL     1      42.060 -15.861   2.418  1.00  0.00     0.170 HD
HETATM   33  O   UNL     1      39.753 -15.800   1.036  1.00  0.00    -0.247 OA
HETATM   34  C   UNL     1      41.915 -13.157   5.696  1.00  0.00     0.032 A 
HETATM   35  H   UNL     1      38.372 -13.971   2.435  1.00  0.00     0.170 HD
ENDBRANCH  21  24
ENDBRANCH  19  20
ENDBRANCH   1  19
TORSDOF 7
ENDMDL
