MODEL 1
REMARK VINA RESULT:     -10.1      0.000      0.000
REMARK  6 active torsions:
REMARK  status: ('A' for Active; 'I' for Inactive)
REMARK    1  A    between atoms: C_8  and  C_9 
REMARK    2  A    between atoms: C_9  and  C_10 
REMARK    3  A    between atoms: C_10  and  N_11 
REMARK       I    between atoms: N_11  and  C_12 
REMARK    4  A    between atoms: C_12  and  C_13 
REMARK    5  A    between atoms: C_18  and  C_19 
REMARK    6  A    between atoms: C_29  and  C_30 
ROOT
HETATM    1  C   UNL     1      39.891 -11.493   5.917  1.00  0.00     0.148 A 
HETATM    2  N   UNL     1      40.639 -11.150   4.842  1.00  0.00    -0.165 NA
HETATM    3  N   UNL     1      40.854 -12.329   4.223  1.00  0.00    -0.240 N 
HETATM    4  C   UNL     1      40.184 -13.376   4.783  1.00  0.00     0.123 A 
HETATM    5  N   UNL     1      40.208 -14.609   4.250  1.00  0.00    -0.366 N 
HETATM    6  C   UNL     1      40.885 -14.933   3.005  1.00  0.00     0.118 C 
HETATM    7  C   UNL     1      41.347 -13.690   2.224  1.00  0.00     0.066 C 
HETATM    8  C   UNL     1      41.705 -12.444   3.057  1.00  0.00     0.221 C 
HETATM    9  C   UNL     1      39.581 -12.880   5.906  1.00  0.00     0.088 A 
HETATM   10  H   UNL     1      39.749 -15.392   4.714  1.00  0.00     0.161 HD
ENDROOT
BRANCH   1  11
HETATM   11  C   UNL     1      39.469 -10.534   6.948  1.00  0.00     0.272 C 
HETATM   12  N   UNL     1      40.034  -9.283   6.829  1.00  0.00    -0.355 N 
HETATM   13  H   UNL     1      40.548  -9.105   5.970  1.00  0.00     0.162 HD
HETATM   14  O   UNL     1      38.672 -10.828   7.834  1.00  0.00    -0.266 OA
BRANCH  12  15
HETATM   15  C   UNL     1      39.643  -8.208   7.716  1.00  0.00     0.127 C 
BRANCH  15  16
HETATM   16  C   UNL     1      40.806  -7.599   8.496  1.00  0.00     0.060 C 
BRANCH  16  17
HETATM   17  C   UNL     1      41.438  -8.563   9.451  1.00  0.00    -0.029 A 
HETATM   18  C   UNL     1      42.825  -8.901   9.552  1.00  0.00    -0.002 A 
HETATM   19  C   UNL     1      43.989  -8.494   8.866  1.00  0.00     0.014 A 
HETATM   20  C   UNL     1      42.953  -9.844  10.573  1.00  0.00     0.042 A 
HETATM   21  C   UNL     1      45.226  -9.043   9.222  1.00  0.00     0.001 A 
HETATM   22  C   UNL     1      45.319  -9.984  10.245  1.00  0.00     0.002 A 
HETATM   23  C   UNL     1      44.182 -10.402  10.942  1.00  0.00     0.030 A 
HETATM   24  N   UNL     1      41.694 -10.070  11.076  1.00  0.00    -0.365 N 
HETATM   25  H   UNL     1      41.483 -10.710  11.829  1.00  0.00     0.165 HD
HETATM   26  C   UNL     1      40.773  -9.311  10.405  1.00  0.00     0.096 A 
ENDBRANCH  16  17
ENDBRANCH  15  16
ENDBRANCH  12  15
ENDBRANCH   1  11
BRANCH   8  27
HETATM   27  C   UNL     1      43.161 -12.385   3.458  1.00  0.00     0.409 C 
HETATM   28  F   UNL     1      43.399 -12.822   4.709  1.00  0.00    -0.169 F 
HETATM   29  F   UNL     1      43.904 -13.158   2.621  1.00  0.00    -0.169 F 
HETATM   30  F   UNL     1      43.670 -11.135   3.361  1.00  0.00    -0.169 F 
ENDBRANCH   8  27
BRANCH   6  31
HETATM   31  C   UNL     1      41.932 -16.010   3.232  1.00  0.00    -0.033 A 
HETATM   32  C   UNL     1      41.974 -17.118   2.363  1.00  0.00     0.049 A 
HETATM   33  C   UNL     1      42.858 -18.142   2.642  1.00  0.00     0.105 A 
HETATM   34  C   UNL     1      43.708 -18.094   3.719  1.00  0.00     0.105 A 
HETATM   35  O   UNL     1      42.979 -19.299   1.936  1.00  0.00    -0.323 OA
HETATM   36  O   UNL     1      44.476 -19.211   3.825  1.00  0.00    -0.323 OA
HETATM   37  C   UNL     1      43.724 -17.020   4.578  1.00  0.00     0.040 A 
HETATM   38  C   UNL     1      43.968 -19.994   2.726  1.00  0.00     0.352 A 
HETATM   39  C   UNL     1      42.820 -15.980   4.335  1.00  0.00     0.012 A 
ENDBRANCH   6  31
TORSDOF 6
ENDMDL
MODEL 2
REMARK VINA RESULT:      -9.9      1.744      2.141
REMARK  6 active torsions:
REMARK  status: ('A' for Active; 'I' for Inactive)
REMARK    1  A    between atoms: C_8  and  C_9 
REMARK    2  A    between atoms: C_9  and  C_10 
REMARK    3  A    between atoms: C_10  and  N_11 
REMARK       I    between atoms: N_11  and  C_12 
REMARK    4  A    between atoms: C_12  and  C_13 
REMARK    5  A    between atoms: C_18  and  C_19 
REMARK    6  A    between atoms: C_29  and  C_30 
ROOT
HETATM    1  C   UNL     1      40.138 -11.391   5.995  1.00  0.00     0.148 A 
HETATM    2  N   UNL     1      40.821 -11.112   4.861  1.00  0.00    -0.165 NA
HETATM    3  N   UNL     1      40.967 -12.319   4.280  1.00  0.00    -0.240 N 
HETATM    4  C   UNL     1      40.311 -13.324   4.925  1.00  0.00     0.123 A 
HETATM    5  N   UNL     1      40.270 -14.578   4.443  1.00  0.00    -0.366 N 
HETATM    6  C   UNL     1      40.855 -14.970   3.171  1.00  0.00     0.118 C 
HETATM    7  C   UNL     1      41.295 -13.771   2.311  1.00  0.00     0.066 C 
HETATM    8  C   UNL     1      41.737 -12.503   3.067  1.00  0.00     0.221 C 
HETATM    9  C   UNL     1      39.794 -12.769   6.063  1.00  0.00     0.088 A 
HETATM   10  H   UNL     1      39.824 -15.330   4.967  1.00  0.00     0.161 HD
ENDROOT
BRANCH   1  11
HETATM   11  C   UNL     1      39.808 -10.381   7.011  1.00  0.00     0.272 C 
HETATM   12  N   UNL     1      40.825 -10.111   7.900  1.00  0.00    -0.355 N 
HETATM   13  H   UNL     1      41.732 -10.509   7.673  1.00  0.00     0.162 HD
HETATM   14  O   UNL     1      38.715  -9.821   7.052  1.00  0.00    -0.266 OA
BRANCH  12  15
HETATM   15  C   UNL     1      40.679  -9.073   8.898  1.00  0.00     0.127 C 
BRANCH  15  16
HETATM   16  C   UNL     1      41.788  -9.066   9.947  1.00  0.00     0.060 C 
BRANCH  16  17
HETATM   17  C   UNL     1      41.268  -9.167  11.348  1.00  0.00    -0.029 A 
HETATM   18  C   UNL     1      41.799  -8.536  12.518  1.00  0.00    -0.002 A 
HETATM   19  C   UNL     1      42.890  -7.676  12.761  1.00  0.00     0.014 A 
HETATM   20  C   UNL     1      41.000  -8.917  13.597  1.00  0.00     0.042 A 
HETATM   21  C   UNL     1      43.142  -7.235  14.066  1.00  0.00     0.001 A 
HETATM   22  C   UNL     1      42.327  -7.636  15.122  1.00  0.00     0.002 A 
HETATM   23  C   UNL     1      41.237  -8.484  14.906  1.00  0.00     0.030 A 
HETATM   24  N   UNL     1      40.021  -9.745  13.103  1.00  0.00    -0.365 N 
HETATM   25  H   UNL     1      39.296 -10.173  13.664  1.00  0.00     0.165 HD
HETATM   26  C   UNL     1      40.174  -9.908  11.754  1.00  0.00     0.096 A 
ENDBRANCH  16  17
ENDBRANCH  15  16
ENDBRANCH  12  15
ENDBRANCH   1  11
BRANCH   8  27
HETATM   27  C   UNL     1      43.217 -12.467   3.370  1.00  0.00     0.409 C 
HETATM   28  F   UNL     1      43.529 -12.892   4.608  1.00  0.00    -0.169 F 
HETATM   29  F   UNL     1      43.888 -13.265   2.497  1.00  0.00    -0.169 F 
HETATM   30  F   UNL     1      43.741 -11.228   3.221  1.00  0.00    -0.169 F 
ENDBRANCH   8  27
BRANCH   6  31
HETATM   31  C   UNL     1      41.889 -16.064   3.375  1.00  0.00    -0.033 A 
HETATM   32  C   UNL     1      41.975 -17.109   2.433  1.00  0.00     0.049 A 
HETATM   33  C   UNL     1      42.843 -18.153   2.683  1.00  0.00     0.105 A 
HETATM   34  C   UNL     1      43.638 -18.184   3.802  1.00  0.00     0.105 A 
HETATM   35  O   UNL     1      42.999 -19.258   1.905  1.00  0.00    -0.323 OA
HETATM   36  O   UNL     1      44.399 -19.309   3.868  1.00  0.00    -0.323 OA
HETATM   37  C   UNL     1      43.611 -17.173   4.734  1.00  0.00     0.040 A 
HETATM   38  C   UNL     1      43.946 -20.011   2.693  1.00  0.00     0.352 A 
HETATM   39  C   UNL     1      42.720 -16.115   4.520  1.00  0.00     0.012 A 
ENDBRANCH   6  31
TORSDOF 6
ENDMDL
MODEL 3
REMARK VINA RESULT:      -9.7      4.560      7.451
REMARK  6 active torsions:
REMARK  status: ('A' for Active; 'I' for Inactive)
REMARK    1  A    between atoms: C_8  and  C_9 
REMARK    2  A    between atoms: C_9  and  C_10 
REMARK    3  A    between atoms: C_10  and  N_11 
REMARK       I    between atoms: N_11  and  C_12 
REMARK    4  A    between atoms: C_12  and  C_13 
REMARK    5  A    between atoms: C_18  and  C_19 
REMARK    6  A    between atoms: C_29  and  C_30 
ROOT
HETATM    1  C   UNL     1      39.836 -12.547   3.185  1.00  0.00     0.148 A 
HETATM    2  N   UNL     1      40.124 -12.852   4.472  1.00  0.00    -0.165 NA
HETATM    3  N   UNL     1      41.123 -13.751   4.362  1.00  0.00    -0.240 N 
HETATM    4  C   UNL     1      41.559 -13.938   3.084  1.00  0.00     0.123 A 
HETATM    5  N   UNL     1      42.606 -14.729   2.793  1.00  0.00    -0.366 N 
HETATM    6  C   UNL     1      43.408 -15.404   3.801  1.00  0.00     0.118 C 
HETATM    7  C   UNL     1      43.113 -14.923   5.233  1.00  0.00     0.066 C 
HETATM    8  C   UNL     1      41.682 -14.427   5.514  1.00  0.00     0.221 C 
HETATM    9  C   UNL     1      40.723 -13.203   2.289  1.00  0.00     0.088 A 
HETATM   10  H   UNL     1      42.882 -14.902   1.828  1.00  0.00     0.161 HD
ENDROOT
BRANCH   1  11
HETATM   11  C   UNL     1      38.741 -11.648   2.792  1.00  0.00     0.272 C 
HETATM   12  N   UNL     1      38.067 -12.032   1.654  1.00  0.00    -0.355 N 
HETATM   13  H   UNL     1      38.284 -12.960   1.299  1.00  0.00     0.162 HD
HETATM   14  O   UNL     1      38.451 -10.643   3.436  1.00  0.00    -0.266 OA
BRANCH  12  15
HETATM   15  C   UNL     1      36.907 -11.298   1.198  1.00  0.00     0.127 C 
BRANCH  15  16
HETATM   16  C   UNL     1      37.122 -10.564  -0.124  1.00  0.00     0.060 C 
BRANCH  16  17
HETATM   17  C   UNL     1      38.437 -10.887  -0.764  1.00  0.00    -0.029 A 
HETATM   18  C   UNL     1      38.786 -12.079  -1.475  1.00  0.00    -0.002 A 
HETATM   19  C   UNL     1      38.096 -13.265  -1.804  1.00  0.00     0.014 A 
HETATM   20  C   UNL     1      40.112 -11.947  -1.888  1.00  0.00     0.042 A 
HETATM   21  C   UNL     1      38.755 -14.268  -2.525  1.00  0.00     0.001 A 
HETATM   22  C   UNL     1      40.080 -14.105  -2.921  1.00  0.00     0.002 A 
HETATM   23  C   UNL     1      40.785 -12.939  -2.611  1.00  0.00     0.030 A 
HETATM   24  N   UNL     1      40.553 -10.722  -1.449  1.00  0.00    -0.365 N 
HETATM   25  H   UNL     1      41.483 -10.357  -1.606  1.00  0.00     0.165 HD
HETATM   26  C   UNL     1      39.557 -10.077  -0.766  1.00  0.00     0.096 A 
ENDBRANCH  16  17
ENDBRANCH  15  16
ENDBRANCH  12  15
ENDBRANCH   1  11
BRANCH   8  27
HETATM   27  C   UNL     1      40.749 -15.517   5.991  1.00  0.00     0.409 C 
HETATM   28  F   UNL     1      39.677 -15.059   6.663  1.00  0.00    -0.169 F 
HETATM   29  F   UNL     1      40.278 -16.222   4.928  1.00  0.00    -0.169 F 
HETATM   30  F   UNL     1      41.374 -16.416   6.786  1.00  0.00    -0.169 F 
ENDBRANCH   8  27
BRANCH   6  31
HETATM   31  C   UNL     1      43.386 -16.907   3.580  1.00  0.00    -0.033 A 
HETATM   32  C   UNL     1      43.777 -17.759   4.632  1.00  0.00     0.049 A 
HETATM   33  C   UNL     1      43.857 -19.115   4.388  1.00  0.00     0.105 A 
HETATM   34  C   UNL     1      43.541 -19.652   3.165  1.00  0.00     0.105 A 
HETATM   35  O   UNL     1      44.270 -20.058   5.277  1.00  0.00    -0.323 OA
HETATM   36  O   UNL     1      43.709 -21.001   3.130  1.00  0.00    -0.323 OA
HETATM   37  C   UNL     1      43.126 -18.864   2.117  1.00  0.00     0.040 A 
HETATM   38  C   UNL     1      44.227 -21.243   4.454  1.00  0.00     0.352 A 
HETATM   39  C   UNL     1      43.062 -17.482   2.327  1.00  0.00     0.012 A 
ENDBRANCH   6  31
TORSDOF 6
ENDMDL
MODEL 4
REMARK VINA RESULT:      -9.6      1.731      2.155
REMARK  6 active torsions:
REMARK  status: ('A' for Active; 'I' for Inactive)
REMARK    1  A    between atoms: C_8  and  C_9 
REMARK    2  A    between atoms: C_9  and  C_10 
REMARK    3  A    between atoms: C_10  and  N_11 
REMARK       I    between atoms: N_11  and  C_12 
REMARK    4  A    between atoms: C_12  and  C_13 
REMARK    5  A    between atoms: C_18  and  C_19 
REMARK    6  A    between atoms: C_29  and  C_30 
ROOT
HETATM    1  C   UNL     1      40.311 -10.864   6.751  1.00  0.00     0.148 A 
HETATM    2  N   UNL     1      41.618 -10.669   6.461  1.00  0.00    -0.165 NA
HETATM    3  N   UNL     1      41.969 -11.803   5.821  1.00  0.00    -0.240 N 
HETATM    4  C   UNL     1      40.925 -12.648   5.587  1.00  0.00     0.123 A 
HETATM    5  N   UNL     1      41.068 -13.785   4.884  1.00  0.00    -0.366 N 
HETATM    6  C   UNL     1      42.315 -14.189   4.255  1.00  0.00     0.118 C 
HETATM    7  C   UNL     1      43.379 -13.077   4.247  1.00  0.00     0.066 C 
HETATM    8  C   UNL     1      43.331 -12.066   5.409  1.00  0.00     0.221 C 
HETATM    9  C   UNL     1      39.842 -12.092   6.209  1.00  0.00     0.088 A 
HETATM   10  H   UNL     1      40.291 -14.433   4.768  1.00  0.00     0.161 HD
ENDROOT
BRANCH   1  11
HETATM   11  C   UNL     1      39.503  -9.913   7.528  1.00  0.00     0.272 C 
HETATM   12  N   UNL     1      39.667 -10.005   8.892  1.00  0.00    -0.355 N 
HETATM   13  H   UNL     1      40.431 -10.596   9.210  1.00  0.00     0.162 HD
HETATM   14  O   UNL     1      38.751  -9.100   6.996  1.00  0.00    -0.266 OA
BRANCH  12  15
HETATM   15  C   UNL     1      39.009  -9.072   9.781  1.00  0.00     0.127 C 
BRANCH  15  16
HETATM   16  C   UNL     1      39.971  -8.273  10.658  1.00  0.00     0.060 C 
BRANCH  16  17
HETATM   17  C   UNL     1      41.181  -9.056  11.063  1.00  0.00    -0.029 A 
HETATM   18  C   UNL     1      42.469  -9.048  10.439  1.00  0.00    -0.002 A 
HETATM   19  C   UNL     1      43.020  -8.371   9.331  1.00  0.00     0.014 A 
HETATM   20  C   UNL     1      43.282  -9.933  11.148  1.00  0.00     0.042 A 
HETATM   21  C   UNL     1      44.353  -8.605   8.974  1.00  0.00     0.001 A 
HETATM   22  C   UNL     1      45.138  -9.496   9.702  1.00  0.00     0.002 A 
HETATM   23  C   UNL     1      44.617 -10.177  10.806  1.00  0.00     0.030 A 
HETATM   24  N   UNL     1      42.521 -10.457  12.165  1.00  0.00    -0.365 N 
HETATM   25  H   UNL     1      42.854 -11.131  12.842  1.00  0.00     0.165 HD
HETATM   26  C   UNL     1      41.254  -9.943  12.121  1.00  0.00     0.096 A 
ENDBRANCH  16  17
ENDBRANCH  15  16
ENDBRANCH  12  15
ENDBRANCH   1  11
BRANCH   8  27
HETATM   27  C   UNL     1      44.173 -12.473   6.596  1.00  0.00     0.409 C 
HETATM   28  F   UNL     1      45.006 -11.508   7.028  1.00  0.00    -0.169 F 
HETATM   29  F   UNL     1      43.370 -12.800   7.643  1.00  0.00    -0.169 F 
HETATM   30  F   UNL     1      44.921 -13.572   6.343  1.00  0.00    -0.169 F 
ENDBRANCH   8  27
BRANCH   6  31
HETATM   31  C   UNL     1      42.763 -15.542   4.781  1.00  0.00    -0.033 A 
HETATM   32  C   UNL     1      43.363 -16.457   3.894  1.00  0.00     0.049 A 
HETATM   33  C   UNL     1      43.668 -17.721   4.356  1.00  0.00     0.105 A 
HETATM   34  C   UNL     1      43.431 -18.096   5.656  1.00  0.00     0.105 A 
HETATM   35  O   UNL     1      44.195 -18.732   3.614  1.00  0.00    -0.323 OA
HETATM   36  O   UNL     1      43.782 -19.387   5.898  1.00  0.00    -0.323 OA
HETATM   37  C   UNL     1      42.875 -17.228   6.566  1.00  0.00     0.040 A 
HETATM   38  C   UNL     1      44.211 -19.800   4.585  1.00  0.00     0.352 A 
HETATM   39  C   UNL     1      42.530 -15.948   6.118  1.00  0.00     0.012 A 
ENDBRANCH   6  31
TORSDOF 6
ENDMDL
MODEL 5
REMARK VINA RESULT:      -9.4      3.619     10.150
REMARK  6 active torsions:
REMARK  status: ('A' for Active; 'I' for Inactive)
REMARK    1  A    between atoms: C_8  and  C_9 
REMARK    2  A    between atoms: C_9  and  C_10 
REMARK    3  A    between atoms: C_10  and  N_11 
REMARK       I    between atoms: N_11  and  C_12 
REMARK    4  A    between atoms: C_12  and  C_13 
REMARK    5  A    between atoms: C_18  and  C_19 
REMARK    6  A    between atoms: C_29  and  C_30 
ROOT
HETATM    1  C   UNL     1      43.151 -11.559   6.221  1.00  0.00     0.148 A 
HETATM    2  N   UNL     1      42.926 -10.226   6.154  1.00  0.00    -0.165 NA
HETATM    3  N   UNL     1      43.259  -9.791   7.386  1.00  0.00    -0.240 N 
HETATM    4  C   UNL     1      43.793 -10.757   8.185  1.00  0.00     0.123 A 
HETATM    5  N   UNL     1      44.265 -10.490   9.415  1.00  0.00    -0.366 N 
HETATM    6  C   UNL     1      44.313  -9.152   9.984  1.00  0.00     0.118 C 
HETATM    7  C   UNL     1      44.020  -8.045   8.956  1.00  0.00     0.066 C 
HETATM    8  C   UNL     1      43.078  -8.413   7.793  1.00  0.00     0.221 C 
HETATM    9  C   UNL     1      43.703 -11.925   7.479  1.00  0.00     0.088 A 
HETATM   10  H   UNL     1      44.607 -11.234  10.021  1.00  0.00     0.161 HD
ENDROOT
BRANCH   1  11
HETATM   11  C   UNL     1      42.852 -12.486   5.120  1.00  0.00     0.272 C 
HETATM   12  N   UNL     1      42.489 -13.752   5.522  1.00  0.00    -0.355 N 
HETATM   13  H   UNL     1      42.312 -13.871   6.517  1.00  0.00     0.162 HD
HETATM   14  O   UNL     1      42.915 -12.150   3.940  1.00  0.00    -0.266 OA
BRANCH  12  15
HETATM   15  C   UNL     1      42.077 -14.746   4.555  1.00  0.00     0.127 C 
BRANCH  15  16
HETATM   16  C   UNL     1      43.240 -15.457   3.868  1.00  0.00     0.060 C 
BRANCH  16  17
HETATM   17  C   UNL     1      43.538 -16.799   4.462  1.00  0.00    -0.029 A 
HETATM   18  C   UNL     1      43.564 -18.061   3.787  1.00  0.00    -0.002 A 
HETATM   19  C   UNL     1      43.345 -18.467   2.453  1.00  0.00     0.014 A 
HETATM   20  C   UNL     1      43.879 -19.036   4.734  1.00  0.00     0.042 A 
HETATM   21  C   UNL     1      43.445 -19.823   2.121  1.00  0.00     0.001 A 
HETATM   22  C   UNL     1      43.760 -20.772   3.091  1.00  0.00     0.002 A 
HETATM   23  C   UNL     1      43.985 -20.395   4.418  1.00  0.00     0.030 A 
HETATM   24  N   UNL     1      44.041 -18.394   5.938  1.00  0.00    -0.365 N 
HETATM   25  H   UNL     1      44.274 -18.855   6.807  1.00  0.00     0.165 HD
HETATM   26  C   UNL     1      43.832 -17.049   5.789  1.00  0.00     0.096 A 
ENDBRANCH  16  17
ENDBRANCH  15  16
ENDBRANCH  12  15
ENDBRANCH   1  11
BRANCH   8  27
HETATM   27  C   UNL     1      41.622  -8.136   8.085  1.00  0.00     0.409 C 
HETATM   28  F   UNL     1      40.898  -7.826   6.994  1.00  0.00    -0.169 F 
HETATM   29  F   UNL     1      41.045  -9.232   8.645  1.00  0.00    -0.169 F 
HETATM   30  F   UNL     1      41.460  -7.132   8.979  1.00  0.00    -0.169 F 
ENDBRANCH   8  27
BRANCH   6  31
HETATM   31  C   UNL     1      43.518  -9.094  11.277  1.00  0.00    -0.033 A 
HETATM   32  C   UNL     1      43.603  -7.941  12.081  1.00  0.00     0.049 A 
HETATM   33  C   UNL     1      42.963  -7.940  13.305  1.00  0.00     0.105 A 
HETATM   34  C   UNL     1      42.228  -9.016  13.740  1.00  0.00     0.105 A 
HETATM   35  O   UNL     1      42.995  -6.932  14.217  1.00  0.00    -0.323 OA
HETATM   36  O   UNL     1      41.702  -8.819  14.978  1.00  0.00    -0.323 OA
HETATM   37  C   UNL     1      42.093 -10.152  12.977  1.00  0.00     0.040 A 
HETATM   38  C   UNL     1      42.240  -7.520  15.297  1.00  0.00     0.352 A 
HETATM   39  C   UNL     1      42.754 -10.191  11.744  1.00  0.00     0.012 A 
ENDBRANCH   6  31
TORSDOF 6
ENDMDL
MODEL 6
REMARK VINA RESULT:      -9.1      3.328      4.745
REMARK  6 active torsions:
REMARK  status: ('A' for Active; 'I' for Inactive)
REMARK    1  A    between atoms: C_8  and  C_9 
REMARK    2  A    between atoms: C_9  and  C_10 
REMARK    3  A    between atoms: C_10  and  N_11 
REMARK       I    between atoms: N_11  and  C_12 
REMARK    4  A    between atoms: C_12  and  C_13 
REMARK    5  A    between atoms: C_18  and  C_19 
REMARK    6  A    between atoms: C_29  and  C_30 
ROOT
HETATM    1  C   UNL     1      42.444 -10.984   6.030  1.00  0.00     0.148 A 
HETATM    2  N   UNL     1      42.311 -12.318   6.215  1.00  0.00    -0.165 NA
HETATM    3  N   UNL     1      42.351 -12.812   4.961  1.00  0.00    -0.240 N 
HETATM    4  C   UNL     1      42.623 -11.876   4.009  1.00  0.00     0.123 A 
HETATM    5  N   UNL     1      42.790 -12.198   2.715  1.00  0.00    -0.366 N 
HETATM    6  C   UNL     1      42.764 -13.564   2.217  1.00  0.00     0.118 C 
HETATM    7  C   UNL     1      42.789 -14.619   3.338  1.00  0.00     0.066 C 
HETATM    8  C   UNL     1      42.146 -14.217   4.679  1.00  0.00     0.221 C 
HETATM    9  C   UNL     1      42.651 -10.673   4.659  1.00  0.00     0.088 A 
HETATM   10  H   UNL     1      42.934 -11.479   2.008  1.00  0.00     0.161 HD
ENDROOT
BRANCH   1  11
HETATM   11  C   UNL     1      42.380 -10.005   7.125  1.00  0.00     0.272 C 
HETATM   12  N   UNL     1      43.606  -9.626   7.626  1.00  0.00    -0.355 N 
HETATM   13  H   UNL     1      44.418  -9.931   7.096  1.00  0.00     0.162 HD
HETATM   14  O   UNL     1      41.316  -9.559   7.548  1.00  0.00    -0.266 OA
BRANCH  12  15
HETATM   15  C   UNL     1      43.705  -8.601   8.642  1.00  0.00     0.127 C 
BRANCH  15  16
HETATM   16  C   UNL     1      44.616  -8.976   9.809  1.00  0.00     0.060 C 
BRANCH  16  17
HETATM   17  C   UNL     1      43.865  -9.518  10.986  1.00  0.00    -0.029 A 
HETATM   18  C   UNL     1      43.293  -8.775  12.067  1.00  0.00    -0.002 A 
HETATM   19  C   UNL     1      43.227  -7.404  12.392  1.00  0.00     0.014 A 
HETATM   20  C   UNL     1      42.698  -9.692  12.935  1.00  0.00     0.042 A 
HETATM   21  C   UNL     1      42.578  -7.004  13.565  1.00  0.00     0.001 A 
HETATM   22  C   UNL     1      41.996  -7.945  14.412  1.00  0.00     0.002 A 
HETATM   23  C   UNL     1      42.044  -9.309  14.111  1.00  0.00     0.030 A 
HETATM   24  N   UNL     1      42.898 -10.943  12.403  1.00  0.00    -0.365 N 
HETATM   25  H   UNL     1      42.573 -11.803  12.823  1.00  0.00     0.165 HD
HETATM   26  C   UNL     1      43.604 -10.853  11.234  1.00  0.00     0.096 A 
ENDBRANCH  16  17
ENDBRANCH  15  16
ENDBRANCH  12  15
ENDBRANCH   1  11
BRANCH   8  27
HETATM   27  C   UNL     1      40.679 -14.566   4.772  1.00  0.00     0.409 C 
HETATM   28  F   UNL     1      40.215 -14.634   6.033  1.00  0.00    -0.169 F 
HETATM   29  F   UNL     1      39.938 -13.624   4.128  1.00  0.00    -0.169 F 
HETATM   30  F   UNL     1      40.391 -15.743   4.168  1.00  0.00    -0.169 F 
ENDBRANCH   8  27
BRANCH   6  31
HETATM   31  C   UNL     1      41.679 -13.728   1.167  1.00  0.00    -0.033 A 
HETATM   32  C   UNL     1      41.303 -12.613   0.391  1.00  0.00     0.049 A 
HETATM   33  C   UNL     1      40.243 -12.745  -0.484  1.00  0.00     0.105 A 
HETATM   34  C   UNL     1      39.572 -13.934  -0.637  1.00  0.00     0.105 A 
HETATM   35  O   UNL     1      39.725 -11.754  -1.257  1.00  0.00    -0.323 OA
HETATM   36  O   UNL     1      38.550 -13.842  -1.529  1.00  0.00    -0.323 OA
HETATM   37  C   UNL     1      39.922 -15.056   0.076  1.00  0.00     0.040 A 
HETATM   38  C   UNL     1      38.617 -12.443  -1.874  1.00  0.00     0.352 A 
HETATM   39  C   UNL     1      40.974 -14.944   0.991  1.00  0.00     0.012 A 
ENDBRANCH   6  31
TORSDOF 6
ENDMDL
MODEL 7
REMARK VINA RESULT:      -9.1      6.397     10.273
REMARK  6 active torsions:
REMARK  status: ('A' for Active; 'I' for Inactive)
REMARK    1  A    between atoms: C_8  and  C_9 
REMARK    2  A    between atoms: C_9  and  C_10 
REMARK    3  A    between atoms: C_10  and  N_11 
REMARK       I    between atoms: N_11  and  C_12 
REMARK    4  A    between atoms: C_12  and  C_13 
REMARK    5  A    between atoms: C_18  and  C_19 
REMARK    6  A    between atoms: C_29  and  C_30 
ROOT
HETATM    1  C   UNL     1      40.710 -12.566   0.528  1.00  0.00     0.148 A 
HETATM    2  N   UNL     1      40.531 -13.055  -0.721  1.00  0.00    -0.165 NA
HETATM    3  N   UNL     1      39.638 -12.203  -1.264  1.00  0.00    -0.240 N 
HETATM    4  C   UNL     1      39.338 -11.138  -0.468  1.00  0.00     0.123 A 
HETATM    5  N   UNL     1      38.536 -10.141  -0.878  1.00  0.00    -0.366 N 
HETATM    6  C   UNL     1      37.969 -10.063  -2.215  1.00  0.00     0.118 C 
HETATM    7  C   UNL     1      38.579 -11.084  -3.193  1.00  0.00     0.066 C 
HETATM    8  C   UNL     1      39.081 -12.408  -2.585  1.00  0.00     0.221 C 
HETATM    9  C   UNL     1      39.983 -11.359   0.717  1.00  0.00     0.088 A 
HETATM   10  H   UNL     1      38.276  -9.382  -0.250  1.00  0.00     0.161 HD
ENDROOT
BRANCH   1  11
HETATM   11  C   UNL     1      41.554 -13.219   1.539  1.00  0.00     0.272 C 
HETATM   12  N   UNL     1      42.366 -14.218   1.047  1.00  0.00    -0.355 N 
HETATM   13  H   UNL     1      42.417 -14.292   0.035  1.00  0.00     0.162 HD
HETATM   14  O   UNL     1      41.537 -12.891   2.723  1.00  0.00    -0.266 OA
BRANCH  12  15
HETATM   15  C   UNL     1      43.318 -14.887   1.907  1.00  0.00     0.127 C 
BRANCH  15  16
HETATM   16  C   UNL     1      43.250 -16.411   1.833  1.00  0.00     0.060 C 
BRANCH  16  17
HETATM   17  C   UNL     1      43.484 -17.071   3.156  1.00  0.00    -0.029 A 
HETATM   18  C   UNL     1      43.639 -18.470   3.413  1.00  0.00    -0.002 A 
HETATM   19  C   UNL     1      43.634 -19.625   2.602  1.00  0.00     0.014 A 
HETATM   20  C   UNL     1      43.829 -18.626   4.786  1.00  0.00     0.042 A 
HETATM   21  C   UNL     1      43.812 -20.882   3.191  1.00  0.00     0.001 A 
HETATM   22  C   UNL     1      43.997 -21.002   4.566  1.00  0.00     0.002 A 
HETATM   23  C   UNL     1      44.010 -19.874   5.391  1.00  0.00     0.030 A 
HETATM   24  N   UNL     1      43.792 -17.370   5.345  1.00  0.00    -0.365 N 
HETATM   25  H   UNL     1      43.902 -17.178   6.331  1.00  0.00     0.165 HD
HETATM   26  C   UNL     1      43.579 -16.428   4.376  1.00  0.00     0.096 A 
ENDBRANCH  16  17
ENDBRANCH  15  16
ENDBRANCH  12  15
ENDBRANCH   1  11
BRANCH   8  27
HETATM   27  C   UNL     1      38.029 -13.493  -2.552  1.00  0.00     0.409 C 
HETATM   28  F   UNL     1      38.526 -14.725  -2.334  1.00  0.00    -0.169 F 
HETATM   29  F   UNL     1      37.138 -13.244  -1.555  1.00  0.00    -0.169 F 
HETATM   30  F   UNL     1      37.306 -13.542  -3.694  1.00  0.00    -0.169 F 
ENDBRANCH   8  27
BRANCH   6  31
HETATM   31  C   UNL     1      36.452 -10.022  -2.149  1.00  0.00    -0.033 A 
HETATM   32  C   UNL     1      35.705 -10.577  -3.207  1.00  0.00     0.049 A 
HETATM   33  C   UNL     1      34.332 -10.439  -3.189  1.00  0.00     0.105 A 
HETATM   34  C   UNL     1      33.679  -9.805  -2.161  1.00  0.00     0.105 A 
HETATM   35  O   UNL     1      33.478 -10.867  -4.158  1.00  0.00    -0.323 OA
HETATM   36  O   UNL     1      32.333  -9.757  -2.350  1.00  0.00    -0.323 OA
HETATM   37  C   UNL     1      34.363  -9.273  -1.092  1.00  0.00     0.040 A 
HETATM   38  C   UNL     1      32.220 -10.381  -3.645  1.00  0.00     0.352 A 
HETATM   39  C   UNL     1      35.758  -9.374  -1.098  1.00  0.00     0.012 A 
ENDBRANCH   6  31
TORSDOF 6
ENDMDL
MODEL 8
REMARK VINA RESULT:      -9.1      1.892      3.015
REMARK  6 active torsions:
REMARK  status: ('A' for Active; 'I' for Inactive)
REMARK    1  A    between atoms: C_8  and  C_9 
REMARK    2  A    between atoms: C_9  and  C_10 
REMARK    3  A    between atoms: C_10  and  N_11 
REMARK       I    between atoms: N_11  and  C_12 
REMARK    4  A    between atoms: C_12  and  C_13 
REMARK    5  A    between atoms: C_18  and  C_19 
REMARK    6  A    between atoms: C_29  and  C_30 
ROOT
HETATM    1  C   UNL     1      42.775 -10.895   6.592  1.00  0.00     0.148 A 
HETATM    2  N   UNL     1      42.259 -10.742   5.350  1.00  0.00    -0.165 NA
HETATM    3  N   UNL     1      41.860 -11.988   5.023  1.00  0.00    -0.240 N 
HETATM    4  C   UNL     1      41.988 -12.891   6.036  1.00  0.00     0.123 A 
HETATM    5  N   UNL     1      41.560 -14.160   5.922  1.00  0.00    -0.366 N 
HETATM    6  C   UNL     1      40.867 -14.673   4.751  1.00  0.00     0.118 C 
HETATM    7  C   UNL     1      40.440 -13.569   3.767  1.00  0.00     0.066 C 
HETATM    8  C   UNL     1      41.325 -12.308   3.716  1.00  0.00     0.221 C 
HETATM    9  C   UNL     1      42.614 -12.229   7.056  1.00  0.00     0.088 A 
HETATM   10  H   UNL     1      41.716 -14.837   6.668  1.00  0.00     0.161 HD
ENDROOT
BRANCH   1  11
HETATM   11  C   UNL     1      43.416  -9.805   7.341  1.00  0.00     0.272 C 
HETATM   12  N   UNL     1      44.606 -10.148   7.944  1.00  0.00    -0.355 N 
HETATM   13  H   UNL     1      44.994 -11.051   7.683  1.00  0.00     0.162 HD
HETATM   14  O   UNL     1      42.928  -8.680   7.414  1.00  0.00    -0.266 OA
BRANCH  12  15
HETATM   15  C   UNL     1      45.398  -9.155   8.638  1.00  0.00     0.127 C 
BRANCH  15  16
HETATM   16  C   UNL     1      45.521  -9.405  10.140  1.00  0.00     0.060 C 
BRANCH  16  17
HETATM   17  C   UNL     1      44.200  -9.653  10.801  1.00  0.00    -0.029 A 
HETATM   18  C   UNL     1      43.141  -8.713  11.004  1.00  0.00    -0.002 A 
HETATM   19  C   UNL     1      42.964  -7.349  10.689  1.00  0.00     0.014 A 
HETATM   20  C   UNL     1      42.109  -9.380  11.665  1.00  0.00     0.042 A 
HETATM   21  C   UNL     1      41.772  -6.709  11.047  1.00  0.00     0.001 A 
HETATM   22  C   UNL     1      40.762  -7.404  11.708  1.00  0.00     0.002 A 
HETATM   23  C   UNL     1      40.911  -8.756  12.029  1.00  0.00     0.030 A 
HETATM   24  N   UNL     1      42.523 -10.677  11.855  1.00  0.00    -0.365 N 
HETATM   25  H   UNL     1      41.974 -11.393  12.312  1.00  0.00     0.165 HD
HETATM   26  C   UNL     1      43.781 -10.853  11.346  1.00  0.00     0.096 A 
ENDBRANCH  16  17
ENDBRANCH  15  16
ENDBRANCH  12  15
ENDBRANCH   1  11
BRANCH   8  27
HETATM   27  C   UNL     1      42.437 -12.394   2.697  1.00  0.00     0.409 C 
HETATM   28  F   UNL     1      42.879 -11.196   2.273  1.00  0.00    -0.169 F 
HETATM   29  F   UNL     1      43.506 -13.043   3.231  1.00  0.00    -0.169 F 
HETATM   30  F   UNL     1      42.078 -13.105   1.603  1.00  0.00    -0.169 F 
ENDBRANCH   8  27
BRANCH   6  31
HETATM   31  C   UNL     1      41.626 -15.846   4.154  1.00  0.00    -0.033 A 
HETATM   32  C   UNL     1      42.512 -16.575   4.972  1.00  0.00     0.049 A 
HETATM   33  C   UNL     1      43.276 -17.570   4.395  1.00  0.00     0.105 A 
HETATM   34  C   UNL     1      43.174 -17.882   3.061  1.00  0.00     0.105 A 
HETATM   35  O   UNL     1      44.213 -18.322   5.033  1.00  0.00    -0.323 OA
HETATM   36  O   UNL     1      44.029 -18.872   2.692  1.00  0.00    -0.323 OA
HETATM   37  C   UNL     1      42.302 -17.218   2.230  1.00  0.00     0.040 A 
HETATM   38  C   UNL     1      44.724 -19.105   3.934  1.00  0.00     0.352 A 
HETATM   39  C   UNL     1      41.535 -16.186   2.783  1.00  0.00     0.012 A 
ENDBRANCH   6  31
TORSDOF 6
ENDMDL
MODEL 9
REMARK VINA RESULT:      -9.0      4.172      8.203
REMARK  6 active torsions:
REMARK  status: ('A' for Active; 'I' for Inactive)
REMARK    1  A    between atoms: C_8  and  C_9 
REMARK    2  A    between atoms: C_9  and  C_10 
REMARK    3  A    between atoms: C_10  and  N_11 
REMARK       I    between atoms: N_11  and  C_12 
REMARK    4  A    between atoms: C_12  and  C_13 
REMARK    5  A    between atoms: C_18  and  C_19 
REMARK    6  A    between atoms: C_29  and  C_30 
ROOT
HETATM    1  C   UNL     1      39.846 -14.253   0.344  1.00  0.00     0.148 A 
HETATM    2  N   UNL     1      40.485 -15.396   0.686  1.00  0.00    -0.165 NA
HETATM    3  N   UNL     1      40.680 -15.259   2.013  1.00  0.00    -0.240 N 
HETATM    4  C   UNL     1      40.094 -14.148   2.544  1.00  0.00     0.123 A 
HETATM    5  N   UNL     1      40.108 -13.893   3.864  1.00  0.00    -0.366 N 
HETATM    6  C   UNL     1      40.682 -14.793   4.851  1.00  0.00     0.118 C 
HETATM    7  C   UNL     1      41.036 -16.177   4.276  1.00  0.00     0.066 C 
HETATM    8  C   UNL     1      41.428 -16.227   2.787  1.00  0.00     0.221 C 
HETATM    9  C   UNL     1      39.577 -13.452   1.487  1.00  0.00     0.088 A 
HETATM   10  H   UNL     1      39.716 -13.030   4.237  1.00  0.00     0.161 HD
ENDROOT
BRANCH   1  11
HETATM   11  C   UNL     1      39.487 -13.910  -1.040  1.00  0.00     0.272 C 
HETATM   12  N   UNL     1      38.206 -13.428  -1.195  1.00  0.00    -0.355 N 
HETATM   13  H   UNL     1      37.704 -13.211  -0.338  1.00  0.00     0.162 HD
HETATM   14  O   UNL     1      40.274 -14.038  -1.975  1.00  0.00    -0.266 OA
BRANCH  12  15
HETATM   15  C   UNL     1      37.743 -12.961  -2.484  1.00  0.00     0.127 C 
BRANCH  15  16
HETATM   16  C   UNL     1      37.605 -11.443  -2.577  1.00  0.00     0.060 C 
BRANCH  16  17
HETATM   17  C   UNL     1      38.898 -10.724  -2.347  1.00  0.00    -0.029 A 
HETATM   18  C   UNL     1      39.366 -10.149  -1.123  1.00  0.00    -0.002 A 
HETATM   19  C   UNL     1      38.841 -10.058   0.184  1.00  0.00     0.014 A 
HETATM   20  C   UNL     1      40.613  -9.579  -1.378  1.00  0.00     0.042 A 
HETATM   21  C   UNL     1      39.577  -9.401   1.177  1.00  0.00     0.001 A 
HETATM   22  C   UNL     1      40.819  -8.840   0.889  1.00  0.00     0.002 A 
HETATM   23  C   UNL     1      41.362  -8.920  -0.396  1.00  0.00     0.030 A 
HETATM   24  N   UNL     1      40.895  -9.799  -2.705  1.00  0.00    -0.365 N 
HETATM   25  H   UNL     1      41.739  -9.493  -3.170  1.00  0.00     0.165 HD
HETATM   26  C   UNL     1      39.869 -10.481  -3.300  1.00  0.00     0.096 A 
ENDBRANCH  16  17
ENDBRANCH  15  16
ENDBRANCH  12  15
ENDBRANCH   1  11
BRANCH   8  27
HETATM   27  C   UNL     1      42.911 -16.063   2.549  1.00  0.00     0.409 C 
HETATM   28  F   UNL     1      43.681 -16.698   3.451  1.00  0.00    -0.169 F 
HETATM   29  F   UNL     1      43.242 -16.560   1.327  1.00  0.00    -0.169 F 
HETATM   30  F   UNL     1      43.288 -14.763   2.536  1.00  0.00    -0.169 F 
ENDBRANCH   8  27
BRANCH   6  31
HETATM   31  C   UNL     1      41.777 -14.094   5.637  1.00  0.00    -0.033 A 
HETATM   32  C   UNL     1      41.716 -12.696   5.801  1.00  0.00     0.049 A 
HETATM   33  C   UNL     1      42.769 -12.057   6.424  1.00  0.00     0.105 A 
HETATM   34  C   UNL     1      43.853 -12.748   6.907  1.00  0.00     0.105 A 
HETATM   35  O   UNL     1      42.887 -10.714   6.608  1.00  0.00    -0.323 OA
HETATM   36  O   UNL     1      44.787 -11.929   7.462  1.00  0.00    -0.323 OA
HETATM   37  C   UNL     1      43.945 -14.116   6.797  1.00  0.00     0.040 A 
HETATM   38  C   UNL     1      44.193 -10.638   7.216  1.00  0.00     0.352 A 
HETATM   39  C   UNL     1      42.903 -14.786   6.145  1.00  0.00     0.012 A 
ENDBRANCH   6  31
TORSDOF 6
ENDMDL
MODEL 10
REMARK VINA RESULT:      -8.8      1.488      2.131
REMARK  6 active torsions:
REMARK  status: ('A' for Active; 'I' for Inactive)
REMARK    1  A    between atoms: C_8  and  C_9 
REMARK    2  A    between atoms: C_9  and  C_10 
REMARK    3  A    between atoms: C_10  and  N_11 
REMARK       I    between atoms: N_11  and  C_12 
REMARK    4  A    between atoms: C_12  and  C_13 
REMARK    5  A    between atoms: C_18  and  C_19 
REMARK    6  A    between atoms: C_29  and  C_30 
ROOT
HETATM    1  C   UNL     1      40.406 -10.969   5.905  1.00  0.00     0.148 A 
HETATM    2  N   UNL     1      41.099 -10.785   4.757  1.00  0.00    -0.165 NA
HETATM    3  N   UNL     1      41.075 -12.003   4.180  1.00  0.00    -0.240 N 
HETATM    4  C   UNL     1      40.304 -12.911   4.842  1.00  0.00     0.123 A 
HETATM    5  N   UNL     1      40.090 -14.151   4.368  1.00  0.00    -0.366 N 
HETATM    6  C   UNL     1      40.596 -14.619   3.088  1.00  0.00     0.118 C 
HETATM    7  C   UNL     1      41.174 -13.491   2.214  1.00  0.00     0.066 C 
HETATM    8  C   UNL     1      41.791 -12.290   2.955  1.00  0.00     0.221 C 
HETATM    9  C   UNL     1      39.886 -12.289   5.986  1.00  0.00     0.088 A 
HETATM   10  H   UNL     1      39.560 -14.835   4.904  1.00  0.00     0.161 HD
ENDROOT
BRANCH   1  11
HETATM   11  C   UNL     1      40.230  -9.921   6.921  1.00  0.00     0.272 C 
HETATM   12  N   UNL     1      40.824  -8.718   6.609  1.00  0.00    -0.355 N 
HETATM   13  H   UNL     1      41.179  -8.628   5.661  1.00  0.00     0.162 HD
HETATM   14  O   UNL     1      39.596 -10.107   7.956  1.00  0.00    -0.266 OA
BRANCH  12  15
HETATM   15  C   UNL     1      40.658  -7.566   7.469  1.00  0.00     0.127 C 
BRANCH  15  16
HETATM   16  C   UNL     1      41.975  -6.946   7.931  1.00  0.00     0.060 C 
BRANCH  16  17
HETATM   17  C   UNL     1      42.644  -7.736   9.013  1.00  0.00    -0.029 A 
HETATM   18  C   UNL     1      42.620  -7.476  10.420  1.00  0.00    -0.002 A 
HETATM   19  C   UNL     1      42.019  -6.486  11.226  1.00  0.00     0.014 A 
HETATM   20  C   UNL     1      43.384  -8.464  11.042  1.00  0.00     0.042 A 
HETATM   21  C   UNL     1      42.207  -6.520  12.613  1.00  0.00     0.001 A 
HETATM   22  C   UNL     1      42.978  -7.519  13.202  1.00  0.00     0.002 A 
HETATM   23  C   UNL     1      43.581  -8.513  12.426  1.00  0.00     0.030 A 
HETATM   24  N   UNL     1      43.854  -9.294  10.053  1.00  0.00    -0.365 N 
HETATM   25  H   UNL     1      44.440 -10.103  10.213  1.00  0.00     0.165 HD
HETATM   26  C   UNL     1      43.422  -8.864   8.828  1.00  0.00     0.096 A 
ENDBRANCH  16  17
ENDBRANCH  15  16
ENDBRANCH  12  15
ENDBRANCH   1  11
BRANCH   8  27
HETATM   27  C   UNL     1      43.268 -12.447   3.231  1.00  0.00     0.409 C 
HETATM   28  F   UNL     1      43.949 -11.286   3.227  1.00  0.00    -0.169 F 
HETATM   29  F   UNL     1      43.454 -13.010   4.455  1.00  0.00    -0.169 F 
HETATM   30  F   UNL     1      43.871 -13.275   2.346  1.00  0.00    -0.169 F 
ENDBRANCH   8  27
BRANCH   6  31
HETATM   31  C   UNL     1      41.482 -15.839   3.279  1.00  0.00    -0.033 A 
HETATM   32  C   UNL     1      41.739 -16.300   4.585  1.00  0.00     0.049 A 
HETATM   33  C   UNL     1      42.629 -17.341   4.755  1.00  0.00     0.105 A 
HETATM   34  C   UNL     1      43.243 -17.952   3.689  1.00  0.00     0.105 A 
HETATM   35  O   UNL     1      43.026 -17.860   5.948  1.00  0.00    -0.323 OA
HETATM   36  O   UNL     1      44.098 -18.936   4.075  1.00  0.00    -0.323 OA
HETATM   37  C   UNL     1      43.000 -17.557   2.394  1.00  0.00     0.040 A 
HETATM   38  C   UNL     1      43.998 -18.833   5.510  1.00  0.00     0.352 A 
HETATM   39  C   UNL     1      42.123 -16.485   2.194  1.00  0.00     0.012 A 
ENDBRANCH   6  31
TORSDOF 6
ENDMDL
