MODEL 1
REMARK VINA RESULT:      -7.4      0.000      0.000
REMARK  4 active torsions:
REMARK  status: ('A' for Active; 'I' for Inactive)
REMARK    1  A    between atoms: O_2  and  C_3 
REMARK    2  A    between atoms: C_4  and  O_5 
REMARK    3  A    between atoms: C_6  and  C_7 
REMARK    4  A    between atoms: C_7  and  N_8 
ROOT
HETATM    1  N   UNL     1      41.586 -15.547   1.961  1.00  0.00    -0.066 N 
HETATM    2  H   UNL     1      41.502 -16.492   1.542  1.00  0.00     0.280 HD
HETATM    3  C   UNL     1      40.552 -15.544   3.067  1.00  0.00     0.246 C 
HETATM    4  C   UNL     1      40.102 -14.131   3.482  1.00  0.00     0.062 C 
HETATM    5  C   UNL     1      39.611 -13.371   2.256  1.00  0.00     0.020 C 
HETATM    6  C   UNL     1      40.794 -13.213   1.312  1.00  0.00     0.031 C 
HETATM    7  C   UNL     1      41.864 -12.351   1.988  1.00  0.00     0.138 C 
HETATM    8  N   UNL     1      42.085 -12.592   3.415  1.00  0.00    -0.317 N 
HETATM    9  C   UNL     1      41.215 -13.376   4.178  1.00  0.00     0.020 A 
HETATM   10  C   UNL     1      41.390 -13.467   5.509  1.00  0.00     0.026 A 
HETATM   11  C   UNL     1      43.158 -11.893   3.989  1.00  0.00     0.247 A 
HETATM   12  O   UNL     1      43.959 -11.226   3.344  1.00  0.00    -0.268 OA
HETATM   13  C   UNL     1      43.323 -12.025   5.457  1.00  0.00     0.074 A 
HETATM   14  C   UNL     1      42.470 -12.775   6.162  1.00  0.00     0.007 A 
HETATM   15  C   UNL     1      41.308 -14.581   0.843  1.00  0.00     0.241 C 
ENDROOT
BRANCH   1  16
HETATM   16  C   UNL     1      43.040 -15.597   2.397  1.00  0.00     0.276 C 
BRANCH  16  17
HETATM   17  C   UNL     1      43.325 -16.592   3.489  1.00  0.00     0.005 A 
HETATM   18  C   UNL     1      43.470 -17.955   3.212  1.00  0.00     0.107 A 
HETATM   19  C   UNL     1      43.768 -18.893   4.211  1.00  0.00     0.103 A 
HETATM   20  C   UNL     1      43.921 -18.455   5.523  1.00  0.00     0.058 A 
HETATM   21  C   UNL     1      43.781 -17.096   5.816  1.00  0.00     0.014 A 
HETATM   22  C   UNL     1      43.492 -16.166   4.813  1.00  0.00     0.030 A 
HETATM   23 BR   UNL     1      43.982 -16.499   7.599  1.00  0.00    -0.051 Br
BRANCH  18  24
HETATM   24  O   UNL     1      43.288 -18.384   1.917  1.00  0.00    -0.357 OA
HETATM   25  H   UNL     1      44.077 -18.039   1.437  1.00  0.00     0.218 HD
ENDBRANCH  18  24
BRANCH  19  26
HETATM   26  O   UNL     1      43.867 -20.184   3.766  1.00  0.00    -0.353 OA
HETATM   27  C   UNL     1      43.893 -21.203   4.765  1.00  0.00     0.210 C 
ENDBRANCH  19  26
ENDBRANCH  16  17
ENDBRANCH   1  16
TORSDOF 4
ENDMDL
MODEL 2
REMARK VINA RESULT:      -7.4      3.541      6.063
REMARK  4 active torsions:
REMARK  status: ('A' for Active; 'I' for Inactive)
REMARK    1  A    between atoms: O_2  and  C_3 
REMARK    2  A    between atoms: C_4  and  O_5 
REMARK    3  A    between atoms: C_6  and  C_7 
REMARK    4  A    between atoms: C_7  and  N_8 
ROOT
HETATM    1  N   UNL     1      40.782 -15.615   2.020  1.00  0.00    -0.066 N 
HETATM    2  H   UNL     1      40.437 -16.212   1.245  1.00  0.00     0.280 HD
HETATM    3  C   UNL     1      42.264 -15.476   1.741  1.00  0.00     0.246 C 
HETATM    4  C   UNL     1      43.091 -15.107   2.987  1.00  0.00     0.062 C 
HETATM    5  C   UNL     1      42.823 -16.119   4.095  1.00  0.00     0.020 C 
HETATM    6  C   UNL     1      41.353 -16.003   4.473  1.00  0.00     0.031 C 
HETATM    7  C   UNL     1      41.091 -14.610   5.051  1.00  0.00     0.138 C 
HETATM    8  N   UNL     1      41.774 -13.495   4.391  1.00  0.00    -0.317 N 
HETATM    9  C   UNL     1      42.791 -13.699   3.455  1.00  0.00     0.020 A 
HETATM   10  C   UNL     1      43.473 -12.646   2.968  1.00  0.00     0.026 A 
HETATM   11  C   UNL     1      41.420 -12.214   4.842  1.00  0.00     0.247 A 
HETATM   12  O   UNL     1      40.509 -11.999   5.635  1.00  0.00    -0.268 OA
HETATM   13  C   UNL     1      42.187 -11.078   4.277  1.00  0.00     0.074 A 
HETATM   14  C   UNL     1      43.162 -11.305   3.390  1.00  0.00     0.007 A 
HETATM   15  C   UNL     1      40.451 -16.359   3.284  1.00  0.00     0.241 C 
ENDROOT
BRANCH   1  16
HETATM   16  C   UNL     1      39.933 -14.379   1.781  1.00  0.00     0.276 C 
BRANCH  16  17
HETATM   17  C   UNL     1      40.128 -13.745   0.431  1.00  0.00     0.005 A 
HETATM   18  C   UNL     1      39.728 -14.391  -0.742  1.00  0.00     0.107 A 
HETATM   19  C   UNL     1      39.872 -13.804  -2.007  1.00  0.00     0.103 A 
HETATM   20  C   UNL     1      40.436 -12.534  -2.099  1.00  0.00     0.058 A 
HETATM   21  C   UNL     1      40.839 -11.874  -0.936  1.00  0.00     0.014 A 
HETATM   22  C   UNL     1      40.685 -12.464   0.321  1.00  0.00     0.030 A 
HETATM   23 BR   UNL     1      41.612 -10.152  -1.059  1.00  0.00    -0.051 Br
BRANCH  18  24
HETATM   24  O   UNL     1      39.199 -15.659  -0.644  1.00  0.00    -0.357 OA
HETATM   25  H   UNL     1      38.714 -15.651   0.214  1.00  0.00     0.218 HD
ENDBRANCH  18  24
BRANCH  19  26
HETATM   26  O   UNL     1      39.436 -14.579  -3.047  1.00  0.00    -0.353 OA
HETATM   27  C   UNL     1      38.095 -14.364  -3.484  1.00  0.00     0.210 C 
ENDBRANCH  19  26
ENDBRANCH  16  17
ENDBRANCH   1  16
TORSDOF 4
ENDMDL
MODEL 3
REMARK VINA RESULT:      -7.3      1.955      2.309
REMARK  4 active torsions:
REMARK  status: ('A' for Active; 'I' for Inactive)
REMARK    1  A    between atoms: O_2  and  C_3 
REMARK    2  A    between atoms: C_4  and  O_5 
REMARK    3  A    between atoms: C_6  and  C_7 
REMARK    4  A    between atoms: C_7  and  N_8 
ROOT
HETATM    1  N   UNL     1      41.365 -15.156   1.665  1.00  0.00    -0.066 N 
HETATM    2  H   UNL     1      41.325 -16.085   1.205  1.00  0.00     0.280 HD
HETATM    3  C   UNL     1      40.315 -15.242   2.753  1.00  0.00     0.246 C 
HETATM    4  C   UNL     1      39.802 -13.867   3.219  1.00  0.00     0.062 C 
HETATM    5  C   UNL     1      39.300 -13.075   2.018  1.00  0.00     0.020 C 
HETATM    6  C   UNL     1      40.490 -12.830   1.103  1.00  0.00     0.031 C 
HETATM    7  C   UNL     1      41.514 -11.955   1.833  1.00  0.00     0.138 C 
HETATM    8  N   UNL     1      41.722 -12.249   3.253  1.00  0.00    -0.317 N 
HETATM    9  C   UNL     1      40.872 -13.099   3.966  1.00  0.00     0.020 A 
HETATM   10  C   UNL     1      41.029 -13.241   5.294  1.00  0.00     0.026 A 
HETATM   11  C   UNL     1      42.757 -11.534   3.874  1.00  0.00     0.247 A 
HETATM   12  O   UNL     1      43.540 -10.809   3.272  1.00  0.00    -0.268 OA
HETATM   13  C   UNL     1      42.904 -11.722   5.338  1.00  0.00     0.074 A 
HETATM   14  C   UNL     1      42.070 -12.535   5.995  1.00  0.00     0.007 A 
HETATM   15  C   UNL     1      41.066 -14.155   0.585  1.00  0.00     0.241 C 
ENDROOT
BRANCH   1  16
HETATM   16  C   UNL     1      42.813 -15.168   2.124  1.00  0.00     0.276 C 
BRANCH  16  17
HETATM   17  C   UNL     1      43.230 -16.431   2.825  1.00  0.00     0.005 A 
HETATM   18  C   UNL     1      43.601 -16.427   4.173  1.00  0.00     0.107 A 
HETATM   19  C   UNL     1      43.962 -17.599   4.853  1.00  0.00     0.103 A 
HETATM   20  C   UNL     1      43.955 -18.808   4.163  1.00  0.00     0.058 A 
HETATM   21  C   UNL     1      43.585 -18.829   2.817  1.00  0.00     0.014 A 
HETATM   22  C   UNL     1      43.219 -17.657   2.148  1.00  0.00     0.030 A 
HETATM   23 BR   UNL     1      43.580 -20.469   1.875  1.00  0.00    -0.051 Br
BRANCH  18  24
HETATM   24  O   UNL     1      43.635 -15.223   4.840  1.00  0.00    -0.357 OA
HETATM   25  H   UNL     1      44.587 -14.967   4.825  1.00  0.00     0.218 HD
ENDBRANCH  18  24
BRANCH  19  26
HETATM   26  O   UNL     1      44.304 -17.412   6.166  1.00  0.00    -0.353 OA
HETATM   27  C   UNL     1      43.272 -17.615   7.130  1.00  0.00     0.210 C 
ENDBRANCH  19  26
ENDBRANCH  16  17
ENDBRANCH   1  16
TORSDOF 4
ENDMDL
MODEL 4
REMARK VINA RESULT:      -7.1      3.470      6.374
REMARK  4 active torsions:
REMARK  status: ('A' for Active; 'I' for Inactive)
REMARK    1  A    between atoms: O_2  and  C_3 
REMARK    2  A    between atoms: C_4  and  O_5 
REMARK    3  A    between atoms: C_6  and  C_7 
REMARK    4  A    between atoms: C_7  and  N_8 
ROOT
HETATM    1  N   UNL     1      42.174 -13.964   2.755  1.00  0.00    -0.066 N 
HETATM    2  H   UNL     1      42.288 -13.202   2.060  1.00  0.00     0.280 HD
HETATM    3  C   UNL     1      43.311 -14.915   2.446  1.00  0.00     0.246 C 
HETATM    4  C   UNL     1      43.066 -16.348   2.952  1.00  0.00     0.062 C 
HETATM    5  C   UNL     1      41.741 -16.864   2.403  1.00  0.00     0.020 C 
HETATM    6  C   UNL     1      40.637 -15.985   2.974  1.00  0.00     0.031 C 
HETATM    7  C   UNL     1      40.599 -16.152   4.495  1.00  0.00     0.138 C 
HETATM    8  N   UNL     1      41.895 -16.241   5.171  1.00  0.00    -0.317 N 
HETATM    9  C   UNL     1      43.089 -16.415   4.465  1.00  0.00     0.020 A 
HETATM   10  C   UNL     1      44.238 -16.616   5.134  1.00  0.00     0.026 A 
HETATM   11  C   UNL     1      41.849 -16.256   6.574  1.00  0.00     0.247 A 
HETATM   12  O   UNL     1      40.825 -16.071   7.222  1.00  0.00    -0.268 OA
HETATM   13  C   UNL     1      43.137 -16.471   7.276  1.00  0.00     0.074 A 
HETATM   14  C   UNL     1      44.261 -16.644   6.572  1.00  0.00     0.007 A 
HETATM   15  C   UNL     1      40.802 -14.530   2.515  1.00  0.00     0.241 C 
ENDROOT
BRANCH   1  16
HETATM   16  C   UNL     1      42.300 -13.154   4.034  1.00  0.00     0.276 C 
BRANCH  16  17
HETATM   17  C   UNL     1      41.172 -12.188   4.270  1.00  0.00     0.005 A 
HETATM   18  C   UNL     1      40.452 -12.187   5.468  1.00  0.00     0.107 A 
HETATM   19  C   UNL     1      39.419 -11.274   5.720  1.00  0.00     0.103 A 
HETATM   20  C   UNL     1      39.094 -10.337   4.742  1.00  0.00     0.058 A 
HETATM   21  C   UNL     1      39.805 -10.324   3.540  1.00  0.00     0.014 A 
HETATM   22  C   UNL     1      40.839 -11.233   3.301  1.00  0.00     0.030 A 
HETATM   23 BR   UNL     1      39.363  -9.057   2.207  1.00  0.00    -0.051 Br
BRANCH  18  24
HETATM   24  O   UNL     1      40.759 -13.136   6.418  1.00  0.00    -0.357 OA
HETATM   25  H   UNL     1      40.380 -12.772   7.252  1.00  0.00     0.218 HD
ENDBRANCH  18  24
BRANCH  19  26
HETATM   26  O   UNL     1      38.816 -11.420   6.940  1.00  0.00    -0.353 OA
HETATM   27  C   UNL     1      39.098 -10.417   7.915  1.00  0.00     0.210 C 
ENDBRANCH  19  26
ENDBRANCH  16  17
ENDBRANCH   1  16
TORSDOF 4
ENDMDL
MODEL 5
REMARK VINA RESULT:      -7.0      2.725      6.521
REMARK  4 active torsions:
REMARK  status: ('A' for Active; 'I' for Inactive)
REMARK    1  A    between atoms: O_2  and  C_3 
REMARK    2  A    between atoms: C_4  and  O_5 
REMARK    3  A    between atoms: C_6  and  C_7 
REMARK    4  A    between atoms: C_7  and  N_8 
ROOT
HETATM    1  N   UNL     1      43.597 -14.994   6.670  1.00  0.00    -0.066 N 
HETATM    2  H   UNL     1      43.859 -14.442   7.508  1.00  0.00     0.280 HD
HETATM    3  C   UNL     1      42.232 -15.553   7.013  1.00  0.00     0.246 C 
HETATM    4  C   UNL     1      41.861 -16.807   6.199  1.00  0.00     0.062 C 
HETATM    5  C   UNL     1      42.952 -17.859   6.357  1.00  0.00     0.020 C 
HETATM    6  C   UNL     1      44.228 -17.287   5.756  1.00  0.00     0.031 C 
HETATM    7  C   UNL     1      44.021 -17.064   4.256  1.00  0.00     0.138 C 
HETATM    8  N   UNL     1      42.715 -16.538   3.853  1.00  0.00    -0.317 N 
HETATM    9  C   UNL     1      41.636 -16.475   4.739  1.00  0.00     0.020 A 
HETATM   10  C   UNL     1      40.424 -16.101   4.291  1.00  0.00     0.026 A 
HETATM   11  C   UNL     1      42.585 -16.210   2.494  1.00  0.00     0.247 A 
HETATM   12  O   UNL     1      43.519 -16.221   1.700  1.00  0.00    -0.268 OA
HETATM   13  C   UNL     1      41.237 -15.795   2.040  1.00  0.00     0.074 A 
HETATM   14  C   UNL     1      40.221 -15.753   2.909  1.00  0.00     0.007 A 
HETATM   15  C   UNL     1      44.675 -16.029   6.513  1.00  0.00     0.241 C 
ENDROOT
BRANCH   1  16
HETATM   16  C   UNL     1      43.631 -13.892   5.625  1.00  0.00     0.276 C 
BRANCH  16  17
HETATM   17  C   UNL     1      43.474 -12.504   6.184  1.00  0.00     0.005 A 
HETATM   18  C   UNL     1      42.251 -11.830   6.127  1.00  0.00     0.107 A 
HETATM   19  C   UNL     1      42.076 -10.550   6.670  1.00  0.00     0.103 A 
HETATM   20  C   UNL     1      43.157  -9.925   7.285  1.00  0.00     0.058 A 
HETATM   21  C   UNL     1      44.386 -10.586   7.352  1.00  0.00     0.014 A 
HETATM   22  C   UNL     1      44.550 -11.866   6.814  1.00  0.00     0.030 A 
HETATM   23 BR   UNL     1      45.859  -9.737   8.181  1.00  0.00    -0.051 Br
BRANCH  18  24
HETATM   24  O   UNL     1      41.194 -12.442   5.491  1.00  0.00    -0.357 OA
HETATM   25  H   UNL     1      41.006 -13.234   6.046  1.00  0.00     0.218 HD
ENDBRANCH  18  24
BRANCH  19  26
HETATM   26  O   UNL     1      40.816 -10.035   6.519  1.00  0.00    -0.353 OA
HETATM   27  C   UNL     1      40.141  -9.638   7.712  1.00  0.00     0.210 C 
ENDBRANCH  19  26
ENDBRANCH  16  17
ENDBRANCH   1  16
TORSDOF 4
ENDMDL
MODEL 6
REMARK VINA RESULT:      -6.9      2.962      6.654
REMARK  4 active torsions:
REMARK  status: ('A' for Active; 'I' for Inactive)
REMARK    1  A    between atoms: O_2  and  C_3 
REMARK    2  A    between atoms: C_4  and  O_5 
REMARK    3  A    between atoms: C_6  and  C_7 
REMARK    4  A    between atoms: C_7  and  N_8 
ROOT
HETATM    1  N   UNL     1      42.897 -14.355   6.303  1.00  0.00    -0.066 N 
HETATM    2  H   UNL     1      43.013 -13.713   7.110  1.00  0.00     0.280 HD
HETATM    3  C   UNL     1      41.535 -14.978   6.525  1.00  0.00     0.246 C 
HETATM    4  C   UNL     1      41.350 -16.323   5.798  1.00  0.00     0.062 C 
HETATM    5  C   UNL     1      42.471 -17.276   6.193  1.00  0.00     0.020 C 
HETATM    6  C   UNL     1      43.779 -16.670   5.705  1.00  0.00     0.031 C 
HETATM    7  C   UNL     1      43.757 -16.597   4.175  1.00  0.00     0.138 C 
HETATM    8  N   UNL     1      42.487 -16.203   3.562  1.00  0.00    -0.317 N 
HETATM    9  C   UNL     1      41.299 -16.139   4.295  1.00  0.00     0.020 A 
HETATM   10  C   UNL     1      40.136 -15.894   3.665  1.00  0.00     0.026 A 
HETATM   11  C   UNL     1      42.518 -16.009   2.173  1.00  0.00     0.247 A 
HETATM   12  O   UNL     1      43.548 -16.024   1.507  1.00  0.00    -0.268 OA
HETATM   13  C   UNL     1      41.219 -15.733   1.514  1.00  0.00     0.074 A 
HETATM   14  C   UNL     1      40.097 -15.686   2.241  1.00  0.00     0.007 A 
HETATM   15  C   UNL     1      44.046 -15.321   6.385  1.00  0.00     0.241 C 
ENDROOT
BRANCH   1  16
HETATM   16  C   UNL     1      43.003 -13.351   5.168  1.00  0.00     0.276 C 
BRANCH  16  17
HETATM   17  C   UNL     1      41.850 -12.389   5.084  1.00  0.00     0.005 A 
HETATM   18  C   UNL     1      41.634 -11.422   6.070  1.00  0.00     0.107 A 
HETATM   19  C   UNL     1      40.585 -10.495   5.993  1.00  0.00     0.103 A 
HETATM   20  C   UNL     1      39.725 -10.541   4.899  1.00  0.00     0.058 A 
HETATM   21  C   UNL     1      39.927 -11.500   3.904  1.00  0.00     0.014 A 
HETATM   22  C   UNL     1      40.981 -12.415   3.985  1.00  0.00     0.030 A 
HETATM   23 BR   UNL     1      38.757 -11.569   2.420  1.00  0.00    -0.051 Br
BRANCH  18  24
HETATM   24  O   UNL     1      42.471 -11.403   7.163  1.00  0.00    -0.357 OA
HETATM   25  H   UNL     1      43.350 -11.159   6.788  1.00  0.00     0.218 HD
ENDBRANCH  18  24
BRANCH  19  26
HETATM   26  O   UNL     1      40.516  -9.625   7.047  1.00  0.00    -0.353 OA
HETATM   27  C   UNL     1      39.422  -9.797   7.946  1.00  0.00     0.210 C 
ENDBRANCH  19  26
ENDBRANCH  16  17
ENDBRANCH   1  16
TORSDOF 4
ENDMDL
MODEL 7
REMARK VINA RESULT:      -6.8      3.415      6.295
REMARK  4 active torsions:
REMARK  status: ('A' for Active; 'I' for Inactive)
REMARK    1  A    between atoms: O_2  and  C_3 
REMARK    2  A    between atoms: C_4  and  O_5 
REMARK    3  A    between atoms: C_6  and  C_7 
REMARK    4  A    between atoms: C_7  and  N_8 
ROOT
HETATM    1  N   UNL     1      40.710 -12.357   3.858  1.00  0.00    -0.066 N 
HETATM    2  H   UNL     1      39.911 -11.711   3.997  1.00  0.00     0.280 HD
HETATM    3  C   UNL     1      41.128 -12.729   5.265  1.00  0.00     0.246 C 
HETATM    4  C   UNL     1      42.582 -13.228   5.361  1.00  0.00     0.062 C 
HETATM    5  C   UNL     1      43.519 -12.190   4.754  1.00  0.00     0.020 C 
HETATM    6  C   UNL     1      43.175 -12.072   3.277  1.00  0.00     0.031 C 
HETATM    7  C   UNL     1      43.462 -13.408   2.586  1.00  0.00     0.138 C 
HETATM    8  N   UNL     1      43.102 -14.615   3.334  1.00  0.00    -0.317 N 
HETATM    9  C   UNL     1      42.753 -14.573   4.686  1.00  0.00     0.020 A 
HETATM   10  C   UNL     1      42.552 -15.719   5.362  1.00  0.00     0.026 A 
HETATM   11  C   UNL     1      43.244 -15.825   2.637  1.00  0.00     0.247 A 
HETATM   12  O   UNL     1      43.514 -15.895   1.443  1.00  0.00    -0.268 OA
HETATM   13  C   UNL     1      43.006 -17.066   3.412  1.00  0.00     0.074 A 
HETATM   14  C   UNL     1      42.682 -16.994   4.708  1.00  0.00     0.007 A 
HETATM   15  C   UNL     1      41.736 -11.574   3.087  1.00  0.00     0.241 C 
ENDROOT
BRANCH   1  16
HETATM   16  C   UNL     1      40.016 -13.442   3.052  1.00  0.00     0.276 C 
BRANCH  16  17
HETATM   17  C   UNL     1      39.477 -12.979   1.727  1.00  0.00     0.005 A 
HETATM   18  C   UNL     1      39.892 -13.565   0.527  1.00  0.00     0.107 A 
HETATM   19  C   UNL     1      39.378 -13.171  -0.716  1.00  0.00     0.103 A 
HETATM   20  C   UNL     1      38.423 -12.158  -0.759  1.00  0.00     0.058 A 
HETATM   21  C   UNL     1      37.996 -11.563   0.430  1.00  0.00     0.014 A 
HETATM   22  C   UNL     1      38.509 -11.969   1.666  1.00  0.00     0.030 A 
HETATM   23 BR   UNL     1      36.704 -10.183   0.374  1.00  0.00    -0.051 Br
BRANCH  18  24
HETATM   24  O   UNL     1      40.858 -14.545   0.576  1.00  0.00    -0.357 OA
HETATM   25  H   UNL     1      41.286 -14.505  -0.311  1.00  0.00     0.218 HD
ENDBRANCH  18  24
BRANCH  19  26
HETATM   26  O   UNL     1      39.901 -13.844  -1.787  1.00  0.00    -0.353 OA
HETATM   27  C   UNL     1      38.976 -14.562  -2.603  1.00  0.00     0.210 C 
ENDBRANCH  19  26
ENDBRANCH  16  17
ENDBRANCH   1  16
TORSDOF 4
ENDMDL
MODEL 8
REMARK VINA RESULT:      -6.8      3.203      6.361
REMARK  4 active torsions:
REMARK  status: ('A' for Active; 'I' for Inactive)
REMARK    1  A    between atoms: O_2  and  C_3 
REMARK    2  A    between atoms: C_4  and  O_5 
REMARK    3  A    between atoms: C_6  and  C_7 
REMARK    4  A    between atoms: C_7  and  N_8 
ROOT
HETATM    1  N   UNL     1      40.651 -14.346   1.667  1.00  0.00    -0.066 N 
HETATM    2  H   UNL     1      40.071 -14.008   0.877  1.00  0.00     0.280 HD
HETATM    3  C   UNL     1      41.820 -13.384   1.701  1.00  0.00     0.246 C 
HETATM    4  C   UNL     1      43.066 -13.956   2.402  1.00  0.00     0.062 C 
HETATM    5  C   UNL     1      43.452 -15.281   1.756  1.00  0.00     0.020 C 
HETATM    6  C   UNL     1      42.308 -16.256   1.994  1.00  0.00     0.031 C 
HETATM    7  C   UNL     1      42.164 -16.504   3.498  1.00  0.00     0.138 C 
HETATM    8  N   UNL     1      42.333 -15.337   4.367  1.00  0.00    -0.317 N 
HETATM    9  C   UNL     1      42.837 -14.124   3.889  1.00  0.00     0.020 A 
HETATM   10  C   UNL     1      43.092 -13.121   4.749  1.00  0.00     0.026 A 
HETATM   11  C   UNL     1      42.065 -15.550   5.728  1.00  0.00     0.247 A 
HETATM   12  O   UNL     1      41.589 -16.589   6.173  1.00  0.00    -0.268 OA
HETATM   13  C   UNL     1      42.350 -14.419   6.643  1.00  0.00     0.074 A 
HETATM   14  C   UNL     1      42.841 -13.273   6.158  1.00  0.00     0.007 A 
HETATM   15  C   UNL     1      41.019 -15.763   1.322  1.00  0.00     0.241 C 
ENDROOT
BRANCH   1  16
HETATM   16  C   UNL     1      39.640 -14.219   2.792  1.00  0.00     0.276 C 
BRANCH  16  17
HETATM   17  C   UNL     1      39.304 -12.801   3.165  1.00  0.00     0.005 A 
HETATM   18  C   UNL     1      38.699 -11.932   2.252  1.00  0.00     0.107 A 
HETATM   19  C   UNL     1      38.348 -10.617   2.589  1.00  0.00     0.103 A 
HETATM   20  C   UNL     1      38.614 -10.158   3.876  1.00  0.00     0.058 A 
HETATM   21  C   UNL     1      39.217 -11.014   4.801  1.00  0.00     0.014 A 
HETATM   22  C   UNL     1      39.556 -12.326   4.458  1.00  0.00     0.030 A 
HETATM   23 BR   UNL     1      39.586 -10.391   6.548  1.00  0.00    -0.051 Br
BRANCH  18  24
HETATM   24  O   UNL     1      38.466 -12.384   0.972  1.00  0.00    -0.357 OA
HETATM   25  H   UNL     1      37.655 -11.899   0.690  1.00  0.00     0.218 HD
ENDBRANCH  18  24
BRANCH  19  26
HETATM   26  O   UNL     1      37.772  -9.904   1.572  1.00  0.00    -0.353 OA
HETATM   27  C   UNL     1      38.526  -8.810   1.053  1.00  0.00     0.210 C 
ENDBRANCH  19  26
ENDBRANCH  16  17
ENDBRANCH   1  16
TORSDOF 4
ENDMDL
MODEL 9
REMARK VINA RESULT:      -6.8      3.918      6.577
REMARK  4 active torsions:
REMARK  status: ('A' for Active; 'I' for Inactive)
REMARK    1  A    between atoms: O_2  and  C_3 
REMARK    2  A    between atoms: C_4  and  O_5 
REMARK    3  A    between atoms: C_6  and  C_7 
REMARK    4  A    between atoms: C_7  and  N_8 
ROOT
HETATM    1  N   UNL     1      41.028 -15.317   1.796  1.00  0.00    -0.066 N 
HETATM    2  H   UNL     1      40.790 -15.824   0.923  1.00  0.00     0.280 HD
HETATM    3  C   UNL     1      42.531 -15.150   1.723  1.00  0.00     0.246 C 
HETATM    4  C   UNL     1      43.190 -14.923   3.097  1.00  0.00     0.062 C 
HETATM    5  C   UNL     1      42.797 -16.049   4.044  1.00  0.00     0.020 C 
HETATM    6  C   UNL     1      41.290 -15.974   4.244  1.00  0.00     0.031 C 
HETATM    7  C   UNL     1      40.941 -14.652   4.934  1.00  0.00     0.138 C 
HETATM    8  N   UNL     1      41.687 -13.472   4.490  1.00  0.00    -0.317 N 
HETATM    9  C   UNL     1      42.817 -13.574   3.674  1.00  0.00     0.020 A 
HETATM   10  C   UNL     1      43.541 -12.475   3.396  1.00  0.00     0.026 A 
HETATM   11  C   UNL     1      41.264 -12.248   5.031  1.00  0.00     0.247 A 
HETATM   12  O   UNL     1      40.258 -12.121   5.721  1.00  0.00    -0.268 OA
HETATM   13  C   UNL     1      42.082 -11.059   4.695  1.00  0.00     0.074 A 
HETATM   14  C   UNL     1      43.163 -11.188   3.919  1.00  0.00     0.007 A 
HETATM   15  C   UNL     1      40.550 -16.195   2.918  1.00  0.00     0.241 C 
ENDROOT
BRANCH   1  16
HETATM   16  C   UNL     1      40.200 -14.061   1.588  1.00  0.00     0.276 C 
BRANCH  16  17
HETATM   17  C   UNL     1      40.153 -13.579   0.164  1.00  0.00     0.005 A 
HETATM   18  C   UNL     1      40.850 -12.437  -0.242  1.00  0.00     0.107 A 
HETATM   19  C   UNL     1      40.845 -11.991  -1.571  1.00  0.00     0.103 A 
HETATM   20  C   UNL     1      40.118 -12.705  -2.519  1.00  0.00     0.058 A 
HETATM   21  C   UNL     1      39.417 -13.849  -2.130  1.00  0.00     0.014 A 
HETATM   22  C   UNL     1      39.434 -14.291  -0.804  1.00  0.00     0.030 A 
HETATM   23 BR   UNL     1      38.423 -14.818  -3.415  1.00  0.00    -0.051 Br
BRANCH  18  24
HETATM   24  O   UNL     1      41.543 -11.720   0.707  1.00  0.00    -0.357 OA
HETATM   25  H   UNL     1      42.472 -12.034   0.615  1.00  0.00     0.218 HD
ENDBRANCH  18  24
BRANCH  19  26
HETATM   26  O   UNL     1      41.575 -10.853  -1.791  1.00  0.00    -0.353 OA
HETATM   27  C   UNL     1      40.854  -9.714  -2.259  1.00  0.00     0.210 C 
ENDBRANCH  19  26
ENDBRANCH  16  17
ENDBRANCH   1  16
TORSDOF 4
ENDMDL
MODEL 10
REMARK VINA RESULT:      -6.7     14.626     16.271
REMARK  4 active torsions:
REMARK  status: ('A' for Active; 'I' for Inactive)
REMARK    1  A    between atoms: O_2  and  C_3 
REMARK    2  A    between atoms: C_4  and  O_5 
REMARK    3  A    between atoms: C_6  and  C_7 
REMARK    4  A    between atoms: C_7  and  N_8 
ROOT
HETATM    1  N   UNL     1      46.172 -29.380   0.814  1.00  0.00    -0.066 N 
HETATM    2  H   UNL     1      46.019 -29.535   1.828  1.00  0.00     0.280 HD
HETATM    3  C   UNL     1      46.885 -30.635   0.356  1.00  0.00     0.246 C 
HETATM    4  C   UNL     1      47.688 -30.444  -0.945  1.00  0.00     0.062 C 
HETATM    5  C   UNL     1      48.656 -29.278  -0.780  1.00  0.00     0.020 C 
HETATM    6  C   UNL     1      47.825 -28.021  -0.569  1.00  0.00     0.031 C 
HETATM    7  C   UNL     1      46.993 -27.752  -1.826  1.00  0.00     0.138 C 
HETATM    8  N   UNL     1      46.405 -28.924  -2.477  1.00  0.00    -0.317 N 
HETATM    9  C   UNL     1      46.775 -30.227  -2.133  1.00  0.00     0.020 A 
HETATM   10  C   UNL     1      46.301 -31.266  -2.843  1.00  0.00     0.026 A 
HETATM   11  C   UNL     1      45.536 -28.652  -3.545  1.00  0.00     0.247 A 
HETATM   12  O   UNL     1      45.164 -27.524  -3.850  1.00  0.00    -0.268 OA
HETATM   13  C   UNL     1      45.028 -29.823  -4.299  1.00  0.00     0.074 A 
HETATM   14  C   UNL     1      45.407 -31.058  -3.951  1.00  0.00     0.007 A 
HETATM   15  C   UNL     1      46.991 -28.124   0.715  1.00  0.00     0.241 C 
ENDROOT
BRANCH   1  16
HETATM   16  C   UNL     1      44.729 -29.223   0.366  1.00  0.00     0.276 C 
BRANCH  16  17
HETATM   17  C   UNL     1      43.775 -30.197   0.999  1.00  0.00     0.005 A 
HETATM   18  C   UNL     1      43.224 -29.960   2.262  1.00  0.00     0.107 A 
HETATM   19  C   UNL     1      42.307 -30.839   2.856  1.00  0.00     0.103 A 
HETATM   20  C   UNL     1      41.935 -31.990   2.167  1.00  0.00     0.058 A 
HETATM   21  C   UNL     1      42.475 -32.241   0.904  1.00  0.00     0.014 A 
HETATM   22  C   UNL     1      43.382 -31.355   0.316  1.00  0.00     0.030 A 
HETATM   23 BR   UNL     1      41.976 -33.807  -0.032  1.00  0.00    -0.051 Br
BRANCH  18  24
HETATM   24  O   UNL     1      43.620 -28.834   2.949  1.00  0.00    -0.357 OA
HETATM   25  H   UNL     1      43.246 -28.089   2.424  1.00  0.00     0.218 HD
ENDBRANCH  18  24
BRANCH  19  26
HETATM   26  O   UNL     1      41.875 -30.457   4.097  1.00  0.00    -0.353 OA
HETATM   27  C   UNL     1      40.633 -31.005   4.538  1.00  0.00     0.210 C 
ENDBRANCH  19  26
ENDBRANCH  16  17
ENDBRANCH   1  16
TORSDOF 4
ENDMDL
