MODEL 1
REMARK VINA RESULT:      -8.4      0.000      0.000
REMARK  6 active torsions:
REMARK  status: ('A' for Active; 'I' for Inactive)
REMARK    1  A    between atoms: C_2  and  S_3 
REMARK    2  A    between atoms: C_2  and  C_18 
REMARK    3  A    between atoms: S_3  and  C_4 
REMARK    4  A    between atoms: C_4  and  C_5 
REMARK       I    between atoms: C_5  and  N_6 
REMARK    5  A    between atoms: N_6  and  C_7 
REMARK    6  A    between atoms: C_10  and  C_11 
REMARK       I    between atoms: C_11  and  N_12 
ROOT
HETATM    1  C   UNL     1      40.940 -13.916   5.036  1.00  0.00     0.231 C 
HETATM    2  N   UNL     1      41.595 -14.363   3.896  1.00  0.00    -0.327 N 
HETATM    3  O   UNL     1      39.805 -13.448   5.083  1.00  0.00    -0.272 OA
HETATM    4  H   UNL     1      42.536 -14.717   4.022  1.00  0.00     0.169 HD
ENDROOT
BRANCH   1   5
HETATM    5  C   UNL     1      41.782 -14.044   6.297  1.00  0.00     0.177 C 
BRANCH   5   6
HETATM    6  S   UNL     1      43.552 -14.033   5.853  1.00  0.00    -0.147 SA
BRANCH   6   7
HETATM    7  C   UNL     1      44.010 -15.658   6.566  1.00  0.00     0.113 C 
HETATM    8  C   UNL     1      43.150 -15.941   7.794  1.00  0.00     0.029 C 
BRANCH   7   9
HETATM    9  C   UNL     1      43.887 -16.730   5.528  1.00  0.00     0.118 A 
HETATM   10  N   UNL     1      43.470 -16.568   4.287  1.00  0.00    -0.232 NA
HETATM   11  C   UNL     1      43.502 -17.817   3.717  1.00  0.00     0.085 A 
HETATM   12  C   UNL     1      43.926 -18.770   4.635  1.00  0.00     0.062 A 
HETATM   13  C   UNL     1      43.173 -18.219   2.415  1.00  0.00     0.034 A 
HETATM   14  N   UNL     1      44.161 -18.055   5.781  1.00  0.00    -0.342 N 
HETATM   15  C   UNL     1      44.043 -20.128   4.334  1.00  0.00     0.032 A 
HETATM   16  H   UNL     1      44.465 -18.433   6.666  1.00  0.00     0.167 HD
HETATM   17  C   UNL     1      43.712 -20.512   3.028  1.00  0.00     0.002 A 
HETATM   18  C   UNL     1      43.285 -19.575   2.083  1.00  0.00     0.002 A 
ENDBRANCH   7   9
ENDBRANCH   6   7
ENDBRANCH   5   6
ENDBRANCH   1   5
BRANCH   2  19
HETATM   19  C   UNL     1      41.103 -14.372   2.575  1.00  0.00     0.034 A 
HETATM   20  C   UNL     1      40.386 -15.432   2.015  1.00  0.00     0.030 A 
HETATM   21  C   UNL     1      39.919 -15.365   0.695  1.00  0.00     0.019 A 
HETATM   22  C   UNL     1      40.151 -14.225  -0.079  1.00  0.00     0.032 A 
HETATM   23  C   UNL     1      40.889 -13.170   0.470  1.00  0.00     0.019 A 
HETATM   24  C   UNL     1      41.360 -13.244   1.786  1.00  0.00     0.030 A 
BRANCH  22  25
HETATM   25  C   UNL     1      39.666 -14.097  -1.485  1.00  0.00     0.251 C 
HETATM   26  N   UNL     1      38.300 -14.029  -1.664  1.00  0.00    -0.361 N 
HETATM   27  C   UNL     1      37.714 -13.840  -2.968  1.00  0.00     0.149 C 
HETATM   28  H   UNL     1      37.698 -13.903  -0.862  1.00  0.00     0.162 HD
HETATM   29  O   UNL     1      40.474 -14.027  -2.405  1.00  0.00    -0.268 OA
ENDBRANCH  22  25
ENDBRANCH   2  19
TORSDOF 6
ENDMDL
MODEL 2
REMARK VINA RESULT:      -7.7      3.421      7.012
REMARK  6 active torsions:
REMARK  status: ('A' for Active; 'I' for Inactive)
REMARK    1  A    between atoms: C_2  and  S_3 
REMARK    2  A    between atoms: C_2  and  C_18 
REMARK    3  A    between atoms: S_3  and  C_4 
REMARK    4  A    between atoms: C_4  and  C_5 
REMARK       I    between atoms: C_5  and  N_6 
REMARK    5  A    between atoms: N_6  and  C_7 
REMARK    6  A    between atoms: C_10  and  C_11 
REMARK       I    between atoms: C_11  and  N_12 
ROOT
HETATM    1  C   UNL     1      42.001 -12.032   2.758  1.00  0.00     0.231 C 
HETATM    2  N   UNL     1      41.760 -12.521   4.035  1.00  0.00    -0.327 N 
HETATM    3  O   UNL     1      42.854 -11.205   2.448  1.00  0.00    -0.272 OA
HETATM    4  H   UNL     1      41.013 -13.198   4.130  1.00  0.00     0.169 HD
ENDROOT
BRANCH   1   5
HETATM    5  C   UNL     1      41.068 -12.619   1.709  1.00  0.00     0.177 C 
BRANCH   5   6
HETATM    6  S   UNL     1      39.630 -13.385   2.531  1.00  0.00    -0.147 SA
BRANCH   6   7
HETATM    7  C   UNL     1      39.837 -15.088   1.887  1.00  0.00     0.113 C 
HETATM    8  C   UNL     1      40.126 -15.039   0.390  1.00  0.00     0.029 C 
BRANCH   7   9
HETATM    9  C   UNL     1      40.911 -15.800   2.650  1.00  0.00     0.118 A 
HETATM   10  N   UNL     1      41.286 -15.546   3.889  1.00  0.00    -0.232 NA
HETATM   11  C   UNL     1      42.307 -16.424   4.157  1.00  0.00     0.085 A 
HETATM   12  C   UNL     1      42.580 -17.219   3.050  1.00  0.00     0.062 A 
HETATM   13  C   UNL     1      43.059 -16.596   5.327  1.00  0.00     0.034 A 
HETATM   14  N   UNL     1      41.682 -16.801   2.103  1.00  0.00    -0.342 N 
HETATM   15  C   UNL     1      43.578 -18.196   3.034  1.00  0.00     0.032 A 
HETATM   16  H   UNL     1      41.607 -17.151   1.160  1.00  0.00     0.167 HD
HETATM   17  C   UNL     1      44.319 -18.355   4.212  1.00  0.00     0.002 A 
HETATM   18  C   UNL     1      44.066 -17.571   5.340  1.00  0.00     0.002 A 
ENDBRANCH   7   9
ENDBRANCH   6   7
ENDBRANCH   5   6
ENDBRANCH   1   5
BRANCH   2  19
HETATM   19  C   UNL     1      42.435 -12.176   5.224  1.00  0.00     0.034 A 
HETATM   20  C   UNL     1      43.452 -12.944   5.797  1.00  0.00     0.030 A 
HETATM   21  C   UNL     1      44.085 -12.532   6.978  1.00  0.00     0.019 A 
HETATM   22  C   UNL     1      43.717 -11.332   7.594  1.00  0.00     0.032 A 
HETATM   23  C   UNL     1      42.684 -10.571   7.036  1.00  0.00     0.019 A 
HETATM   24  C   UNL     1      42.049 -10.991   5.861  1.00  0.00     0.030 A 
BRANCH  22  25
HETATM   25  C   UNL     1      44.367 -10.840   8.845  1.00  0.00     0.251 C 
HETATM   26  N   UNL     1      43.531 -10.548   9.902  1.00  0.00    -0.361 N 
HETATM   27  C   UNL     1      44.045 -10.127  11.183  1.00  0.00     0.149 C 
HETATM   28  H   UNL     1      42.560 -10.823   9.860  1.00  0.00     0.162 HD
HETATM   29  O   UNL     1      45.588 -10.744   8.900  1.00  0.00    -0.268 OA
ENDBRANCH  22  25
ENDBRANCH   2  19
TORSDOF 6
ENDMDL
MODEL 3
REMARK VINA RESULT:      -7.6      2.882      7.331
REMARK  6 active torsions:
REMARK  status: ('A' for Active; 'I' for Inactive)
REMARK    1  A    between atoms: C_2  and  S_3 
REMARK    2  A    between atoms: C_2  and  C_18 
REMARK    3  A    between atoms: S_3  and  C_4 
REMARK    4  A    between atoms: C_4  and  C_5 
REMARK       I    between atoms: C_5  and  N_6 
REMARK    5  A    between atoms: N_6  and  C_7 
REMARK    6  A    between atoms: C_10  and  C_11 
REMARK       I    between atoms: C_11  and  N_12 
ROOT
HETATM    1  C   UNL     1      42.576 -11.708   2.979  1.00  0.00     0.231 C 
HETATM    2  N   UNL     1      41.818 -12.863   2.844  1.00  0.00    -0.327 N 
HETATM    3  O   UNL     1      43.798 -11.652   3.091  1.00  0.00    -0.272 OA
HETATM    4  H   UNL     1      40.815 -12.742   2.769  1.00  0.00     0.169 HD
ENDROOT
BRANCH   1   5
HETATM    5  C   UNL     1      41.735 -10.439   2.991  1.00  0.00     0.177 C 
BRANCH   5   6
HETATM    6  S   UNL     1      39.967 -10.881   3.082  1.00  0.00    -0.147 SA
BRANCH   6   7
HETATM    7  C   UNL     1      39.445 -10.205   1.461  1.00  0.00     0.113 C 
HETATM    8  C   UNL     1      40.479  -9.197   0.968  1.00  0.00     0.029 C 
BRANCH   7   9
HETATM    9  C   UNL     1      39.225 -11.318   0.484  1.00  0.00     0.118 A 
HETATM   10  N   UNL     1      39.866 -12.470   0.459  1.00  0.00    -0.232 NA
HETATM   11  C   UNL     1      39.354 -13.159  -0.613  1.00  0.00     0.085 A 
HETATM   12  C   UNL     1      38.392 -12.404  -1.274  1.00  0.00     0.062 A 
HETATM   13  C   UNL     1      39.667 -14.439  -1.090  1.00  0.00     0.034 A 
HETATM   14  N   UNL     1      38.331 -11.235  -0.560  1.00  0.00    -0.342 N 
HETATM   15  C   UNL     1      37.710 -12.851  -2.407  1.00  0.00     0.032 A 
HETATM   16  H   UNL     1      37.746 -10.440  -0.770  1.00  0.00     0.167 HD
HETATM   17  C   UNL     1      38.035 -14.132  -2.870  1.00  0.00     0.002 A 
HETATM   18  C   UNL     1      38.996 -14.914  -2.224  1.00  0.00     0.002 A 
ENDBRANCH   7   9
ENDBRANCH   6   7
ENDBRANCH   5   6
ENDBRANCH   1   5
BRANCH   2  19
HETATM   19  C   UNL     1      42.285 -14.193   2.809  1.00  0.00     0.034 A 
HETATM   20  C   UNL     1      42.769 -14.821   1.659  1.00  0.00     0.030 A 
HETATM   21  C   UNL     1      43.226 -16.146   1.702  1.00  0.00     0.019 A 
HETATM   22  C   UNL     1      43.219 -16.855   2.906  1.00  0.00     0.032 A 
HETATM   23  C   UNL     1      42.713 -16.238   4.056  1.00  0.00     0.019 A 
HETATM   24  C   UNL     1      42.250 -14.918   4.006  1.00  0.00     0.030 A 
BRANCH  22  25
HETATM   25  C   UNL     1      43.705 -18.263   3.011  1.00  0.00     0.251 C 
HETATM   26  N   UNL     1      43.204 -19.160   2.091  1.00  0.00    -0.361 N 
HETATM   27  C   UNL     1      43.648 -20.533   2.050  1.00  0.00     0.149 C 
HETATM   28  H   UNL     1      42.675 -18.821   1.301  1.00  0.00     0.162 HD
HETATM   29  O   UNL     1      44.533 -18.560   3.865  1.00  0.00    -0.268 OA
ENDBRANCH  22  25
ENDBRANCH   2  19
TORSDOF 6
ENDMDL
MODEL 4
REMARK VINA RESULT:      -7.5      5.932      9.330
REMARK  6 active torsions:
REMARK  status: ('A' for Active; 'I' for Inactive)
REMARK    1  A    between atoms: C_2  and  S_3 
REMARK    2  A    between atoms: C_2  and  C_18 
REMARK    3  A    between atoms: S_3  and  C_4 
REMARK    4  A    between atoms: C_4  and  C_5 
REMARK       I    between atoms: C_5  and  N_6 
REMARK    5  A    between atoms: N_6  and  C_7 
REMARK    6  A    between atoms: C_10  and  C_11 
REMARK       I    between atoms: C_11  and  N_12 
ROOT
HETATM    1  C   UNL     1      44.729 -11.180   7.914  1.00  0.00     0.231 C 
HETATM    2  N   UNL     1      43.536 -10.751   8.479  1.00  0.00    -0.327 N 
HETATM    3  O   UNL     1      45.854 -11.000   8.372  1.00  0.00    -0.272 OA
HETATM    4  H   UNL     1      42.687 -10.974   7.973  1.00  0.00     0.169 HD
ENDROOT
BRANCH   1   5
HETATM    5  C   UNL     1      44.534 -11.925   6.601  1.00  0.00     0.177 C 
BRANCH   5   6
HETATM    6  S   UNL     1      43.499 -13.400   6.884  1.00  0.00    -0.147 SA
BRANCH   6   7
HETATM    7  C   UNL     1      42.726 -13.500   5.226  1.00  0.00     0.113 C 
HETATM    8  C   UNL     1      43.255 -12.373   4.344  1.00  0.00     0.029 C 
BRANCH   7   9
HETATM    9  C   UNL     1      42.965 -14.851   4.626  1.00  0.00     0.118 A 
HETATM   10  N   UNL     1      42.535 -15.268   3.451  1.00  0.00    -0.232 NA
HETATM   11  C   UNL     1      42.971 -16.565   3.334  1.00  0.00     0.085 A 
HETATM   12  C   UNL     1      43.664 -16.960   4.472  1.00  0.00     0.062 A 
HETATM   13  C   UNL     1      42.805 -17.477   2.281  1.00  0.00     0.034 A 
HETATM   14  N   UNL     1      43.644 -15.854   5.281  1.00  0.00    -0.342 N 
HETATM   15  C   UNL     1      44.213 -18.234   4.633  1.00  0.00     0.032 A 
HETATM   16  H   UNL     1      44.041 -15.787   6.206  1.00  0.00     0.167 HD
HETATM   17  C   UNL     1      44.038 -19.131   3.573  1.00  0.00     0.002 A 
HETATM   18  C   UNL     1      43.347 -18.762   2.416  1.00  0.00     0.002 A 
ENDBRANCH   7   9
ENDBRANCH   6   7
ENDBRANCH   5   6
ENDBRANCH   1   5
BRANCH   2  19
HETATM   19  C   UNL     1      43.369 -10.029   9.678  1.00  0.00     0.034 A 
HETATM   20  C   UNL     1      43.108  -8.657   9.735  1.00  0.00     0.030 A 
HETATM   21  C   UNL     1      42.945  -8.008  10.966  1.00  0.00     0.019 A 
HETATM   22  C   UNL     1      43.023  -8.730  12.161  1.00  0.00     0.032 A 
HETATM   23  C   UNL     1      43.306 -10.099  12.110  1.00  0.00     0.019 A 
HETATM   24  C   UNL     1      43.478 -10.742  10.878  1.00  0.00     0.030 A 
BRANCH  22  25
HETATM   25  C   UNL     1      42.844  -8.090  13.498  1.00  0.00     0.251 C 
HETATM   26  N   UNL     1      41.779  -8.529  14.256  1.00  0.00    -0.361 N 
HETATM   27  C   UNL     1      41.541  -8.034  15.590  1.00  0.00     0.149 C 
HETATM   28  H   UNL     1      41.272  -9.355  13.971  1.00  0.00     0.162 HD
HETATM   29  O   UNL     1      43.643  -7.242  13.880  1.00  0.00    -0.268 OA
ENDBRANCH  22  25
ENDBRANCH   2  19
TORSDOF 6
ENDMDL
MODEL 5
REMARK VINA RESULT:      -7.4      5.892      9.236
REMARK  6 active torsions:
REMARK  status: ('A' for Active; 'I' for Inactive)
REMARK    1  A    between atoms: C_2  and  S_3 
REMARK    2  A    between atoms: C_2  and  C_18 
REMARK    3  A    between atoms: S_3  and  C_4 
REMARK    4  A    between atoms: C_4  and  C_5 
REMARK       I    between atoms: C_5  and  N_6 
REMARK    5  A    between atoms: N_6  and  C_7 
REMARK    6  A    between atoms: C_10  and  C_11 
REMARK       I    between atoms: C_11  and  N_12 
ROOT
HETATM    1  C   UNL     1      42.990 -11.410   6.467  1.00  0.00     0.231 C 
HETATM    2  N   UNL     1      42.307 -12.618   6.528  1.00  0.00    -0.327 N 
HETATM    3  O   UNL     1      44.093 -11.226   5.959  1.00  0.00    -0.272 OA
HETATM    4  H   UNL     1      41.405 -12.608   6.989  1.00  0.00     0.169 HD
ENDROOT
BRANCH   1   5
HETATM    5  C   UNL     1      42.234 -10.264   7.125  1.00  0.00     0.177 C 
BRANCH   5   6
HETATM    6  S   UNL     1      43.422  -9.118   7.904  1.00  0.00    -0.147 SA
BRANCH   6   7
HETATM    7  C   UNL     1      43.960 -10.198   9.283  1.00  0.00     0.113 C 
HETATM    8  C   UNL     1      45.483 -10.277   9.310  1.00  0.00     0.029 C 
BRANCH   7   9
HETATM    9  C   UNL     1      43.394  -9.701  10.578  1.00  0.00     0.118 A 
HETATM   10  N   UNL     1      43.904  -8.750  11.336  1.00  0.00    -0.232 NA
HETATM   11  C   UNL     1      43.069  -8.651  12.422  1.00  0.00     0.085 A 
HETATM   12  C   UNL     1      42.036  -9.578  12.339  1.00  0.00     0.062 A 
HETATM   13  C   UNL     1      43.133  -7.793  13.529  1.00  0.00     0.034 A 
HETATM   14  N   UNL     1      42.267 -10.236  11.160  1.00  0.00    -0.342 N 
HETATM   15  C   UNL     1      41.043  -9.710  13.312  1.00  0.00     0.032 A 
HETATM   16  H   UNL     1      41.718 -10.997  10.786  1.00  0.00     0.167 HD
HETATM   17  C   UNL     1      41.122  -8.845  14.410  1.00  0.00     0.002 A 
HETATM   18  C   UNL     1      42.147  -7.902  14.519  1.00  0.00     0.002 A 
ENDBRANCH   7   9
ENDBRANCH   6   7
ENDBRANCH   5   6
ENDBRANCH   1   5
BRANCH   2  19
HETATM   19  C   UNL     1      42.732 -13.866   6.027  1.00  0.00     0.034 A 
HETATM   20  C   UNL     1      43.401 -14.827   6.790  1.00  0.00     0.030 A 
HETATM   21  C   UNL     1      43.785 -16.051   6.225  1.00  0.00     0.019 A 
HETATM   22  C   UNL     1      43.487 -16.337   4.889  1.00  0.00     0.032 A 
HETATM   23  C   UNL     1      42.837 -15.368   4.116  1.00  0.00     0.019 A 
HETATM   24  C   UNL     1      42.464 -14.143   4.682  1.00  0.00     0.030 A 
BRANCH  22  25
HETATM   25  C   UNL     1      43.861 -17.629   4.243  1.00  0.00     0.251 C 
HETATM   26  N   UNL     1      43.132 -17.999   3.132  1.00  0.00    -0.361 N 
HETATM   27  C   UNL     1      43.441 -19.193   2.384  1.00  0.00     0.149 C 
HETATM   28  H   UNL     1      42.504 -17.333   2.704  1.00  0.00     0.162 HD
HETATM   29  O   UNL     1      44.796 -18.285   4.688  1.00  0.00    -0.268 OA
ENDBRANCH  22  25
ENDBRANCH   2  19
TORSDOF 6
ENDMDL
MODEL 6
REMARK VINA RESULT:      -7.4      3.073      7.303
REMARK  6 active torsions:
REMARK  status: ('A' for Active; 'I' for Inactive)
REMARK    1  A    between atoms: C_2  and  S_3 
REMARK    2  A    between atoms: C_2  and  C_18 
REMARK    3  A    between atoms: S_3  and  C_4 
REMARK    4  A    between atoms: C_4  and  C_5 
REMARK       I    between atoms: C_5  and  N_6 
REMARK    5  A    between atoms: N_6  and  C_7 
REMARK    6  A    between atoms: C_10  and  C_11 
REMARK       I    between atoms: C_11  and  N_12 
ROOT
HETATM    1  C   UNL     1      40.851 -13.943   0.505  1.00  0.00     0.231 C 
HETATM    2  N   UNL     1      42.086 -14.066   1.126  1.00  0.00    -0.327 N 
HETATM    3  O   UNL     1      39.918 -14.738   0.582  1.00  0.00    -0.272 OA
HETATM    4  H   UNL     1      42.756 -13.325   0.958  1.00  0.00     0.169 HD
ENDROOT
BRANCH   1   5
HETATM    5  C   UNL     1      40.730 -12.681  -0.338  1.00  0.00     0.177 C 
BRANCH   5   6
HETATM    6  S   UNL     1      39.321 -11.685   0.254  1.00  0.00    -0.147 SA
BRANCH   6   7
HETATM    7  C   UNL     1      40.267 -10.265   0.922  1.00  0.00     0.113 C 
HETATM    8  C   UNL     1      39.311  -9.125   1.260  1.00  0.00     0.029 C 
BRANCH   7   9
HETATM    9  C   UNL     1      41.078 -10.696   2.104  1.00  0.00     0.118 A 
HETATM   10  N   UNL     1      42.388 -10.851   2.135  1.00  0.00    -0.232 NA
HETATM   11  C   UNL     1      42.683 -11.275   3.408  1.00  0.00     0.085 A 
HETATM   12  C   UNL     1      41.526 -11.405   4.168  1.00  0.00     0.062 A 
HETATM   13  C   UNL     1      43.922 -11.578   3.988  1.00  0.00     0.034 A 
HETATM   14  N   UNL     1      40.519 -11.035   3.315  1.00  0.00    -0.342 N 
HETATM   15  C   UNL     1      41.525 -11.830   5.497  1.00  0.00     0.032 A 
HETATM   16  H   UNL     1      39.532 -11.028   3.529  1.00  0.00     0.167 HD
HETATM   17  C   UNL     1      42.771 -12.128   6.062  1.00  0.00     0.002 A 
HETATM   18  C   UNL     1      43.951 -12.005   5.322  1.00  0.00     0.002 A 
ENDBRANCH   7   9
ENDBRANCH   6   7
ENDBRANCH   5   6
ENDBRANCH   1   5
BRANCH   2  19
HETATM   19  C   UNL     1      42.522 -15.116   1.961  1.00  0.00     0.034 A 
HETATM   20  C   UNL     1      43.033 -16.328   1.491  1.00  0.00     0.030 A 
HETATM   21  C   UNL     1      43.457 -17.323   2.383  1.00  0.00     0.019 A 
HETATM   22  C   UNL     1      43.389 -17.109   3.763  1.00  0.00     0.032 A 
HETATM   23  C   UNL     1      42.856 -15.906   4.238  1.00  0.00     0.019 A 
HETATM   24  C   UNL     1      42.427 -14.918   3.344  1.00  0.00     0.030 A 
BRANCH  22  25
HETATM   25  C   UNL     1      43.837 -18.130   4.756  1.00  0.00     0.251 C 
HETATM   26  N   UNL     1      43.932 -19.430   4.306  1.00  0.00    -0.361 N 
HETATM   27  C   UNL     1      44.416 -20.493   5.153  1.00  0.00     0.149 C 
HETATM   28  H   UNL     1      43.862 -19.622   3.317  1.00  0.00     0.162 HD
HETATM   29  O   UNL     1      44.128 -17.785   5.895  1.00  0.00    -0.268 OA
ENDBRANCH  22  25
ENDBRANCH   2  19
TORSDOF 6
ENDMDL
MODEL 7
REMARK VINA RESULT:      -7.0      2.620      7.580
REMARK  6 active torsions:
REMARK  status: ('A' for Active; 'I' for Inactive)
REMARK    1  A    between atoms: C_2  and  S_3 
REMARK    2  A    between atoms: C_2  and  C_18 
REMARK    3  A    between atoms: S_3  and  C_4 
REMARK    4  A    between atoms: C_4  and  C_5 
REMARK       I    between atoms: C_5  and  N_6 
REMARK    5  A    between atoms: N_6  and  C_7 
REMARK    6  A    between atoms: C_10  and  C_11 
REMARK       I    between atoms: C_11  and  N_12 
ROOT
HETATM    1  C   UNL     1      41.074 -12.791   3.678  1.00  0.00     0.231 C 
HETATM    2  N   UNL     1      42.324 -13.326   3.396  1.00  0.00    -0.327 N 
HETATM    3  O   UNL     1      40.100 -13.409   4.100  1.00  0.00    -0.272 OA
HETATM    4  H   UNL     1      43.025 -12.684   3.046  1.00  0.00     0.169 HD
ENDROOT
BRANCH   1   5
HETATM    5  C   UNL     1      40.987 -11.298   3.399  1.00  0.00     0.177 C 
BRANCH   5   6
HETATM    6  S   UNL     1      39.310 -10.884   2.809  1.00  0.00    -0.147 SA
BRANCH   6   7
HETATM    7  C   UNL     1      39.749 -10.383   1.103  1.00  0.00     0.113 C 
HETATM    8  C   UNL     1      41.223  -9.990   1.046  1.00  0.00     0.029 C 
BRANCH   7   9
HETATM    9  C   UNL     1      39.417 -11.481   0.141  1.00  0.00     0.118 A 
HETATM   10  N   UNL     1      39.943 -12.691   0.128  1.00  0.00    -0.232 NA
HETATM   11  C   UNL     1      39.360 -13.339  -0.933  1.00  0.00     0.085 A 
HETATM   12  C   UNL     1      38.474 -12.502  -1.600  1.00  0.00     0.062 A 
HETATM   13  C   UNL     1      39.545 -14.650  -1.396  1.00  0.00     0.034 A 
HETATM   14  N   UNL     1      38.531 -11.324  -0.901  1.00  0.00    -0.342 N 
HETATM   15  C   UNL     1      37.746 -12.894  -2.725  1.00  0.00     0.032 A 
HETATM   16  H   UNL     1      38.025 -10.478  -1.119  1.00  0.00     0.167 HD
HETATM   17  C   UNL     1      37.942 -14.206  -3.173  1.00  0.00     0.002 A 
HETATM   18  C   UNL     1      38.824 -15.071  -2.521  1.00  0.00     0.002 A 
ENDBRANCH   7   9
ENDBRANCH   6   7
ENDBRANCH   5   6
ENDBRANCH   1   5
BRANCH   2  19
HETATM   19  C   UNL     1      42.730 -14.669   3.533  1.00  0.00     0.034 A 
HETATM   20  C   UNL     1      43.026 -15.276   4.756  1.00  0.00     0.030 A 
HETATM   21  C   UNL     1      43.415 -16.621   4.815  1.00  0.00     0.019 A 
HETATM   22  C   UNL     1      43.497 -17.384   3.646  1.00  0.00     0.032 A 
HETATM   23  C   UNL     1      43.224 -16.774   2.417  1.00  0.00     0.019 A 
HETATM   24  C   UNL     1      42.844 -15.428   2.362  1.00  0.00     0.030 A 
BRANCH  22  25
HETATM   25  C   UNL     1      43.894 -18.823   3.653  1.00  0.00     0.251 C 
HETATM   26  N   UNL     1      44.046 -19.417   4.889  1.00  0.00    -0.361 N 
HETATM   27  C   UNL     1      44.363 -20.817   5.025  1.00  0.00     0.149 C 
HETATM   28  H   UNL     1      43.733 -18.930   5.717  1.00  0.00     0.162 HD
HETATM   29  O   UNL     1      44.038 -19.421   2.593  1.00  0.00    -0.268 OA
ENDBRANCH  22  25
ENDBRANCH   2  19
TORSDOF 6
ENDMDL
MODEL 8
REMARK VINA RESULT:      -7.0      2.732      6.228
REMARK  6 active torsions:
REMARK  status: ('A' for Active; 'I' for Inactive)
REMARK    1  A    between atoms: C_2  and  S_3 
REMARK    2  A    between atoms: C_2  and  C_18 
REMARK    3  A    between atoms: S_3  and  C_4 
REMARK    4  A    between atoms: C_4  and  C_5 
REMARK       I    between atoms: C_5  and  N_6 
REMARK    5  A    between atoms: N_6  and  C_7 
REMARK    6  A    between atoms: C_10  and  C_11 
REMARK       I    between atoms: C_11  and  N_12 
ROOT
HETATM    1  C   UNL     1      42.705 -12.264   5.228  1.00  0.00     0.231 C 
HETATM    2  N   UNL     1      42.119 -13.502   5.455  1.00  0.00    -0.327 N 
HETATM    3  O   UNL     1      43.702 -12.049   4.543  1.00  0.00    -0.272 OA
HETATM    4  H   UNL     1      41.300 -13.515   6.052  1.00  0.00     0.169 HD
ENDROOT
BRANCH   1   5
HETATM    5  C   UNL     1      41.989 -11.125   5.940  1.00  0.00     0.177 C 
BRANCH   5   6
HETATM    6  S   UNL     1      40.238 -11.570   6.195  1.00  0.00    -0.147 SA
BRANCH   6   7
HETATM    7  C   UNL     1      39.578 -10.960   4.598  1.00  0.00     0.113 C 
HETATM    8  C   UNL     1      40.249  -9.639   4.236  1.00  0.00     0.029 C 
BRANCH   7   9
HETATM    9  C   UNL     1      39.758 -11.999   3.535  1.00  0.00     0.118 A 
HETATM   10  N   UNL     1      40.196 -11.790   2.308  1.00  0.00    -0.232 NA
HETATM   11  C   UNL     1      40.174 -13.016   1.691  1.00  0.00     0.085 A 
HETATM   12  C   UNL     1      39.690 -13.996   2.550  1.00  0.00     0.062 A 
HETATM   13  C   UNL     1      40.547 -13.372   0.387  1.00  0.00     0.034 A 
HETATM   14  N   UNL     1      39.429 -13.324   3.716  1.00  0.00    -0.342 N 
HETATM   15  C   UNL     1      39.549 -15.336   2.185  1.00  0.00     0.032 A 
HETATM   16  H   UNL     1      39.044 -13.723   4.559  1.00  0.00     0.167 HD
HETATM   17  C   UNL     1      39.927 -15.673   0.880  1.00  0.00     0.002 A 
HETATM   18  C   UNL     1      40.418 -14.710  -0.006  1.00  0.00     0.002 A 
ENDBRANCH   7   9
ENDBRANCH   6   7
ENDBRANCH   5   6
ENDBRANCH   1   5
BRANCH   2  19
HETATM   19  C   UNL     1      42.539 -14.752   4.956  1.00  0.00     0.034 A 
HETATM   20  C   UNL     1      42.826 -15.000   3.612  1.00  0.00     0.030 A 
HETATM   21  C   UNL     1      43.249 -16.269   3.190  1.00  0.00     0.019 A 
HETATM   22  C   UNL     1      43.406 -17.304   4.115  1.00  0.00     0.032 A 
HETATM   23  C   UNL     1      43.098 -17.066   5.459  1.00  0.00     0.019 A 
HETATM   24  C   UNL     1      42.668 -15.801   5.875  1.00  0.00     0.030 A 
BRANCH  22  25
HETATM   25  C   UNL     1      43.866 -18.669   3.722  1.00  0.00     0.251 C 
HETATM   26  N   UNL     1      43.441 -19.134   2.495  1.00  0.00    -0.361 N 
HETATM   27  C   UNL     1      43.871 -20.410   1.977  1.00  0.00     0.149 C 
HETATM   28  H   UNL     1      42.990 -18.501   1.850  1.00  0.00     0.162 HD
HETATM   29  O   UNL     1      44.608 -19.300   4.466  1.00  0.00    -0.268 OA
ENDBRANCH  22  25
ENDBRANCH   2  19
TORSDOF 6
ENDMDL
MODEL 9
REMARK VINA RESULT:      -6.9      4.266      7.736
REMARK  6 active torsions:
REMARK  status: ('A' for Active; 'I' for Inactive)
REMARK    1  A    between atoms: C_2  and  S_3 
REMARK    2  A    between atoms: C_2  and  C_18 
REMARK    3  A    between atoms: S_3  and  C_4 
REMARK    4  A    between atoms: C_4  and  C_5 
REMARK       I    between atoms: C_5  and  N_6 
REMARK    5  A    between atoms: N_6  and  C_7 
REMARK    6  A    between atoms: C_10  and  C_11 
REMARK       I    between atoms: C_11  and  N_12 
ROOT
HETATM    1  C   UNL     1      39.925 -12.924   5.471  1.00  0.00     0.231 C 
HETATM    2  N   UNL     1      40.760 -13.284   4.422  1.00  0.00    -0.327 N 
HETATM    3  O   UNL     1      39.606 -13.634   6.421  1.00  0.00    -0.272 OA
HETATM    4  H   UNL     1      40.921 -12.585   3.707  1.00  0.00     0.169 HD
ENDROOT
BRANCH   1   5
HETATM    5  C   UNL     1      39.391 -11.504   5.347  1.00  0.00     0.177 C 
BRANCH   5   6
HETATM    6  S   UNL     1      39.202 -10.776   7.010  1.00  0.00    -0.147 SA
BRANCH   6   7
HETATM    7  C   UNL     1      40.117  -9.216   6.718  1.00  0.00     0.113 C 
HETATM    8  C   UNL     1      39.367  -8.053   7.360  1.00  0.00     0.029 C 
BRANCH   7   9
HETATM    9  C   UNL     1      41.520  -9.338   7.228  1.00  0.00     0.118 A 
HETATM   10  N   UNL     1      42.259  -8.360   7.714  1.00  0.00    -0.232 NA
HETATM   11  C   UNL     1      43.468  -8.929   8.031  1.00  0.00     0.085 A 
HETATM   12  C   UNL     1      43.479 -10.281   7.712  1.00  0.00     0.062 A 
HETATM   13  C   UNL     1      44.614  -8.348   8.592  1.00  0.00     0.034 A 
HETATM   14  N   UNL     1      42.230 -10.517   7.199  1.00  0.00    -0.342 N 
HETATM   15  C   UNL     1      44.583 -11.110   7.917  1.00  0.00     0.032 A 
HETATM   16  H   UNL     1      41.890 -11.398   6.842  1.00  0.00     0.167 HD
HETATM   17  C   UNL     1      45.719 -10.514   8.478  1.00  0.00     0.002 A 
HETATM   18  C   UNL     1      45.737  -9.157   8.812  1.00  0.00     0.002 A 
ENDBRANCH   7   9
ENDBRANCH   6   7
ENDBRANCH   5   6
ENDBRANCH   1   5
BRANCH   2  19
HETATM   19  C   UNL     1      41.406 -14.523   4.230  1.00  0.00     0.034 A 
HETATM   20  C   UNL     1      40.976 -15.497   3.326  1.00  0.00     0.030 A 
HETATM   21  C   UNL     1      41.676 -16.704   3.183  1.00  0.00     0.019 A 
HETATM   22  C   UNL     1      42.830 -16.943   3.935  1.00  0.00     0.032 A 
HETATM   23  C   UNL     1      43.252 -15.979   4.858  1.00  0.00     0.019 A 
HETATM   24  C   UNL     1      42.544 -14.780   5.004  1.00  0.00     0.030 A 
BRANCH  22  25
HETATM   25  C   UNL     1      43.620 -18.204   3.813  1.00  0.00     0.251 C 
HETATM   26  N   UNL     1      43.806 -18.932   4.969  1.00  0.00    -0.361 N 
HETATM   27  C   UNL     1      44.496 -20.199   4.966  1.00  0.00     0.149 C 
HETATM   28  H   UNL     1      43.283 -18.691   5.799  1.00  0.00     0.162 HD
HETATM   29  O   UNL     1      44.038 -18.557   2.716  1.00  0.00    -0.268 OA
ENDBRANCH  22  25
ENDBRANCH   2  19
TORSDOF 6
ENDMDL
MODEL 10
REMARK VINA RESULT:      -6.9      2.847      7.087
REMARK  6 active torsions:
REMARK  status: ('A' for Active; 'I' for Inactive)
REMARK    1  A    between atoms: C_2  and  S_3 
REMARK    2  A    between atoms: C_2  and  C_18 
REMARK    3  A    between atoms: S_3  and  C_4 
REMARK    4  A    between atoms: C_4  and  C_5 
REMARK       I    between atoms: C_5  and  N_6 
REMARK    5  A    between atoms: N_6  and  C_7 
REMARK    6  A    between atoms: C_10  and  C_11 
REMARK       I    between atoms: C_11  and  N_12 
ROOT
HETATM    1  C   UNL     1      39.999 -12.975   5.053  1.00  0.00     0.231 C 
HETATM    2  N   UNL     1      40.793 -13.321   3.968  1.00  0.00    -0.327 N 
HETATM    3  O   UNL     1      39.798 -13.659   6.053  1.00  0.00    -0.272 OA
HETATM    4  H   UNL     1      40.852 -12.648   3.214  1.00  0.00     0.169 HD
ENDROOT
BRANCH   1   5
HETATM    5  C   UNL     1      39.344 -11.609   4.900  1.00  0.00     0.177 C 
BRANCH   5   6
HETATM    6  S   UNL     1      40.198 -10.665   3.593  1.00  0.00    -0.147 SA
BRANCH   6   7
HETATM    7  C   UNL     1      38.832 -10.614   2.373  1.00  0.00     0.113 C 
HETATM    8  C   UNL     1      38.432  -9.165   2.111  1.00  0.00     0.029 C 
BRANCH   7   9
HETATM    9  C   UNL     1      39.233 -11.327   1.119  1.00  0.00     0.118 A 
HETATM   10  N   UNL     1      39.179 -12.629   0.912  1.00  0.00    -0.232 NA
HETATM   11  C   UNL     1      39.664 -12.825  -0.357  1.00  0.00     0.085 A 
HETATM   12  C   UNL     1      40.045 -11.620  -0.935  1.00  0.00     0.062 A 
HETATM   13  C   UNL     1      39.817 -14.013  -1.087  1.00  0.00     0.034 A 
HETATM   14  N   UNL     1      39.765 -10.682   0.025  1.00  0.00    -0.342 N 
HETATM   15  C   UNL     1      40.583 -11.519  -2.219  1.00  0.00     0.032 A 
HETATM   16  H   UNL     1      39.936  -9.690  -0.046  1.00  0.00     0.167 HD
HETATM   17  C   UNL     1      40.728 -12.715  -2.933  1.00  0.00     0.002 A 
HETATM   18  C   UNL     1      40.352 -13.941  -2.380  1.00  0.00     0.002 A 
ENDBRANCH   7   9
ENDBRANCH   6   7
ENDBRANCH   5   6
ENDBRANCH   1   5
BRANCH   2  19
HETATM   19  C   UNL     1      41.525 -14.514   3.791  1.00  0.00     0.034 A 
HETATM   20  C   UNL     1      42.751 -14.777   4.406  1.00  0.00     0.030 A 
HETATM   21  C   UNL     1      43.417 -15.991   4.189  1.00  0.00     0.019 A 
HETATM   22  C   UNL     1      42.853 -16.968   3.363  1.00  0.00     0.032 A 
HETATM   23  C   UNL     1      41.636 -16.699   2.728  1.00  0.00     0.019 A 
HETATM   24  C   UNL     1      40.979 -15.482   2.940  1.00  0.00     0.030 A 
BRANCH  22  25
HETATM   25  C   UNL     1      43.513 -18.283   3.109  1.00  0.00     0.251 C 
HETATM   26  N   UNL     1      42.898 -19.119   2.201  1.00  0.00    -0.361 N 
HETATM   27  C   UNL     1      43.474 -20.386   1.824  1.00  0.00     0.149 C 
HETATM   28  H   UNL     1      42.142 -18.765   1.631  1.00  0.00     0.162 HD
HETATM   29  O   UNL     1      44.566 -18.555   3.674  1.00  0.00    -0.268 OA
ENDBRANCH  22  25
ENDBRANCH   2  19
TORSDOF 6
ENDMDL
