MODEL 1
REMARK VINA RESULT:      -9.5      0.000      0.000
REMARK  8 active torsions:
REMARK  status: ('A' for Active; 'I' for Inactive)
REMARK    1  A    between atoms: C_2  and  O_3 
REMARK    2  A    between atoms: O_3  and  C_4 
REMARK    3  A    between atoms: C_5  and  C_6 
REMARK    4  A    between atoms: C_6  and  N_7 
REMARK    5  A    between atoms: C_9  and  C_10 
REMARK    6  A    between atoms: C_10  and  C_11 
REMARK       I    between atoms: C_11  and  N_12 
REMARK    7  A    between atoms: N_12  and  C_13 
REMARK    8  A    between atoms: C_13  and  C_14 
ROOT
HETATM    1  N   UNL     1      41.789 -15.636   3.368  1.00  0.00    -0.052 N 
HETATM    2  H   UNL     1      41.259 -16.194   4.046  1.00  0.00     0.281 HD
HETATM    3  C   UNL     1      41.608 -14.132   3.763  1.00  0.00     0.288 C 
HETATM    4  C   UNL     1      40.103 -13.718   3.703  1.00  0.00     0.249 C 
HETATM    5  O   UNL     1      39.586 -12.906   4.465  1.00  0.00    -0.271 OA
HETATM    6  N   UNL     1      39.348 -14.274   2.700  1.00  0.00    -0.358 N 
HETATM    7  C   UNL     1      39.669 -15.530   2.053  1.00  0.00     0.150 C 
HETATM    8  C   UNL     1      41.171 -15.825   1.977  1.00  0.00     0.256 C 
HETATM    9  H   UNL     1      38.375 -13.974   2.711  1.00  0.00     0.162 HD
ENDROOT
BRANCH   3  10
HETATM   10  C   UNL     1      42.152 -13.831   5.166  1.00  0.00     0.145 C 
BRANCH  10  11
HETATM   11  C   UNL     1      43.294 -12.848   5.029  1.00  0.00     0.220 C 
HETATM   12  N   UNL     1      44.035 -12.685   6.168  1.00  0.00    -0.355 N 
HETATM   13  H   UNL     1      43.752 -13.122   7.036  1.00  0.00     0.162 HD
HETATM   14  O   UNL     1      43.523 -12.283   3.965  1.00  0.00    -0.274 OA
BRANCH  12  15
HETATM   15  C   UNL     1      44.972 -11.592   6.303  1.00  0.00     0.179 C 
BRANCH  15  16
HETATM   16  C   UNL     1      44.612 -10.882   7.557  1.00  0.00     0.028 A 
HETATM   17  N   UNL     1      43.317 -10.508   7.836  1.00  0.00    -0.357 N 
HETATM   18  H   UNL     1      42.514 -10.691   7.244  1.00  0.00     0.166 HD
HETATM   19  C   UNL     1      43.246  -9.904   9.072  1.00  0.00     0.043 A 
HETATM   20  C   UNL     1      44.543  -9.868   9.586  1.00  0.00    -0.005 A 
HETATM   21  C   UNL     1      42.140  -9.394   9.764  1.00  0.00     0.033 A 
HETATM   22  C   UNL     1      45.393 -10.477   8.622  1.00  0.00     0.040 A 
HETATM   23  C   UNL     1      44.757  -9.291  10.851  1.00  0.00     0.056 A 
HETATM   24  C   UNL     1      43.659  -8.782  11.546  1.00  0.00     0.117 A 
HETATM   25  C   UNL     1      42.374  -8.829  11.020  1.00  0.00     0.044 A 
HETATM   26  F   UNL     1      43.851  -8.237  12.755  1.00  0.00    -0.206 F 
ENDBRANCH  15  16
ENDBRANCH  12  15
ENDBRANCH  10  11
ENDBRANCH   3  10
BRANCH   1  27
HETATM   27  C   UNL     1      43.235 -16.102   3.402  1.00  0.00     0.277 C 
BRANCH  27  28
HETATM   28  C   UNL     1      43.466 -17.596   3.397  1.00  0.00     0.001 A 
HETATM   29  C   UNL     1      43.960 -18.212   4.566  1.00  0.00     0.076 A 
HETATM   30  C   UNL     1      44.192 -19.590   4.589  1.00  0.00     0.037 A 
HETATM   31  C   UNL     1      43.887 -20.371   3.475  1.00  0.00     0.003 A 
HETATM   32  C   UNL     1      43.336 -19.786   2.341  1.00  0.00     0.001 A 
HETATM   33  C   UNL     1      43.114 -18.409   2.304  1.00  0.00     0.012 A 
BRANCH  29  34
HETATM   34  O   UNL     1      44.187 -17.376   5.627  1.00  0.00    -0.351 OA
BRANCH  34  35
HETATM   35  C   UNL     1      43.378 -17.576   6.792  1.00  0.00     0.171 C 
HETATM   36  C   UNL     1      43.355 -16.274   7.572  1.00  0.00     0.034 C 
ENDBRANCH  34  35
ENDBRANCH  29  34
ENDBRANCH  27  28
ENDBRANCH   1  27
TORSDOF 8
ENDMDL
MODEL 2
REMARK VINA RESULT:      -9.5      4.783      7.288
REMARK  8 active torsions:
REMARK  status: ('A' for Active; 'I' for Inactive)
REMARK    1  A    between atoms: C_2  and  O_3 
REMARK    2  A    between atoms: O_3  and  C_4 
REMARK    3  A    between atoms: C_5  and  C_6 
REMARK    4  A    between atoms: C_6  and  N_7 
REMARK    5  A    between atoms: C_9  and  C_10 
REMARK    6  A    between atoms: C_10  and  C_11 
REMARK       I    between atoms: C_11  and  N_12 
REMARK    7  A    between atoms: N_12  and  C_13 
REMARK    8  A    between atoms: C_13  and  C_14 
ROOT
HETATM    1  N   UNL     1      42.250 -15.599   4.533  1.00  0.00    -0.052 N 
HETATM    2  H   UNL     1      42.697 -15.822   5.429  1.00  0.00     0.281 HD
HETATM    3  C   UNL     1      41.988 -14.055   4.518  1.00  0.00     0.288 C 
HETATM    4  C   UNL     1      41.035 -13.641   5.684  1.00  0.00     0.249 C 
HETATM    5  O   UNL     1      41.116 -12.574   6.287  1.00  0.00    -0.271 OA
HETATM    6  N   UNL     1      40.029 -14.519   6.002  1.00  0.00    -0.358 N 
HETATM    7  C   UNL     1      40.082 -15.940   5.725  1.00  0.00     0.150 C 
HETATM    8  C   UNL     1      40.887 -16.298   4.471  1.00  0.00     0.256 C 
HETATM    9  H   UNL     1      39.443 -14.201   6.771  1.00  0.00     0.162 HD
ENDROOT
BRANCH   3  10
HETATM   10  C   UNL     1      43.287 -13.245   4.623  1.00  0.00     0.145 C 
BRANCH  10  11
HETATM   11  C   UNL     1      43.207 -12.095   3.643  1.00  0.00     0.220 C 
HETATM   12  N   UNL     1      41.942 -11.826   3.194  1.00  0.00    -0.355 N 
HETATM   13  H   UNL     1      41.167 -12.430   3.439  1.00  0.00     0.162 HD
HETATM   14  O   UNL     1      44.207 -11.464   3.320  1.00  0.00    -0.274 OA
BRANCH  12  15
HETATM   15  C   UNL     1      41.718 -10.964   2.056  1.00  0.00     0.179 C 
BRANCH  15  16
HETATM   16  C   UNL     1      41.124 -11.816   0.993  1.00  0.00     0.028 A 
HETATM   17  N   UNL     1      41.088 -11.419  -0.324  1.00  0.00    -0.357 N 
HETATM   18  H   UNL     1      41.465 -10.549  -0.684  1.00  0.00     0.166 HD
HETATM   19  C   UNL     1      40.525 -12.401  -1.108  1.00  0.00     0.043 A 
HETATM   20  C   UNL     1      40.165 -13.448  -0.258  1.00  0.00    -0.005 A 
HETATM   21  C   UNL     1      40.311 -12.438  -2.492  1.00  0.00     0.033 A 
HETATM   22  C   UNL     1      40.539 -13.065   1.059  1.00  0.00     0.040 A 
HETATM   23  C   UNL     1      39.556 -14.590  -0.807  1.00  0.00     0.056 A 
HETATM   24  C   UNL     1      39.341 -14.635  -2.185  1.00  0.00     0.117 A 
HETATM   25  C   UNL     1      39.708 -13.584  -3.017  1.00  0.00     0.044 A 
HETATM   26  F   UNL     1      38.768 -15.721  -2.720  1.00  0.00    -0.206 F 
ENDBRANCH  15  16
ENDBRANCH  12  15
ENDBRANCH  10  11
ENDBRANCH   3  10
BRANCH   1  27
HETATM   27  C   UNL     1      43.168 -16.070   3.417  1.00  0.00     0.277 C 
BRANCH  27  28
HETATM   28  C   UNL     1      43.409 -17.559   3.320  1.00  0.00     0.001 A 
HETATM   29  C   UNL     1      43.984 -18.229   4.420  1.00  0.00     0.076 A 
HETATM   30  C   UNL     1      44.226 -19.605   4.355  1.00  0.00     0.037 A 
HETATM   31  C   UNL     1      43.852 -20.330   3.225  1.00  0.00     0.003 A 
HETATM   32  C   UNL     1      43.222 -19.692   2.162  1.00  0.00     0.001 A 
HETATM   33  C   UNL     1      42.989 -18.318   2.212  1.00  0.00     0.012 A 
BRANCH  29  34
HETATM   34  O   UNL     1      44.275 -17.447   5.505  1.00  0.00    -0.351 OA
BRANCH  34  35
HETATM   35  C   UNL     1      43.583 -17.747   6.723  1.00  0.00     0.171 C 
HETATM   36  C   UNL     1      43.584 -16.493   7.580  1.00  0.00     0.034 C 
ENDBRANCH  34  35
ENDBRANCH  29  34
ENDBRANCH  27  28
ENDBRANCH   1  27
TORSDOF 8
ENDMDL
MODEL 3
REMARK VINA RESULT:      -9.3      1.667      2.127
REMARK  8 active torsions:
REMARK  status: ('A' for Active; 'I' for Inactive)
REMARK    1  A    between atoms: C_2  and  O_3 
REMARK    2  A    between atoms: O_3  and  C_4 
REMARK    3  A    between atoms: C_5  and  C_6 
REMARK    4  A    between atoms: C_6  and  N_7 
REMARK    5  A    between atoms: C_9  and  C_10 
REMARK    6  A    between atoms: C_10  and  C_11 
REMARK       I    between atoms: C_11  and  N_12 
REMARK    7  A    between atoms: N_12  and  C_13 
REMARK    8  A    between atoms: C_13  and  C_14 
ROOT
HETATM    1  N   UNL     1      42.339 -14.122   4.822  1.00  0.00    -0.052 N 
HETATM    2  H   UNL     1      42.853 -14.346   5.681  1.00  0.00     0.281 HD
HETATM    3  C   UNL     1      42.121 -12.572   4.805  1.00  0.00     0.288 C 
HETATM    4  C   UNL     1      41.281 -12.114   6.040  1.00  0.00     0.249 C 
HETATM    5  O   UNL     1      41.442 -11.043   6.618  1.00  0.00    -0.271 OA
HETATM    6  N   UNL     1      40.281 -12.957   6.454  1.00  0.00    -0.358 N 
HETATM    7  C   UNL     1      40.269 -14.383   6.195  1.00  0.00     0.150 C 
HETATM    8  C   UNL     1      40.956 -14.781   4.884  1.00  0.00     0.256 C 
HETATM    9  H   UNL     1      39.770 -12.613   7.265  1.00  0.00     0.162 HD
ENDROOT
BRANCH   3  10
HETATM   10  C   UNL     1      43.447 -11.799   4.790  1.00  0.00     0.145 C 
BRANCH  10  11
HETATM   11  C   UNL     1      44.126 -12.000   6.126  1.00  0.00     0.220 C 
HETATM   12  N   UNL     1      44.394 -10.839   6.801  1.00  0.00    -0.355 N 
HETATM   13  H   UNL     1      44.230  -9.940   6.367  1.00  0.00     0.162 HD
HETATM   14  O   UNL     1      44.378 -13.122   6.550  1.00  0.00    -0.274 OA
BRANCH  12  15
HETATM   15  C   UNL     1      45.281 -10.823   7.942  1.00  0.00     0.179 C 
BRANCH  15  16
HETATM   16  C   UNL     1      44.517 -10.209   9.059  1.00  0.00     0.028 A 
HETATM   17  N   UNL     1      43.142 -10.241   9.106  1.00  0.00    -0.357 N 
HETATM   18  H   UNL     1      42.543 -10.685   8.418  1.00  0.00     0.166 HD
HETATM   19  C   UNL     1      42.685  -9.640  10.258  1.00  0.00     0.043 A 
HETATM   20  C   UNL     1      43.805  -9.187  10.956  1.00  0.00    -0.005 A 
HETATM   21  C   UNL     1      41.377  -9.469  10.727  1.00  0.00     0.033 A 
HETATM   22  C   UNL     1      44.949  -9.542  10.190  1.00  0.00     0.040 A 
HETATM   23  C   UNL     1      43.619  -8.524  12.182  1.00  0.00     0.056 A 
HETATM   24  C   UNL     1      42.318  -8.350  12.656  1.00  0.00     0.117 A 
HETATM   25  C   UNL     1      41.214  -8.811  11.948  1.00  0.00     0.044 A 
HETATM   26  F   UNL     1      42.130  -7.725  13.826  1.00  0.00    -0.206 F 
ENDBRANCH  15  16
ENDBRANCH  12  15
ENDBRANCH  10  11
ENDBRANCH   3  10
BRANCH   1  27
HETATM   27  C   UNL     1      43.147 -14.634   3.641  1.00  0.00     0.277 C 
BRANCH  27  28
HETATM   28  C   UNL     1      43.324 -16.132   3.539  1.00  0.00     0.001 A 
HETATM   29  C   UNL     1      43.853 -16.832   4.643  1.00  0.00     0.076 A 
HETATM   30  C   UNL     1      44.036 -18.216   4.575  1.00  0.00     0.037 A 
HETATM   31  C   UNL     1      43.648 -18.919   3.436  1.00  0.00     0.003 A 
HETATM   32  C   UNL     1      43.063 -18.250   2.367  1.00  0.00     0.001 A 
HETATM   33  C   UNL     1      42.889 -16.866   2.420  1.00  0.00     0.012 A 
BRANCH  29  34
HETATM   34  O   UNL     1      44.162 -16.068   5.737  1.00  0.00    -0.351 OA
BRANCH  34  35
HETATM   35  C   UNL     1      44.112 -16.717   7.013  1.00  0.00     0.171 C 
HETATM   36  C   UNL     1      43.092 -15.984   7.867  1.00  0.00     0.034 C 
ENDBRANCH  34  35
ENDBRANCH  29  34
ENDBRANCH  27  28
ENDBRANCH   1  27
TORSDOF 8
ENDMDL
MODEL 4
REMARK VINA RESULT:      -9.2      4.381      7.691
REMARK  8 active torsions:
REMARK  status: ('A' for Active; 'I' for Inactive)
REMARK    1  A    between atoms: C_2  and  O_3 
REMARK    2  A    between atoms: O_3  and  C_4 
REMARK    3  A    between atoms: C_5  and  C_6 
REMARK    4  A    between atoms: C_6  and  N_7 
REMARK    5  A    between atoms: C_9  and  C_10 
REMARK    6  A    between atoms: C_10  and  C_11 
REMARK       I    between atoms: C_11  and  N_12 
REMARK    7  A    between atoms: N_12  and  C_13 
REMARK    8  A    between atoms: C_13  and  C_14 
ROOT
HETATM    1  N   UNL     1      41.653 -12.131   3.927  1.00  0.00    -0.052 N 
HETATM    2  H   UNL     1      40.824 -11.846   3.393  1.00  0.00     0.281 HD
HETATM    3  C   UNL     1      41.187 -12.406   5.396  1.00  0.00     0.288 C 
HETATM    4  C   UNL     1      40.582 -11.117   6.038  1.00  0.00     0.249 C 
HETATM    5  O   UNL     1      39.653 -11.124   6.842  1.00  0.00    -0.271 OA
HETATM    6  N   UNL     1      41.171  -9.924   5.702  1.00  0.00    -0.358 N 
HETATM    7  C   UNL     1      41.920  -9.710   4.480  1.00  0.00     0.150 C 
HETATM    8  C   UNL     1      42.643 -10.960   3.969  1.00  0.00     0.256 C 
HETATM    9  H   UNL     1      40.734  -9.117   6.145  1.00  0.00     0.162 HD
ENDROOT
BRANCH   3  10
HETATM   10  C   UNL     1      40.151 -13.535   5.473  1.00  0.00     0.145 C 
BRANCH  10  11
HETATM   11  C   UNL     1      40.628 -14.543   6.496  1.00  0.00     0.220 C 
HETATM   12  N   UNL     1      41.947 -14.416   6.837  1.00  0.00    -0.355 N 
HETATM   13  H   UNL     1      42.545 -13.760   6.353  1.00  0.00     0.162 HD
HETATM   14  O   UNL     1      39.863 -15.374   6.975  1.00  0.00    -0.274 OA
BRANCH  12  15
HETATM   15  C   UNL     1      42.635 -15.455   7.572  1.00  0.00     0.179 C 
BRANCH  15  16
HETATM   16  C   UNL     1      43.005 -16.497   6.579  1.00  0.00     0.028 A 
HETATM   17  N   UNL     1      43.220 -17.807   6.943  1.00  0.00    -0.357 N 
HETATM   18  H   UNL     1      43.133 -18.175   7.884  1.00  0.00     0.166 HD
HETATM   19  C   UNL     1      43.509 -18.573   5.835  1.00  0.00     0.043 A 
HETATM   20  C   UNL     1      43.503 -17.718   4.732  1.00  0.00    -0.005 A 
HETATM   21  C   UNL     1      43.771 -19.945   5.732  1.00  0.00     0.033 A 
HETATM   22  C   UNL     1      43.193 -16.416   5.213  1.00  0.00     0.040 A 
HETATM   23  C   UNL     1      43.776 -18.250   3.460  1.00  0.00     0.056 A 
HETATM   24  C   UNL     1      44.037 -19.616   3.349  1.00  0.00     0.117 A 
HETATM   25  C   UNL     1      44.036 -20.453   4.458  1.00  0.00     0.044 A 
HETATM   26  F   UNL     1      44.292 -20.134   2.140  1.00  0.00    -0.206 F 
ENDBRANCH  15  16
ENDBRANCH  12  15
ENDBRANCH  10  11
ENDBRANCH   3  10
BRANCH   1  27
HETATM   27  C   UNL     1      42.258 -13.347   3.244  1.00  0.00     0.277 C 
BRANCH  27  28
HETATM   28  C   UNL     1      41.386 -14.065   2.240  1.00  0.00     0.001 A 
HETATM   29  C   UNL     1      41.103 -13.436   1.010  1.00  0.00     0.076 A 
HETATM   30  C   UNL     1      40.293 -14.072   0.066  1.00  0.00     0.037 A 
HETATM   31  C   UNL     1      39.803 -15.353   0.312  1.00  0.00     0.003 A 
HETATM   32  C   UNL     1      40.130 -16.012   1.492  1.00  0.00     0.001 A 
HETATM   33  C   UNL     1      40.927 -15.379   2.446  1.00  0.00     0.012 A 
BRANCH  29  34
HETATM   34  O   UNL     1      41.665 -12.198   0.834  1.00  0.00    -0.351 OA
BRANCH  34  35
HETATM   35  C   UNL     1      40.764 -11.104   0.630  1.00  0.00     0.171 C 
HETATM   36  C   UNL     1      41.565  -9.940   0.072  1.00  0.00     0.034 C 
ENDBRANCH  34  35
ENDBRANCH  29  34
ENDBRANCH  27  28
ENDBRANCH   1  27
TORSDOF 8
ENDMDL
MODEL 5
REMARK VINA RESULT:      -9.2      0.783      2.113
REMARK  8 active torsions:
REMARK  status: ('A' for Active; 'I' for Inactive)
REMARK    1  A    between atoms: C_2  and  O_3 
REMARK    2  A    between atoms: O_3  and  C_4 
REMARK    3  A    between atoms: C_5  and  C_6 
REMARK    4  A    between atoms: C_6  and  N_7 
REMARK    5  A    between atoms: C_9  and  C_10 
REMARK    6  A    between atoms: C_10  and  C_11 
REMARK       I    between atoms: C_11  and  N_12 
REMARK    7  A    between atoms: N_12  and  C_13 
REMARK    8  A    between atoms: C_13  and  C_14 
ROOT
HETATM    1  N   UNL     1      41.768 -15.435   3.301  1.00  0.00    -0.052 N 
HETATM    2  H   UNL     1      41.127 -15.920   3.938  1.00  0.00     0.281 HD
HETATM    3  C   UNL     1      41.526 -13.899   3.481  1.00  0.00     0.288 C 
HETATM    4  C   UNL     1      40.055 -13.520   3.116  1.00  0.00     0.249 C 
HETATM    5  O   UNL     1      39.417 -12.635   3.679  1.00  0.00    -0.271 OA
HETATM    6  N   UNL     1      39.483 -14.201   2.071  1.00  0.00    -0.358 N 
HETATM    7  C   UNL     1      39.906 -15.518   1.638  1.00  0.00     0.150 C 
HETATM    8  C   UNL     1      41.398 -15.793   1.856  1.00  0.00     0.256 C 
HETATM    9  H   UNL     1      38.524 -13.918   1.880  1.00  0.00     0.162 HD
ENDROOT
BRANCH   3  10
HETATM   10  C   UNL     1      41.821 -13.429   4.912  1.00  0.00     0.145 C 
BRANCH  10  11
HETATM   11  C   UNL     1      43.131 -12.671   4.899  1.00  0.00     0.220 C 
HETATM   12  N   UNL     1      43.772 -12.638   6.108  1.00  0.00    -0.355 N 
HETATM   13  H   UNL     1      43.331 -13.011   6.938  1.00  0.00     0.162 HD
HETATM   14  O   UNL     1      43.562 -12.163   3.870  1.00  0.00    -0.274 OA
BRANCH  12  15
HETATM   15  C   UNL     1      44.874 -11.732   6.347  1.00  0.00     0.179 C 
BRANCH  15  16
HETATM   16  C   UNL     1      44.539 -10.981   7.585  1.00  0.00     0.028 A 
HETATM   17  N   UNL     1      43.260 -10.547   7.850  1.00  0.00    -0.357 N 
HETATM   18  H   UNL     1      42.453 -10.708   7.258  1.00  0.00     0.166 HD
HETATM   19  C   UNL     1      43.211  -9.916   9.073  1.00  0.00     0.043 A 
HETATM   20  C   UNL     1      44.506  -9.924   9.592  1.00  0.00    -0.005 A 
HETATM   21  C   UNL     1      42.125  -9.345   9.749  1.00  0.00     0.033 A 
HETATM   22  C   UNL     1      45.333 -10.588   8.645  1.00  0.00     0.040 A 
HETATM   23  C   UNL     1      44.739  -9.331  10.846  1.00  0.00     0.056 A 
HETATM   24  C   UNL     1      43.662  -8.761  11.526  1.00  0.00     0.117 A 
HETATM   25  C   UNL     1      42.378  -8.764  10.995  1.00  0.00     0.044 A 
HETATM   26  F   UNL     1      43.872  -8.199  12.724  1.00  0.00    -0.206 F 
ENDBRANCH  15  16
ENDBRANCH  12  15
ENDBRANCH  10  11
ENDBRANCH   3  10
BRANCH   1  27
HETATM   27  C   UNL     1      43.185 -15.870   3.636  1.00  0.00     0.277 C 
BRANCH  27  28
HETATM   28  C   UNL     1      43.333 -16.959   4.674  1.00  0.00     0.001 A 
HETATM   29  C   UNL     1      43.747 -18.242   4.260  1.00  0.00     0.076 A 
HETATM   30  C   UNL     1      43.884 -19.271   5.197  1.00  0.00     0.037 A 
HETATM   31  C   UNL     1      43.665 -19.021   6.550  1.00  0.00     0.003 A 
HETATM   32  C   UNL     1      43.323 -17.744   6.978  1.00  0.00     0.001 A 
HETATM   33  C   UNL     1      43.169 -16.714   6.050  1.00  0.00     0.012 A 
BRANCH  29  34
HETATM   34  O   UNL     1      43.986 -18.385   2.919  1.00  0.00    -0.351 OA
BRANCH  34  35
HETATM   35  C   UNL     1      43.037 -19.154   2.172  1.00  0.00     0.171 C 
HETATM   36  C   UNL     1      43.698 -20.467   1.792  1.00  0.00     0.034 C 
ENDBRANCH  34  35
ENDBRANCH  29  34
ENDBRANCH  27  28
ENDBRANCH   1  27
TORSDOF 8
ENDMDL
MODEL 6
REMARK VINA RESULT:      -8.9      3.805      8.004
REMARK  8 active torsions:
REMARK  status: ('A' for Active; 'I' for Inactive)
REMARK    1  A    between atoms: C_2  and  O_3 
REMARK    2  A    between atoms: O_3  and  C_4 
REMARK    3  A    between atoms: C_5  and  C_6 
REMARK    4  A    between atoms: C_6  and  N_7 
REMARK    5  A    between atoms: C_9  and  C_10 
REMARK    6  A    between atoms: C_10  and  C_11 
REMARK       I    between atoms: C_11  and  N_12 
REMARK    7  A    between atoms: N_12  and  C_13 
REMARK    8  A    between atoms: C_13  and  C_14 
ROOT
HETATM    1  N   UNL     1      42.541 -11.307   5.020  1.00  0.00    -0.052 N 
HETATM    2  H   UNL     1      41.846 -11.987   5.345  1.00  0.00     0.281 HD
HETATM    3  C   UNL     1      43.828 -11.509   5.887  1.00  0.00     0.288 C 
HETATM    4  C   UNL     1      43.527 -11.253   7.398  1.00  0.00     0.249 C 
HETATM    5  O   UNL     1      44.068 -11.864   8.317  1.00  0.00    -0.271 OA
HETATM    6  N   UNL     1      42.637 -10.250   7.690  1.00  0.00    -0.358 N 
HETATM    7  C   UNL     1      41.619  -9.783   6.771  1.00  0.00     0.150 C 
HETATM    8  C   UNL     1      42.018  -9.892   5.295  1.00  0.00     0.256 C 
HETATM    9  H   UNL     1      42.475 -10.130   8.688  1.00  0.00     0.162 HD
ENDROOT
BRANCH   3  10
HETATM   10  C   UNL     1      44.420 -12.916   5.728  1.00  0.00     0.145 C 
BRANCH  10  11
HETATM   11  C   UNL     1      43.452 -13.907   6.337  1.00  0.00     0.220 C 
HETATM   12  N   UNL     1      44.052 -14.978   6.944  1.00  0.00    -0.355 N 
HETATM   13  H   UNL     1      45.052 -15.113   6.882  1.00  0.00     0.162 HD
HETATM   14  O   UNL     1      42.241 -13.722   6.294  1.00  0.00    -0.274 OA
BRANCH  12  15
HETATM   15  C   UNL     1      43.291 -16.148   7.322  1.00  0.00     0.179 C 
BRANCH  15  16
HETATM   16  C   UNL     1      43.448 -17.127   6.216  1.00  0.00     0.028 A 
HETATM   17  N   UNL     1      43.666 -18.465   6.453  1.00  0.00    -0.357 N 
HETATM   18  H   UNL     1      43.719 -18.896   7.369  1.00  0.00     0.166 HD
HETATM   19  C   UNL     1      43.735 -19.159   5.265  1.00  0.00     0.043 A 
HETATM   20  C   UNL     1      43.584 -18.228   4.236  1.00  0.00    -0.005 A 
HETATM   21  C   UNL     1      43.919 -20.528   5.030  1.00  0.00     0.033 A 
HETATM   22  C   UNL     1      43.412 -16.955   4.846  1.00  0.00     0.040 A 
HETATM   23  C   UNL     1      43.621 -18.676   2.904  1.00  0.00     0.056 A 
HETATM   24  C   UNL     1      43.803 -20.038   2.662  1.00  0.00     0.117 A 
HETATM   25  C   UNL     1      43.949 -20.952   3.699  1.00  0.00     0.044 A 
HETATM   26  F   UNL     1      43.833 -20.476   1.397  1.00  0.00    -0.206 F 
ENDBRANCH  15  16
ENDBRANCH  12  15
ENDBRANCH  10  11
ENDBRANCH   3  10
BRANCH   1  27
HETATM   27  C   UNL     1      42.767 -11.536   3.535  1.00  0.00     0.277 C 
BRANCH  27  28
HETATM   28  C   UNL     1      42.392 -12.897   2.993  1.00  0.00     0.001 A 
HETATM   29  C   UNL     1      41.048 -13.317   3.081  1.00  0.00     0.076 A 
HETATM   30  C   UNL     1      40.672 -14.573   2.597  1.00  0.00     0.037 A 
HETATM   31  C   UNL     1      41.612 -15.395   1.977  1.00  0.00     0.003 A 
HETATM   32  C   UNL     1      42.925 -14.965   1.825  1.00  0.00     0.001 A 
HETATM   33  C   UNL     1      43.312 -13.718   2.317  1.00  0.00     0.012 A 
BRANCH  29  34
HETATM   34  O   UNL     1      40.184 -12.426   3.661  1.00  0.00    -0.351 OA
BRANCH  34  35
HETATM   35  C   UNL     1      39.087 -11.974   2.859  1.00  0.00     0.171 C 
HETATM   36  C   UNL     1      38.767 -10.548   3.269  1.00  0.00     0.034 C 
ENDBRANCH  34  35
ENDBRANCH  29  34
ENDBRANCH  27  28
ENDBRANCH   1  27
TORSDOF 8
ENDMDL
MODEL 7
REMARK VINA RESULT:      -8.6      3.793      8.929
REMARK  8 active torsions:
REMARK  status: ('A' for Active; 'I' for Inactive)
REMARK    1  A    between atoms: C_2  and  O_3 
REMARK    2  A    between atoms: O_3  and  C_4 
REMARK    3  A    between atoms: C_5  and  C_6 
REMARK    4  A    between atoms: C_6  and  N_7 
REMARK    5  A    between atoms: C_9  and  C_10 
REMARK    6  A    between atoms: C_10  and  C_11 
REMARK       I    between atoms: C_11  and  N_12 
REMARK    7  A    between atoms: N_12  and  C_13 
REMARK    8  A    between atoms: C_13  and  C_14 
ROOT
HETATM    1  N   UNL     1      42.112 -10.469   5.678  1.00  0.00    -0.052 N 
HETATM    2  H   UNL     1      42.886 -10.045   5.155  1.00  0.00     0.281 HD
HETATM    3  C   UNL     1      41.677 -11.756   4.899  1.00  0.00     0.288 C 
HETATM    4  C   UNL     1      41.190 -11.397   3.459  1.00  0.00     0.249 C 
HETATM    5  O   UNL     1      41.362 -12.118   2.479  1.00  0.00    -0.271 OA
HETATM    6  N   UNL     1      40.493 -10.224   3.316  1.00  0.00    -0.358 N 
HETATM    7  C   UNL     1      40.610  -9.101   4.225  1.00  0.00     0.150 C 
HETATM    8  C   UNL     1      40.921  -9.502   5.670  1.00  0.00     0.256 C 
HETATM    9  H   UNL     1      40.205 -10.038   2.357  1.00  0.00     0.162 HD
ENDROOT
BRANCH   3  10
HETATM   10  C   UNL     1      42.811 -12.785   4.800  1.00  0.00     0.145 C 
BRANCH  10  11
HETATM   11  C   UNL     1      42.533 -13.891   5.793  1.00  0.00     0.220 C 
HETATM   12  N   UNL     1      43.639 -14.613   6.155  1.00  0.00    -0.355 N 
HETATM   13  H   UNL     1      44.529 -14.457   5.701  1.00  0.00     0.162 HD
HETATM   14  O   UNL     1      41.405 -14.082   6.234  1.00  0.00    -0.274 OA
BRANCH  12  15
HETATM   15  C   UNL     1      43.516 -15.868   6.862  1.00  0.00     0.179 C 
BRANCH  15  16
HETATM   16  C   UNL     1      43.607 -16.939   5.837  1.00  0.00     0.028 A 
HETATM   17  N   UNL     1      43.821 -18.256   6.175  1.00  0.00    -0.357 N 
HETATM   18  H   UNL     1      43.915 -18.610   7.120  1.00  0.00     0.166 HD
HETATM   19  C   UNL     1      43.824 -19.048   5.048  1.00  0.00     0.043 A 
HETATM   20  C   UNL     1      43.632 -18.204   3.953  1.00  0.00    -0.005 A 
HETATM   21  C   UNL     1      43.981 -20.434   4.921  1.00  0.00     0.033 A 
HETATM   22  C   UNL     1      43.505 -16.882   4.460  1.00  0.00     0.040 A 
HETATM   23  C   UNL     1      43.598 -18.763   2.663  1.00  0.00     0.056 A 
HETATM   24  C   UNL     1      43.752 -20.143   2.529  1.00  0.00     0.117 A 
HETATM   25  C   UNL     1      43.940 -20.969   3.631  1.00  0.00     0.044 A 
HETATM   26  F   UNL     1      43.715 -20.686   1.305  1.00  0.00    -0.206 F 
ENDBRANCH  15  16
ENDBRANCH  12  15
ENDBRANCH  10  11
ENDBRANCH   3  10
BRANCH   1  27
HETATM   27  C   UNL     1      42.592 -10.748   7.092  1.00  0.00     0.277 C 
BRANCH  27  28
HETATM   28  C   UNL     1      43.997 -10.304   7.431  1.00  0.00     0.001 A 
HETATM   29  C   UNL     1      44.175  -9.123   8.180  1.00  0.00     0.076 A 
HETATM   30  C   UNL     1      45.463  -8.683   8.501  1.00  0.00     0.037 A 
HETATM   31  C   UNL     1      46.575  -9.436   8.129  1.00  0.00     0.003 A 
HETATM   32  C   UNL     1      46.409 -10.638   7.449  1.00  0.00     0.001 A 
HETATM   33  C   UNL     1      45.128 -11.078   7.112  1.00  0.00     0.012 A 
BRANCH  29  34
HETATM   34  O   UNL     1      43.026  -8.472   8.544  1.00  0.00    -0.351 OA
BRANCH  34  35
HETATM   35  C   UNL     1      42.595  -8.633   9.901  1.00  0.00     0.171 C 
HETATM   36  C   UNL     1      42.680  -7.277  10.579  1.00  0.00     0.034 C 
ENDBRANCH  34  35
ENDBRANCH  29  34
ENDBRANCH  27  28
ENDBRANCH   1  27
TORSDOF 8
ENDMDL
MODEL 8
REMARK VINA RESULT:      -8.5      1.892      3.086
REMARK  8 active torsions:
REMARK  status: ('A' for Active; 'I' for Inactive)
REMARK    1  A    between atoms: C_2  and  O_3 
REMARK    2  A    between atoms: O_3  and  C_4 
REMARK    3  A    between atoms: C_5  and  C_6 
REMARK    4  A    between atoms: C_6  and  N_7 
REMARK    5  A    between atoms: C_9  and  C_10 
REMARK    6  A    between atoms: C_10  and  C_11 
REMARK       I    between atoms: C_11  and  N_12 
REMARK    7  A    between atoms: N_12  and  C_13 
REMARK    8  A    between atoms: C_13  and  C_14 
ROOT
HETATM    1  N   UNL     1      41.457 -13.693   3.735  1.00  0.00    -0.052 N 
HETATM    2  H   UNL     1      40.796 -14.468   3.615  1.00  0.00     0.281 HD
HETATM    3  C   UNL     1      41.282 -13.158   5.196  1.00  0.00     0.288 C 
HETATM    4  C   UNL     1      39.829 -12.634   5.427  1.00  0.00     0.249 C 
HETATM    5  O   UNL     1      39.231 -12.725   6.495  1.00  0.00    -0.271 OA
HETATM    6  N   UNL     1      39.227 -11.996   4.372  1.00  0.00    -0.358 N 
HETATM    7  C   UNL     1      39.592 -12.211   2.985  1.00  0.00     0.150 C 
HETATM    8  C   UNL     1      41.070 -12.558   2.779  1.00  0.00     0.256 C 
HETATM    9  H   UNL     1      38.281 -11.680   4.576  1.00  0.00     0.162 HD
ENDROOT
BRANCH   3  10
HETATM   10  C   UNL     1      41.599 -14.229   6.248  1.00  0.00     0.145 C 
BRANCH  10  11
HETATM   11  C   UNL     1      42.764 -13.741   7.082  1.00  0.00     0.220 C 
HETATM   12  N   UNL     1      43.071 -12.420   6.901  1.00  0.00    -0.355 N 
HETATM   13  H   UNL     1      42.604 -11.874   6.188  1.00  0.00     0.162 HD
HETATM   14  O   UNL     1      43.344 -14.488   7.862  1.00  0.00    -0.274 OA
BRANCH  12  15
HETATM   15  C   UNL     1      44.313 -11.864   7.392  1.00  0.00     0.179 C 
BRANCH  15  16
HETATM   16  C   UNL     1      43.943 -10.789   8.348  1.00  0.00     0.028 A 
HETATM   17  N   UNL     1      43.843 -11.020   9.701  1.00  0.00    -0.357 N 
HETATM   18  H   UNL     1      44.023 -11.907  10.158  1.00  0.00     0.166 HD
HETATM   19  C   UNL     1      43.527  -9.856  10.366  1.00  0.00     0.043 A 
HETATM   20  C   UNL     1      43.396  -8.856   9.402  1.00  0.00    -0.005 A 
HETATM   21  C   UNL     1      43.352  -9.620  11.735  1.00  0.00     0.033 A 
HETATM   22  C   UNL     1      43.651  -9.455   8.138  1.00  0.00     0.040 A 
HETATM   23  C   UNL     1      43.067  -7.553   9.816  1.00  0.00     0.056 A 
HETATM   24  C   UNL     1      42.892  -7.309  11.179  1.00  0.00     0.117 A 
HETATM   25  C   UNL     1      43.030  -8.317  12.126  1.00  0.00     0.044 A 
HETATM   26  F   UNL     1      42.586  -6.070  11.584  1.00  0.00    -0.206 F 
ENDBRANCH  15  16
ENDBRANCH  12  15
ENDBRANCH  10  11
ENDBRANCH   3  10
BRANCH   1  27
HETATM   27  C   UNL     1      42.854 -14.215   3.443  1.00  0.00     0.277 C 
BRANCH  27  28
HETATM   28  C   UNL     1      43.016 -15.716   3.367  1.00  0.00     0.001 A 
HETATM   29  C   UNL     1      42.466 -16.405   2.265  1.00  0.00     0.076 A 
HETATM   30  C   UNL     1      42.592 -17.794   2.173  1.00  0.00     0.037 A 
HETATM   31  C   UNL     1      43.307 -18.499   3.139  1.00  0.00     0.003 A 
HETATM   32  C   UNL     1      43.911 -17.823   4.193  1.00  0.00     0.001 A 
HETATM   33  C   UNL     1      43.778 -16.439   4.302  1.00  0.00     0.012 A 
BRANCH  29  34
HETATM   34  O   UNL     1      41.822 -15.627   1.340  1.00  0.00    -0.351 OA
BRANCH  34  35
HETATM   35  C   UNL     1      40.407 -15.807   1.217  1.00  0.00     0.171 C 
HETATM   36  C   UNL     1      39.916 -14.892   0.109  1.00  0.00     0.034 C 
ENDBRANCH  34  35
ENDBRANCH  29  34
ENDBRANCH  27  28
ENDBRANCH   1  27
TORSDOF 8
ENDMDL
MODEL 9
REMARK VINA RESULT:      -8.4      2.224      3.748
REMARK  8 active torsions:
REMARK  status: ('A' for Active; 'I' for Inactive)
REMARK    1  A    between atoms: C_2  and  O_3 
REMARK    2  A    between atoms: O_3  and  C_4 
REMARK    3  A    between atoms: C_5  and  C_6 
REMARK    4  A    between atoms: C_6  and  N_7 
REMARK    5  A    between atoms: C_9  and  C_10 
REMARK    6  A    between atoms: C_10  and  C_11 
REMARK       I    between atoms: C_11  and  N_12 
REMARK    7  A    between atoms: N_12  and  C_13 
REMARK    8  A    between atoms: C_13  and  C_14 
ROOT
HETATM    1  N   UNL     1      42.053 -12.872   5.638  1.00  0.00    -0.052 N 
HETATM    2  H   UNL     1      42.263 -13.150   6.603  1.00  0.00     0.281 HD
HETATM    3  C   UNL     1      42.433 -11.360   5.499  1.00  0.00     0.288 C 
HETATM    4  C   UNL     1      41.593 -10.482   6.481  1.00  0.00     0.249 C 
HETATM    5  O   UNL     1      42.020  -9.471   7.031  1.00  0.00    -0.271 OA
HETATM    6  N   UNL     1      40.290 -10.860   6.689  1.00  0.00    -0.358 N 
HETATM    7  C   UNL     1      39.803 -12.213   6.500  1.00  0.00     0.150 C 
HETATM    8  C   UNL     1      40.542 -12.991   5.406  1.00  0.00     0.256 C 
HETATM    9  H   UNL     1      39.792 -10.257   7.340  1.00  0.00     0.162 HD
ENDROOT
BRANCH   3  10
HETATM   10  C   UNL     1      43.924 -11.110   5.759  1.00  0.00     0.145 C 
BRANCH  10  11
HETATM   11  C   UNL     1      44.193 -11.341   7.229  1.00  0.00     0.220 C 
HETATM   12  N   UNL     1      44.689 -10.248   7.889  1.00  0.00    -0.355 N 
HETATM   13  H   UNL     1      44.936  -9.408   7.383  1.00  0.00     0.162 HD
HETATM   14  O   UNL     1      43.953 -12.421   7.758  1.00  0.00    -0.274 OA
BRANCH  12  15
HETATM   15  C   UNL     1      45.263 -10.367   9.210  1.00  0.00     0.179 C 
BRANCH  15  16
HETATM   16  C   UNL     1      44.228  -9.889  10.163  1.00  0.00     0.028 A 
HETATM   17  N   UNL     1      42.894 -10.187   9.999  1.00  0.00    -0.357 N 
HETATM   18  H   UNL     1      42.508 -10.753   9.252  1.00  0.00     0.166 HD
HETATM   19  C   UNL     1      42.153  -9.661  11.035  1.00  0.00     0.043 A 
HETATM   20  C   UNL     1      43.040  -8.984  11.872  1.00  0.00    -0.005 A 
HETATM   21  C   UNL     1      40.777  -9.737  11.287  1.00  0.00     0.033 A 
HETATM   22  C   UNL     1      44.338  -9.127  11.310  1.00  0.00     0.040 A 
HETATM   23  C   UNL     1      42.537  -8.343  13.018  1.00  0.00     0.056 A 
HETATM   24  C   UNL     1      41.168  -8.415  13.277  1.00  0.00     0.117 A 
HETATM   25  C   UNL     1      40.299  -9.096  12.433  1.00  0.00     0.044 A 
HETATM   26  F   UNL     1      40.680  -7.813  14.369  1.00  0.00    -0.206 F 
ENDBRANCH  15  16
ENDBRANCH  12  15
ENDBRANCH  10  11
ENDBRANCH   3  10
BRANCH   1  27
HETATM   27  C   UNL     1      42.833 -13.782   4.704  1.00  0.00     0.277 C 
BRANCH  27  28
HETATM   28  C   UNL     1      43.177 -15.158   5.227  1.00  0.00     0.001 A 
HETATM   29  C   UNL     1      42.667 -16.289   4.557  1.00  0.00     0.076 A 
HETATM   30  C   UNL     1      42.961 -17.573   5.023  1.00  0.00     0.037 A 
HETATM   31  C   UNL     1      43.803 -17.745   6.120  1.00  0.00     0.003 A 
HETATM   32  C   UNL     1      44.366 -16.640   6.748  1.00  0.00     0.001 A 
HETATM   33  C   UNL     1      44.067 -15.354   6.299  1.00  0.00     0.012 A 
BRANCH  29  34
HETATM   34  O   UNL     1      41.888 -16.028   3.460  1.00  0.00    -0.351 OA
BRANCH  34  35
HETATM   35  C   UNL     1      42.207 -16.737   2.258  1.00  0.00     0.171 C 
HETATM   36  C   UNL     1      43.350 -16.006   1.576  1.00  0.00     0.034 C 
ENDBRANCH  34  35
ENDBRANCH  29  34
ENDBRANCH  27  28
ENDBRANCH   1  27
TORSDOF 8
ENDMDL
MODEL 10
REMARK VINA RESULT:      -8.4      3.401      9.929
REMARK  8 active torsions:
REMARK  status: ('A' for Active; 'I' for Inactive)
REMARK    1  A    between atoms: C_2  and  O_3 
REMARK    2  A    between atoms: O_3  and  C_4 
REMARK    3  A    between atoms: C_5  and  C_6 
REMARK    4  A    between atoms: C_6  and  N_7 
REMARK    5  A    between atoms: C_9  and  C_10 
REMARK    6  A    between atoms: C_10  and  C_11 
REMARK       I    between atoms: C_11  and  N_12 
REMARK    7  A    between atoms: N_12  and  C_13 
REMARK    8  A    between atoms: C_13  and  C_14 
ROOT
HETATM    1  N   UNL     1      43.734  -9.270   8.344  1.00  0.00    -0.052 N 
HETATM    2  H   UNL     1      43.625  -9.866   9.173  1.00  0.00     0.281 HD
HETATM    3  C   UNL     1      43.774 -10.216   7.097  1.00  0.00     0.288 C 
HETATM    4  C   UNL     1      44.982 -11.202   7.184  1.00  0.00     0.249 C 
HETATM    5  O   UNL     1      44.956 -12.355   6.762  1.00  0.00    -0.271 OA
HETATM    6  N   UNL     1      46.143 -10.712   7.727  1.00  0.00    -0.358 N 
HETATM    7  C   UNL     1      46.192  -9.593   8.648  1.00  0.00     0.150 C 
HETATM    8  C   UNL     1      45.089  -8.555   8.422  1.00  0.00     0.256 C 
HETATM    9  H   UNL     1      46.895 -11.398   7.764  1.00  0.00     0.162 HD
ENDROOT
BRANCH   3  10
HETATM   10  C   UNL     1      42.479 -11.026   6.942  1.00  0.00     0.145 C 
BRANCH  10  11
HETATM   11  C   UNL     1      42.302 -11.356   5.476  1.00  0.00     0.220 C 
HETATM   12  N   UNL     1      42.233 -12.697   5.206  1.00  0.00    -0.355 N 
HETATM   13  H   UNL     1      42.392 -13.379   5.936  1.00  0.00     0.162 HD
HETATM   14  O   UNL     1      42.208 -10.472   4.632  1.00  0.00    -0.274 OA
BRANCH  12  15
HETATM   15  C   UNL     1      42.350 -13.196   3.855  1.00  0.00     0.179 C 
BRANCH  15  16
HETATM   16  C   UNL     1      42.769 -14.617   3.967  1.00  0.00     0.028 A 
HETATM   17  N   UNL     1      42.771 -15.464   2.882  1.00  0.00    -0.357 N 
HETATM   18  H   UNL     1      42.514 -15.204   1.936  1.00  0.00     0.166 HD
HETATM   19  C   UNL     1      43.237 -16.709   3.244  1.00  0.00     0.043 A 
HETATM   20  C   UNL     1      43.516 -16.661   4.610  1.00  0.00    -0.005 A 
HETATM   21  C   UNL     1      43.430 -17.859   2.468  1.00  0.00     0.033 A 
HETATM   22  C   UNL     1      43.210 -15.346   5.055  1.00  0.00     0.040 A 
HETATM   23  C   UNL     1      44.008 -17.816   5.243  1.00  0.00     0.056 A 
HETATM   24  C   UNL     1      44.204 -18.966   4.477  1.00  0.00     0.117 A 
HETATM   25  C   UNL     1      43.923 -18.994   3.116  1.00  0.00     0.044 A 
HETATM   26  F   UNL     1      44.678 -20.070   5.070  1.00  0.00    -0.206 F 
ENDBRANCH  15  16
ENDBRANCH  12  15
ENDBRANCH  10  11
ENDBRANCH   3  10
BRANCH   1  27
HETATM   27  C   UNL     1      42.582  -8.280   8.319  1.00  0.00     0.277 C 
BRANCH  27  28
HETATM   28  C   UNL     1      42.471  -7.338   9.496  1.00  0.00     0.001 A 
HETATM   29  C   UNL     1      42.261  -7.877  10.782  1.00  0.00     0.076 A 
HETATM   30  C   UNL     1      42.146  -7.030  11.888  1.00  0.00     0.037 A 
HETATM   31  C   UNL     1      42.291  -5.653  11.735  1.00  0.00     0.003 A 
HETATM   32  C   UNL     1      42.566  -5.114  10.483  1.00  0.00     0.001 A 
HETATM   33  C   UNL     1      42.669  -5.950   9.370  1.00  0.00     0.012 A 
BRANCH  29  34
HETATM   34  O   UNL     1      42.178  -9.243  10.846  1.00  0.00    -0.351 OA
BRANCH  34  35
HETATM   35  C   UNL     1      42.764  -9.872  11.992  1.00  0.00     0.171 C 
HETATM   36  C   UNL     1      43.819 -10.847  11.499  1.00  0.00     0.034 C 
ENDBRANCH  34  35
ENDBRANCH  29  34
ENDBRANCH  27  28
ENDBRANCH   1  27
TORSDOF 8
ENDMDL
