MODEL 1
REMARK VINA RESULT:      -8.1      0.000      0.000
REMARK  5 active torsions:
REMARK  status: ('A' for Active; 'I' for Inactive)
REMARK    1  A    between atoms: C_2  and  C_3 
REMARK    2  A    between atoms: C_4  and  C_5 
REMARK    3  A    between atoms: C_8  and  C_9 
REMARK       I    between atoms: C_9  and  N_10 
REMARK    4  A    between atoms: N_10  and  C_11 
REMARK    5  A    between atoms: C_13  and  C_14 
ROOT
HETATM    1  C   UNL     1      40.694 -15.061   1.041  1.00  0.00     0.280 C 
HETATM    2  N   UNL     1      41.978 -14.977   1.550  1.00  0.00    -0.321 N 
HETATM    3  O   UNL     1      39.825 -15.836   1.427  1.00  0.00    -0.265 OA
HETATM    4  H   UNL     1      42.554 -14.265   1.112  1.00  0.00     0.169 HD
ENDROOT
BRANCH   2   5
HETATM    5  C   UNL     1      42.552 -15.712   2.604  1.00  0.00     0.035 A 
HETATM    6  C   UNL     1      42.859 -17.075   2.531  1.00  0.00     0.042 A 
HETATM    7  C   UNL     1      43.413 -17.761   3.628  1.00  0.00    -0.021 A 
HETATM    8  C   UNL     1      43.656 -17.047   4.809  1.00  0.00     0.012 A 
HETATM    9  C   UNL     1      43.362 -15.686   4.890  1.00  0.00     0.003 A 
HETATM   10  C   UNL     1      42.813 -15.022   3.793  1.00  0.00     0.029 A 
BRANCH   7  11
HETATM   11  C   UNL     1      43.708 -19.184   3.524  1.00  0.00     0.010 A 
HETATM   12  C   UNL     1      43.655 -20.062   2.411  1.00  0.00     0.152 A 
HETATM   13  N   UNL     1      44.010 -21.313   2.715  1.00  0.00    -0.187 NA
HETATM   14  N   UNL     1      44.298 -21.245   4.022  1.00  0.00    -0.289 N 
HETATM   15  H   UNL     1      44.605 -22.092   4.491  1.00  0.00     0.188 HD
HETATM   16  C   UNL     1      44.135 -19.998   4.553  1.00  0.00     0.123 A 
ENDBRANCH   7  11
ENDBRANCH   2   5
BRANCH   1  17
HETATM   17  C   UNL     1      40.446 -14.101  -0.019  1.00  0.00     0.144 A 
HETATM   18  O   UNL     1      39.576 -14.412  -1.030  1.00  0.00    -0.309 OA
HETATM   19  C   UNL     1      39.548 -13.349  -1.882  1.00  0.00     0.060 A 
HETATM   20  C   UNL     1      40.398 -12.345  -1.444  1.00  0.00    -0.026 A 
HETATM   21  C   UNL     1      40.961 -12.838  -0.232  1.00  0.00     0.052 A 
BRANCH  19  22
HETATM   22  C   UNL     1      38.652 -13.481  -3.061  1.00  0.00     0.061 C 
HETATM   23  C   UNL     1      38.296 -14.933  -3.333  1.00  0.00     0.012 C 
ENDBRANCH  19  22
BRANCH  20  24
HETATM   24  C   UNL     1      40.640 -11.032  -2.119  1.00  0.00     0.036 C 
HETATM   25  C   UNL     1      41.354  -9.995  -1.265  1.00  0.00     0.010 C 
ENDBRANCH  20  24
ENDBRANCH   1  17
TORSDOF 5
ENDMDL
MODEL 2
REMARK VINA RESULT:      -8.0      0.675      2.233
REMARK  5 active torsions:
REMARK  status: ('A' for Active; 'I' for Inactive)
REMARK    1  A    between atoms: C_2  and  C_3 
REMARK    2  A    between atoms: C_4  and  C_5 
REMARK    3  A    between atoms: C_8  and  C_9 
REMARK       I    between atoms: C_9  and  N_10 
REMARK    4  A    between atoms: N_10  and  C_11 
REMARK    5  A    between atoms: C_13  and  C_14 
ROOT
HETATM    1  C   UNL     1      40.597 -14.720   1.445  1.00  0.00     0.280 C 
HETATM    2  N   UNL     1      41.883 -15.231   1.493  1.00  0.00    -0.321 N 
HETATM    3  O   UNL     1      39.779 -14.767   2.358  1.00  0.00    -0.265 OA
HETATM    4  H   UNL     1      42.420 -15.087   0.644  1.00  0.00     0.169 HD
ENDROOT
BRANCH   2   5
HETATM    5  C   UNL     1      42.531 -15.870   2.567  1.00  0.00     0.035 A 
HETATM    6  C   UNL     1      42.834 -17.235   2.597  1.00  0.00     0.042 A 
HETATM    7  C   UNL     1      43.465 -17.821   3.709  1.00  0.00    -0.021 A 
HETATM    8  C   UNL     1      43.793 -17.004   4.799  1.00  0.00     0.012 A 
HETATM    9  C   UNL     1      43.504 -15.639   4.776  1.00  0.00     0.003 A 
HETATM   10  C   UNL     1      42.878 -15.075   3.665  1.00  0.00     0.029 A 
BRANCH   7  11
HETATM   11  C   UNL     1      43.753 -19.250   3.715  1.00  0.00     0.010 A 
HETATM   12  C   UNL     1      43.711 -20.207   2.670  1.00  0.00     0.152 A 
HETATM   13  N   UNL     1      44.053 -21.434   3.071  1.00  0.00    -0.187 NA
HETATM   14  N   UNL     1      44.323 -21.271   4.374  1.00  0.00    -0.289 N 
HETATM   15  H   UNL     1      44.617 -22.082   4.908  1.00  0.00     0.188 HD
HETATM   16  C   UNL     1      44.159 -19.987   4.809  1.00  0.00     0.123 A 
ENDBRANCH   7  11
ENDBRANCH   2   5
BRANCH   1  17
HETATM   17  C   UNL     1      40.294 -14.081   0.177  1.00  0.00     0.144 A 
HETATM   18  O   UNL     1      40.743 -12.810  -0.069  1.00  0.00    -0.309 OA
HETATM   19  C   UNL     1      40.307 -12.460  -1.311  1.00  0.00     0.060 A 
HETATM   20  C   UNL     1      39.569 -13.486  -1.880  1.00  0.00    -0.026 A 
HETATM   21  C   UNL     1      39.580 -14.533  -0.914  1.00  0.00     0.052 A 
BRANCH  19  22
HETATM   22  C   UNL     1      40.693 -11.103  -1.779  1.00  0.00     0.061 C 
HETATM   23  C   UNL     1      41.483 -10.350  -0.722  1.00  0.00     0.012 C 
ENDBRANCH  19  22
BRANCH  20  24
HETATM   24  C   UNL     1      38.920 -13.468  -3.228  1.00  0.00     0.036 C 
HETATM   25  C   UNL     1      38.196 -14.751  -3.607  1.00  0.00     0.010 C 
ENDBRANCH  20  24
ENDBRANCH   1  17
TORSDOF 5
ENDMDL
MODEL 3
REMARK VINA RESULT:      -7.8      2.700      8.131
REMARK  5 active torsions:
REMARK  status: ('A' for Active; 'I' for Inactive)
REMARK    1  A    between atoms: C_2  and  C_3 
REMARK    2  A    between atoms: C_4  and  C_5 
REMARK    3  A    between atoms: C_8  and  C_9 
REMARK       I    between atoms: C_9  and  N_10 
REMARK    4  A    between atoms: N_10  and  C_11 
REMARK    5  A    between atoms: C_13  and  C_14 
ROOT
HETATM    1  C   UNL     1      42.722 -15.363   2.192  1.00  0.00     0.280 C 
HETATM    2  N   UNL     1      41.361 -15.240   1.972  1.00  0.00    -0.321 N 
HETATM    3  O   UNL     1      43.587 -14.632   1.723  1.00  0.00    -0.265 OA
HETATM    4  H   UNL     1      40.796 -15.931   2.454  1.00  0.00     0.169 HD
ENDROOT
BRANCH   2   5
HETATM    5  C   UNL     1      40.682 -14.267   1.214  1.00  0.00     0.035 A 
HETATM    6  C   UNL     1      40.032 -14.532   0.004  1.00  0.00     0.042 A 
HETATM    7  C   UNL     1      39.387 -13.513  -0.720  1.00  0.00    -0.021 A 
HETATM    8  C   UNL     1      39.404 -12.211  -0.202  1.00  0.00     0.012 A 
HETATM    9  C   UNL     1      40.041 -11.937   1.009  1.00  0.00     0.003 A 
HETATM   10  C   UNL     1      40.676 -12.960   1.713  1.00  0.00     0.029 A 
BRANCH   7  11
HETATM   11  C   UNL     1      38.732 -13.820  -1.986  1.00  0.00     0.010 A 
HETATM   12  C   UNL     1      38.983 -14.845  -2.933  1.00  0.00     0.152 A 
HETATM   13  N   UNL     1      38.155 -14.802  -3.981  1.00  0.00    -0.187 NA
HETATM   14  N   UNL     1      37.364 -13.754  -3.709  1.00  0.00    -0.289 N 
HETATM   15  H   UNL     1      36.633 -13.519  -4.373  1.00  0.00     0.188 HD
HETATM   16  C   UNL     1      37.666 -13.133  -2.531  1.00  0.00     0.123 A 
ENDBRANCH   7  11
ENDBRANCH   2   5
BRANCH   1  17
HETATM   17  C   UNL     1      43.049 -16.466   3.077  1.00  0.00     0.144 A 
HETATM   18  O   UNL     1      43.355 -17.693   2.550  1.00  0.00    -0.309 OA
HETATM   19  C   UNL     1      43.601 -18.532   3.595  1.00  0.00     0.060 A 
HETATM   20  C   UNL     1      43.454 -17.870   4.804  1.00  0.00    -0.026 A 
HETATM   21  C   UNL     1      43.110 -16.532   4.454  1.00  0.00     0.052 A 
BRANCH  19  22
HETATM   22  C   UNL     1      43.960 -19.931   3.239  1.00  0.00     0.061 C 
HETATM   23  C   UNL     1      43.500 -20.285   1.834  1.00  0.00     0.012 C 
ENDBRANCH  19  22
BRANCH  20  24
HETATM   24  C   UNL     1      43.633 -18.461   6.166  1.00  0.00     0.036 C 
HETATM   25  C   UNL     1      43.638 -17.453   7.306  1.00  0.00     0.010 C 
ENDBRANCH  20  24
ENDBRANCH   1  17
TORSDOF 5
ENDMDL
MODEL 4
REMARK VINA RESULT:      -7.8      2.704      8.343
REMARK  5 active torsions:
REMARK  status: ('A' for Active; 'I' for Inactive)
REMARK    1  A    between atoms: C_2  and  C_3 
REMARK    2  A    between atoms: C_4  and  C_5 
REMARK    3  A    between atoms: C_8  and  C_9 
REMARK       I    between atoms: C_9  and  N_10 
REMARK    4  A    between atoms: N_10  and  C_11 
REMARK    5  A    between atoms: C_13  and  C_14 
ROOT
HETATM    1  C   UNL     1      42.842 -15.564   2.225  1.00  0.00     0.280 C 
HETATM    2  N   UNL     1      41.486 -15.283   2.214  1.00  0.00    -0.321 N 
HETATM    3  O   UNL     1      43.688 -15.010   1.530  1.00  0.00    -0.265 OA
HETATM    4  H   UNL     1      40.941 -15.836   2.868  1.00  0.00     0.169 HD
ENDROOT
BRANCH   2   5
HETATM    5  C   UNL     1      40.798 -14.317   1.456  1.00  0.00     0.035 A 
HETATM    6  C   UNL     1      40.183 -14.579   0.227  1.00  0.00     0.042 A 
HETATM    7  C   UNL     1      39.527 -13.566  -0.495  1.00  0.00    -0.021 A 
HETATM    8  C   UNL     1      39.498 -12.272   0.044  1.00  0.00     0.012 A 
HETATM    9  C   UNL     1      40.101 -12.002   1.273  1.00  0.00     0.003 A 
HETATM   10  C   UNL     1      40.746 -13.019   1.976  1.00  0.00     0.029 A 
BRANCH   7  11
HETATM   11  C   UNL     1      38.909 -13.869  -1.779  1.00  0.00     0.010 A 
HETATM   12  C   UNL     1      39.005 -15.018  -2.604  1.00  0.00     0.152 A 
HETATM   13  N   UNL     1      38.275 -14.923  -3.719  1.00  0.00    -0.187 NA
HETATM   14  N   UNL     1      37.702 -13.716  -3.613  1.00  0.00    -0.289 N 
HETATM   15  H   UNL     1      37.081 -13.413  -4.357  1.00  0.00     0.188 HD
HETATM   16  C   UNL     1      38.046 -13.046  -2.475  1.00  0.00     0.123 A 
ENDBRANCH   7  11
ENDBRANCH   2   5
BRANCH   1  17
HETATM   17  C   UNL     1      43.193 -16.598   3.180  1.00  0.00     0.144 A 
HETATM   18  O   UNL     1      43.209 -16.309   4.520  1.00  0.00    -0.309 OA
HETATM   19  C   UNL     1      43.583 -17.445   5.174  1.00  0.00     0.060 A 
HETATM   20  C   UNL     1      43.819 -18.474   4.277  1.00  0.00    -0.026 A 
HETATM   21  C   UNL     1      43.550 -17.918   2.993  1.00  0.00     0.052 A 
BRANCH  19  22
HETATM   22  C   UNL     1      43.660 -17.348   6.656  1.00  0.00     0.061 C 
HETATM   23  C   UNL     1      42.666 -16.337   7.203  1.00  0.00     0.012 C 
ENDBRANCH  19  22
BRANCH  20  24
HETATM   24  C   UNL     1      44.254 -19.865   4.618  1.00  0.00     0.036 C 
HETATM   25  C   UNL     1      43.843 -20.929   3.611  1.00  0.00     0.010 C 
ENDBRANCH  20  24
ENDBRANCH   1  17
TORSDOF 5
ENDMDL
MODEL 5
REMARK VINA RESULT:      -7.7      2.168      3.073
REMARK  5 active torsions:
REMARK  status: ('A' for Active; 'I' for Inactive)
REMARK    1  A    between atoms: C_2  and  C_3 
REMARK    2  A    between atoms: C_4  and  C_5 
REMARK    3  A    between atoms: C_8  and  C_9 
REMARK       I    between atoms: C_9  and  N_10 
REMARK    4  A    between atoms: N_10  and  C_11 
REMARK    5  A    between atoms: C_13  and  C_14 
ROOT
HETATM    1  C   UNL     1      40.720 -15.311   1.171  1.00  0.00     0.280 C 
HETATM    2  N   UNL     1      42.034 -15.372   1.604  1.00  0.00    -0.321 N 
HETATM    3  O   UNL     1      39.803 -16.016   1.579  1.00  0.00    -0.265 OA
HETATM    4  H   UNL     1      42.651 -14.700   1.159  1.00  0.00     0.169 HD
ENDROOT
BRANCH   2   5
HETATM    5  C   UNL     1      42.591 -16.205   2.593  1.00  0.00     0.035 A 
HETATM    6  C   UNL     1      42.649 -15.875   3.951  1.00  0.00     0.042 A 
HETATM    7  C   UNL     1      43.238 -16.741   4.890  1.00  0.00    -0.021 A 
HETATM    8  C   UNL     1      43.771 -17.956   4.439  1.00  0.00     0.012 A 
HETATM    9  C   UNL     1      43.710 -18.299   3.088  1.00  0.00     0.003 A 
HETATM   10  C   UNL     1      43.122 -17.428   2.170  1.00  0.00     0.029 A 
BRANCH   7  11
HETATM   11  C   UNL     1      43.296 -16.360   6.296  1.00  0.00     0.010 A 
HETATM   12  C   UNL     1      43.025 -15.122   6.932  1.00  0.00     0.152 A 
HETATM   13  N   UNL     1      43.187 -15.169   8.257  1.00  0.00    -0.187 NA
HETATM   14  N   UNL     1      43.556 -16.438   8.481  1.00  0.00    -0.289 N 
HETATM   15  H   UNL     1      43.735 -16.724   9.438  1.00  0.00     0.188 HD
HETATM   16  C   UNL     1      43.636 -17.191   7.344  1.00  0.00     0.123 A 
ENDBRANCH   7  11
ENDBRANCH   2   5
BRANCH   1  17
HETATM   17  C   UNL     1      40.508 -14.285   0.166  1.00  0.00     0.144 A 
HETATM   18  O   UNL     1      39.784 -14.575  -0.960  1.00  0.00    -0.309 OA
HETATM   19  C   UNL     1      39.758 -13.448  -1.725  1.00  0.00     0.060 A 
HETATM   20  C   UNL     1      40.465 -12.423  -1.116  1.00  0.00    -0.026 A 
HETATM   21  C   UNL     1      40.933 -12.973   0.112  1.00  0.00     0.052 A 
BRANCH  19  22
HETATM   22  C   UNL     1      39.010 -13.547  -3.007  1.00  0.00     0.061 C 
HETATM   23  C   UNL     1      38.393 -14.924  -3.189  1.00  0.00     0.012 C 
ENDBRANCH  19  22
BRANCH  20  24
HETATM   24  C   UNL     1      40.666 -11.042  -1.657  1.00  0.00     0.036 C 
HETATM   25  C   UNL     1      41.511 -10.129  -0.782  1.00  0.00     0.010 C 
ENDBRANCH  20  24
ENDBRANCH   1  17
TORSDOF 5
ENDMDL
MODEL 6
REMARK VINA RESULT:      -7.5      4.142      6.803
REMARK  5 active torsions:
REMARK  status: ('A' for Active; 'I' for Inactive)
REMARK    1  A    between atoms: C_2  and  C_3 
REMARK    2  A    between atoms: C_4  and  C_5 
REMARK    3  A    between atoms: C_8  and  C_9 
REMARK       I    between atoms: C_9  and  N_10 
REMARK    4  A    between atoms: N_10  and  C_11 
REMARK    5  A    between atoms: C_13  and  C_14 
ROOT
HETATM    1  C   UNL     1      42.556 -13.602   5.616  1.00  0.00     0.280 C 
HETATM    2  N   UNL     1      43.411 -14.056   4.626  1.00  0.00    -0.321 N 
HETATM    3  O   UNL     1      41.446 -14.062   5.862  1.00  0.00    -0.265 OA
HETATM    4  H   UNL     1      44.295 -13.559   4.579  1.00  0.00     0.169 HD
ENDROOT
BRANCH   2   5
HETATM    5  C   UNL     1      43.223 -15.125   3.729  1.00  0.00     0.035 A 
HETATM    6  C   UNL     1      43.502 -16.461   4.036  1.00  0.00     0.042 A 
HETATM    7  C   UNL     1      43.312 -17.485   3.090  1.00  0.00    -0.021 A 
HETATM    8  C   UNL     1      42.831 -17.141   1.820  1.00  0.00     0.012 A 
HETATM    9  C   UNL     1      42.541 -15.813   1.506  1.00  0.00     0.003 A 
HETATM   10  C   UNL     1      42.735 -14.811   2.457  1.00  0.00     0.029 A 
BRANCH   7  11
HETATM   11  C   UNL     1      43.627 -18.866   3.437  1.00  0.00     0.010 A 
HETATM   12  C   UNL     1      43.557 -20.053   2.664  1.00  0.00     0.152 A 
HETATM   13  N   UNL     1      43.940 -21.139   3.341  1.00  0.00    -0.187 NA
HETATM   14  N   UNL     1      44.263 -20.655   4.549  1.00  0.00    -0.289 N 
HETATM   15  H   UNL     1      44.595 -21.306   5.253  1.00  0.00     0.188 HD
HETATM   16  C   UNL     1      44.095 -19.305   4.659  1.00  0.00     0.123 A 
ENDBRANCH   7  11
ENDBRANCH   2   5
BRANCH   1  17
HETATM   17  C   UNL     1      43.117 -12.504   6.381  1.00  0.00     0.144 A 
HETATM   18  O   UNL     1      42.376 -11.370   6.587  1.00  0.00    -0.309 OA
HETATM   19  C   UNL     1      43.145 -10.511   7.313  1.00  0.00     0.060 A 
HETATM   20  C   UNL     1      44.386 -11.067   7.580  1.00  0.00    -0.026 A 
HETATM   21  C   UNL     1      44.350 -12.360   6.984  1.00  0.00     0.052 A 
BRANCH  19  22
HETATM   22  C   UNL     1      42.521  -9.205   7.653  1.00  0.00     0.061 C 
HETATM   23  C   UNL     1      41.014  -9.237   7.455  1.00  0.00     0.012 C 
ENDBRANCH  19  22
BRANCH  20  24
HETATM   24  C   UNL     1      45.501 -10.422   8.342  1.00  0.00     0.036 C 
HETATM   25  C   UNL     1      45.204 -10.160   9.811  1.00  0.00     0.010 C 
ENDBRANCH  20  24
ENDBRANCH   1  17
TORSDOF 5
ENDMDL
MODEL 7
REMARK VINA RESULT:      -7.4      6.574      9.761
REMARK  5 active torsions:
REMARK  status: ('A' for Active; 'I' for Inactive)
REMARK    1  A    between atoms: C_2  and  C_3 
REMARK    2  A    between atoms: C_4  and  C_5 
REMARK    3  A    between atoms: C_8  and  C_9 
REMARK       I    between atoms: C_9  and  N_10 
REMARK    4  A    between atoms: N_10  and  C_11 
REMARK    5  A    between atoms: C_13  and  C_14 
ROOT
HETATM    1  C   UNL     1      43.158 -12.629   6.151  1.00  0.00     0.280 C 
HETATM    2  N   UNL     1      44.318 -12.481   6.892  1.00  0.00    -0.321 N 
HETATM    3  O   UNL     1      42.285 -11.779   6.019  1.00  0.00    -0.265 OA
HETATM    4  H   UNL     1      44.930 -13.290   6.875  1.00  0.00     0.169 HD
ENDROOT
BRANCH   2   5
HETATM    5  C   UNL     1      44.758 -11.354   7.612  1.00  0.00     0.035 A 
HETATM    6  C   UNL     1      44.070 -10.802   8.698  1.00  0.00     0.042 A 
HETATM    7  C   UNL     1      44.550  -9.660   9.365  1.00  0.00    -0.021 A 
HETATM    8  C   UNL     1      45.745  -9.078   8.920  1.00  0.00     0.012 A 
HETATM    9  C   UNL     1      46.444  -9.626   7.844  1.00  0.00     0.003 A 
HETATM   10  C   UNL     1      45.953 -10.758   7.194  1.00  0.00     0.029 A 
BRANCH   7  11
HETATM   11  C   UNL     1      43.802  -9.100  10.484  1.00  0.00     0.010 A 
HETATM   12  C   UNL     1      43.480  -9.651  11.750  1.00  0.00     0.152 A 
HETATM   13  N   UNL     1      42.773  -8.817  12.518  1.00  0.00    -0.187 NA
HETATM   14  N   UNL     1      42.644  -7.725  11.753  1.00  0.00    -0.289 N 
HETATM   15  H   UNL     1      42.136  -6.931  12.132  1.00  0.00     0.188 HD
HETATM   16  C   UNL     1      43.239  -7.841  10.530  1.00  0.00     0.123 A 
ENDBRANCH   7  11
ENDBRANCH   2   5
BRANCH   1  17
HETATM   17  C   UNL     1      43.070 -13.924   5.502  1.00  0.00     0.144 A 
HETATM   18  O   UNL     1      43.722 -15.002   6.042  1.00  0.00    -0.309 OA
HETATM   19  C   UNL     1      43.482 -16.069   5.229  1.00  0.00     0.060 A 
HETATM   20  C   UNL     1      42.685 -15.701   4.156  1.00  0.00    -0.026 A 
HETATM   21  C   UNL     1      42.414 -14.316   4.352  1.00  0.00     0.052 A 
BRANCH  19  22
HETATM   22  C   UNL     1      44.103 -17.356   5.641  1.00  0.00     0.061 C 
HETATM   23  C   UNL     1      43.387 -17.964   6.836  1.00  0.00     0.012 C 
ENDBRANCH  19  22
BRANCH  20  24
HETATM   24  C   UNL     1      42.218 -16.595   3.051  1.00  0.00     0.036 C 
HETATM   25  C   UNL     1      43.277 -16.933   2.012  1.00  0.00     0.010 C 
ENDBRANCH  20  24
ENDBRANCH   1  17
TORSDOF 5
ENDMDL
MODEL 8
REMARK VINA RESULT:      -7.4      3.994      6.538
REMARK  5 active torsions:
REMARK  status: ('A' for Active; 'I' for Inactive)
REMARK    1  A    between atoms: C_2  and  C_3 
REMARK    2  A    between atoms: C_4  and  C_5 
REMARK    3  A    between atoms: C_8  and  C_9 
REMARK       I    between atoms: C_9  and  N_10 
REMARK    4  A    between atoms: N_10  and  C_11 
REMARK    5  A    between atoms: C_13  and  C_14 
ROOT
HETATM    1  C   UNL     1      42.143 -13.392   4.871  1.00  0.00     0.280 C 
HETATM    2  N   UNL     1      43.217 -14.208   4.558  1.00  0.00    -0.321 N 
HETATM    3  O   UNL     1      40.995 -13.541   4.464  1.00  0.00    -0.265 OA
HETATM    4  H   UNL     1      44.089 -13.935   4.998  1.00  0.00     0.169 HD
ENDROOT
BRANCH   2   5
HETATM    5  C   UNL     1      43.232 -15.366   3.758  1.00  0.00     0.035 A 
HETATM    6  C   UNL     1      43.470 -16.654   4.250  1.00  0.00     0.042 A 
HETATM    7  C   UNL     1      43.493 -17.772   3.397  1.00  0.00    -0.021 A 
HETATM    8  C   UNL     1      43.270 -17.573   2.028  1.00  0.00     0.012 A 
HETATM    9  C   UNL     1      43.023 -16.294   1.527  1.00  0.00     0.003 A 
HETATM   10  C   UNL     1      43.003 -15.197   2.388  1.00  0.00     0.029 A 
BRANCH   7  11
HETATM   11  C   UNL     1      43.759 -19.098   3.940  1.00  0.00     0.010 A 
HETATM   12  C   UNL     1      44.031 -19.518   5.266  1.00  0.00     0.152 A 
HETATM   13  N   UNL     1      44.218 -20.837   5.369  1.00  0.00    -0.187 NA
HETATM   14  N   UNL     1      44.059 -21.272   4.111  1.00  0.00    -0.289 N 
HETATM   15  H   UNL     1      44.151 -22.267   3.933  1.00  0.00     0.188 HD
HETATM   16  C   UNL     1      43.784 -20.275   3.220  1.00  0.00     0.123 A 
ENDBRANCH   7  11
ENDBRANCH   2   5
BRANCH   1  17
HETATM   17  C   UNL     1      42.502 -12.314   5.772  1.00  0.00     0.144 A 
HETATM   18  O   UNL     1      43.661 -12.391   6.499  1.00  0.00    -0.309 OA
HETATM   19  C   UNL     1      43.737 -11.265   7.261  1.00  0.00     0.060 A 
HETATM   20  C   UNL     1      42.636 -10.451   7.048  1.00  0.00    -0.026 A 
HETATM   21  C   UNL     1      41.853 -11.134   6.073  1.00  0.00     0.052 A 
BRANCH  19  22
HETATM   22  C   UNL     1      44.936 -11.147   8.133  1.00  0.00     0.061 C 
HETATM   23  C   UNL     1      45.945 -10.163   7.566  1.00  0.00     0.012 C 
ENDBRANCH  19  22
BRANCH  20  24
HETATM   24  C   UNL     1      42.363  -9.137   7.710  1.00  0.00     0.036 C 
HETATM   25  C   UNL     1      41.613  -8.131   6.851  1.00  0.00     0.010 C 
ENDBRANCH  20  24
ENDBRANCH   1  17
TORSDOF 5
ENDMDL
MODEL 9
REMARK VINA RESULT:      -7.3      2.570      8.782
REMARK  5 active torsions:
REMARK  status: ('A' for Active; 'I' for Inactive)
REMARK    1  A    between atoms: C_2  and  C_3 
REMARK    2  A    between atoms: C_4  and  C_5 
REMARK    3  A    between atoms: C_8  and  C_9 
REMARK       I    between atoms: C_9  and  N_10 
REMARK    4  A    between atoms: N_10  and  C_11 
REMARK    5  A    between atoms: C_13  and  C_14 
ROOT
HETATM    1  C   UNL     1      40.913 -15.306   1.996  1.00  0.00     0.280 C 
HETATM    2  N   UNL     1      41.241 -14.929   0.705  1.00  0.00    -0.321 N 
HETATM    3  O   UNL     1      39.934 -14.915   2.624  1.00  0.00    -0.265 OA
HETATM    4  H   UNL     1      42.083 -15.366   0.345  1.00  0.00     0.169 HD
ENDROOT
BRANCH   2   5
HETATM    5  C   UNL     1      40.539 -14.069  -0.160  1.00  0.00     0.035 A 
HETATM    6  C   UNL     1      40.794 -12.698  -0.276  1.00  0.00     0.042 A 
HETATM    7  C   UNL     1      40.044 -11.884  -1.145  1.00  0.00    -0.021 A 
HETATM    8  C   UNL     1      39.026 -12.477  -1.904  1.00  0.00     0.012 A 
HETATM    9  C   UNL     1      38.770 -13.844  -1.803  1.00  0.00     0.003 A 
HETATM   10  C   UNL     1      39.523 -14.636  -0.937  1.00  0.00     0.029 A 
BRANCH   7  11
HETATM   11  C   UNL     1      40.325 -10.457  -1.230  1.00  0.00     0.010 A 
HETATM   12  C   UNL     1      41.174  -9.731  -2.104  1.00  0.00     0.152 A 
HETATM   13  N   UNL     1      41.160  -8.415  -1.872  1.00  0.00    -0.187 NA
HETATM   14  N   UNL     1      40.298  -8.288  -0.854  1.00  0.00    -0.289 N 
HETATM   15  H   UNL     1      40.113  -7.357  -0.496  1.00  0.00     0.188 HD
HETATM   16  C   UNL     1      39.771  -9.475  -0.433  1.00  0.00     0.123 A 
ENDBRANCH   7  11
ENDBRANCH   2   5
BRANCH   1  17
HETATM   17  C   UNL     1      41.854 -16.256   2.559  1.00  0.00     0.144 A 
HETATM   18  O   UNL     1      42.522 -15.950   3.715  1.00  0.00    -0.309 OA
HETATM   19  C   UNL     1      43.340 -17.001   4.002  1.00  0.00     0.060 A 
HETATM   20  C   UNL     1      43.221 -17.993   3.040  1.00  0.00    -0.026 A 
HETATM   21  C   UNL     1      42.248 -17.505   2.122  1.00  0.00     0.052 A 
BRANCH  19  22
HETATM   22  C   UNL     1      44.161 -16.872   5.235  1.00  0.00     0.061 C 
HETATM   23  C   UNL     1      43.450 -17.457   6.444  1.00  0.00     0.012 C 
ENDBRANCH  19  22
BRANCH  20  24
HETATM   24  C   UNL     1      43.966 -19.290   3.009  1.00  0.00     0.036 C 
HETATM   25  C   UNL     1      43.488 -20.277   1.955  1.00  0.00     0.010 C 
ENDBRANCH  20  24
ENDBRANCH   1  17
TORSDOF 5
ENDMDL
MODEL 10
REMARK VINA RESULT:      -7.3      6.013      8.839
REMARK  5 active torsions:
REMARK  status: ('A' for Active; 'I' for Inactive)
REMARK    1  A    between atoms: C_2  and  C_3 
REMARK    2  A    between atoms: C_4  and  C_5 
REMARK    3  A    between atoms: C_8  and  C_9 
REMARK       I    between atoms: C_9  and  N_10 
REMARK    4  A    between atoms: N_10  and  C_11 
REMARK    5  A    between atoms: C_13  and  C_14 
ROOT
HETATM    1  C   UNL     1      43.545 -14.039   6.503  1.00  0.00     0.280 C 
HETATM    2  N   UNL     1      44.141 -12.826   6.205  1.00  0.00    -0.321 N 
HETATM    3  O   UNL     1      43.337 -14.471   7.632  1.00  0.00    -0.265 OA
HETATM    4  H   UNL     1      44.219 -12.633   5.212  1.00  0.00     0.169 HD
ENDROOT
BRANCH   2   5
HETATM    5  C   UNL     1      44.601 -11.835   7.093  1.00  0.00     0.035 A 
HETATM    6  C   UNL     1      43.915 -11.440   8.246  1.00  0.00     0.042 A 
HETATM    7  C   UNL     1      44.416 -10.428   9.085  1.00  0.00    -0.021 A 
HETATM    8  C   UNL     1      45.630  -9.816   8.744  1.00  0.00     0.012 A 
HETATM    9  C   UNL     1      46.326 -10.209   7.601  1.00  0.00     0.003 A 
HETATM   10  C   UNL     1      45.815 -11.214   6.781  1.00  0.00     0.029 A 
BRANCH   7  11
HETATM   11  C   UNL     1      43.669 -10.029  10.272  1.00  0.00     0.010 A 
HETATM   12  C   UNL     1      42.879  -8.879  10.525  1.00  0.00     0.152 A 
HETATM   13  N   UNL     1      42.342  -8.872  11.748  1.00  0.00    -0.187 NA
HETATM   14  N   UNL     1      42.778 -10.021  12.284  1.00  0.00    -0.289 N 
HETATM   15  H   UNL     1      42.491 -10.248  13.231  1.00  0.00     0.188 HD
HETATM   16  C   UNL     1      43.573 -10.748  11.446  1.00  0.00     0.123 A 
ENDBRANCH   7  11
ENDBRANCH   2   5
BRANCH   1  17
HETATM   17  C   UNL     1      43.154 -14.778   5.317  1.00  0.00     0.144 A 
HETATM   18  O   UNL     1      42.257 -14.229   4.439  1.00  0.00    -0.309 OA
HETATM   19  C   UNL     1      42.063 -15.135   3.439  1.00  0.00     0.060 A 
HETATM   20  C   UNL     1      42.819 -16.276   3.655  1.00  0.00    -0.026 A 
HETATM   21  C   UNL     1      43.530 -16.027   4.865  1.00  0.00     0.052 A 
BRANCH  19  22
HETATM   22  C   UNL     1      41.116 -14.730   2.366  1.00  0.00     0.061 C 
HETATM   23  C   UNL     1      39.852 -15.575   2.389  1.00  0.00     0.012 C 
ENDBRANCH  19  22
BRANCH  20  24
HETATM   24  C   UNL     1      42.863 -17.489   2.781  1.00  0.00     0.036 C 
HETATM   25  C   UNL     1      43.825 -18.575   3.240  1.00  0.00     0.010 C 
ENDBRANCH  20  24
ENDBRANCH   1  17
TORSDOF 5
ENDMDL
