MODEL 1
REMARK VINA RESULT:      -8.9      0.000      0.000
REMARK  6 active torsions:
REMARK  status: ('A' for Active; 'I' for Inactive)
REMARK    1  A    between atoms: O_2  and  C_3 
REMARK    2  A    between atoms: C_6  and  C_7 
REMARK    3  A    between atoms: C_7  and  N_8 
REMARK       I    between atoms: N_8  and  C_9 
REMARK    4  A    between atoms: C_9  and  C_10 
REMARK    5  A    between atoms: C_10  and  O_11 
REMARK    6  A    between atoms: N_12  and  C_13 
ROOT
HETATM    1  C   UNL     1      41.900 -14.061   2.136  1.00  0.00     0.256 C 
HETATM    2  N   UNL     1      40.554 -13.798   1.619  1.00  0.00    -0.254 N 
HETATM    3  C   UNL     1      39.603 -13.383   2.558  1.00  0.00     0.330 C 
HETATM    4  O   UNL     1      38.542 -12.806   2.323  1.00  0.00    -0.246 OA
HETATM    5  N   UNL     1      39.831 -13.776   3.863  1.00  0.00    -0.308 N 
HETATM    6  C   UNL     1      40.791 -14.718   4.230  1.00  0.00     0.048 A 
HETATM    7  C   UNL     1      41.819 -14.989   3.329  1.00  0.00     0.035 A 
HETATM    8  C   UNL     1      40.695 -15.399   5.442  1.00  0.00     0.031 A 
HETATM    9  C   UNL     1      41.618 -16.405   5.733  1.00  0.00     0.021 A 
HETATM   10  C   UNL     1      42.625 -16.714   4.816  1.00  0.00     0.011 A 
HETATM   11 BR   UNL     1      43.860 -18.090   5.209  1.00  0.00    -0.051 Br
HETATM   12  C   UNL     1      42.736 -16.008   3.619  1.00  0.00     0.034 A 
HETATM   13  H   UNL     1      39.062 -13.566   4.486  1.00  0.00     0.170 HD
ENDROOT
BRANCH   1  14
HETATM   14  C   UNL     1      42.571 -12.670   2.547  1.00  0.00     0.279 C 
HETATM   15  N   UNL     1      43.664 -12.752   3.391  1.00  0.00    -0.352 N 
HETATM   16  H   UNL     1      44.056 -13.658   3.615  1.00  0.00     0.162 HD
HETATM   17  O   UNL     1      42.206 -11.589   2.080  1.00  0.00    -0.268 OA
BRANCH  15  18
HETATM   18  C   UNL     1      44.385 -11.581   3.834  1.00  0.00     0.161 C 
BRANCH  18  19
HETATM   19  C   UNL     1      44.336 -11.447   5.335  1.00  0.00    -0.040 A 
HETATM   20  C   UNL     1      45.515 -11.389   6.089  1.00  0.00     0.011 A 
HETATM   21  C   UNL     1      45.460 -11.214   7.474  1.00  0.00     0.037 A 
HETATM   22  C   UNL     1      44.234 -11.084   8.130  1.00  0.00     0.068 A 
HETATM   23  C   UNL     1      43.055 -11.152   7.389  1.00  0.00     0.037 A 
HETATM   24  C   UNL     1      43.107 -11.326   6.002  1.00  0.00     0.011 A 
BRANCH  22  25
HETATM   25  O   UNL     1      44.324 -10.900   9.482  1.00  0.00    -0.356 OA
HETATM   26  C   UNL     1      45.197  -9.870   9.931  1.00  0.00     0.210 C 
ENDBRANCH  22  25
ENDBRANCH  18  19
ENDBRANCH  15  18
ENDBRANCH   1  14
BRANCH   1  27
HETATM   27  O   UNL     1      42.777 -14.628   1.160  1.00  0.00    -0.359 OA
HETATM   28  H   UNL     1      42.901 -15.550   1.453  1.00  0.00     0.213 HD
ENDBRANCH   1  27
BRANCH   2  29
HETATM   29  C   UNL     1      40.277 -13.728   0.221  1.00  0.00     0.042 A 
HETATM   30  C   UNL     1      40.561 -12.579  -0.527  1.00  0.00     0.030 A 
HETATM   31  C   UNL     1      40.239 -12.510  -1.886  1.00  0.00     0.002 A 
HETATM   32  C   UNL     1      39.617 -13.586  -2.514  1.00  0.00     0.000 A 
HETATM   33  C   UNL     1      39.313 -14.730  -1.782  1.00  0.00     0.002 A 
HETATM   34  C   UNL     1      39.637 -14.798  -0.424  1.00  0.00     0.030 A 
ENDBRANCH   2  29
TORSDOF 6
ENDMDL
MODEL 2
REMARK VINA RESULT:      -8.9      3.484      6.950
REMARK  6 active torsions:
REMARK  status: ('A' for Active; 'I' for Inactive)
REMARK    1  A    between atoms: O_2  and  C_3 
REMARK    2  A    between atoms: C_6  and  C_7 
REMARK    3  A    between atoms: C_7  and  N_8 
REMARK       I    between atoms: N_8  and  C_9 
REMARK    4  A    between atoms: C_9  and  C_10 
REMARK    5  A    between atoms: C_10  and  O_11 
REMARK    6  A    between atoms: N_12  and  C_13 
ROOT
HETATM    1  C   UNL     1      43.016 -11.658   6.603  1.00  0.00     0.256 C 
HETATM    2  N   UNL     1      43.324 -11.335   5.206  1.00  0.00    -0.254 N 
HETATM    3  C   UNL     1      44.677 -11.368   4.850  1.00  0.00     0.330 C 
HETATM    4  O   UNL     1      45.134 -11.459   3.711  1.00  0.00    -0.246 OA
HETATM    5  N   UNL     1      45.577 -11.153   5.876  1.00  0.00    -0.308 N 
HETATM    6  C   UNL     1      45.213 -10.693   7.141  1.00  0.00     0.048 A 
HETATM    7  C   UNL     1      43.880 -10.824   7.524  1.00  0.00     0.035 A 
HETATM    8  C   UNL     1      46.147 -10.080   7.972  1.00  0.00     0.031 A 
HETATM    9  C   UNL     1      45.727  -9.544   9.191  1.00  0.00     0.021 A 
HETATM   10  C   UNL     1      44.384  -9.631   9.564  1.00  0.00     0.011 A 
HETATM   11 BR   UNL     1      43.818  -8.886  11.206  1.00  0.00    -0.051 Br
HETATM   12  C   UNL     1      43.459 -10.273   8.742  1.00  0.00     0.034 A 
HETATM   13  H   UNL     1      46.534 -11.060   5.557  1.00  0.00     0.170 HD
ENDROOT
BRANCH   1  14
HETATM   14  C   UNL     1      43.280 -13.216   6.838  1.00  0.00     0.279 C 
HETATM   15  N   UNL     1      42.167 -14.035   6.762  1.00  0.00    -0.352 N 
HETATM   16  H   UNL     1      41.282 -13.650   6.457  1.00  0.00     0.162 HD
HETATM   17  O   UNL     1      44.409 -13.687   6.990  1.00  0.00    -0.268 OA
BRANCH  15  18
HETATM   18  C   UNL     1      42.252 -15.467   6.935  1.00  0.00     0.161 C 
BRANCH  18  19
HETATM   19  C   UNL     1      42.505 -16.161   5.621  1.00  0.00    -0.040 A 
HETATM   20  C   UNL     1      43.592 -17.030   5.466  1.00  0.00     0.011 A 
HETATM   21  C   UNL     1      43.789 -17.707   4.260  1.00  0.00     0.037 A 
HETATM   22  C   UNL     1      42.904 -17.539   3.192  1.00  0.00     0.068 A 
HETATM   23  C   UNL     1      41.826 -16.667   3.334  1.00  0.00     0.037 A 
HETATM   24  C   UNL     1      41.625 -15.987   4.541  1.00  0.00     0.011 A 
BRANCH  22  25
HETATM   25  O   UNL     1      43.203 -18.273   2.078  1.00  0.00    -0.356 OA
HETATM   26  C   UNL     1      43.373 -19.674   2.262  1.00  0.00     0.210 C 
ENDBRANCH  22  25
ENDBRANCH  18  19
ENDBRANCH  15  18
ENDBRANCH   1  14
BRANCH   1  27
HETATM   27  O   UNL     1      41.641 -11.454   6.938  1.00  0.00    -0.359 OA
HETATM   28  H   UNL     1      41.181 -11.444   6.077  1.00  0.00     0.213 HD
ENDBRANCH   1  27
BRANCH   2  29
HETATM   29  C   UNL     1      42.309 -11.231   4.209  1.00  0.00     0.042 A 
HETATM   30  C   UNL     1      41.733 -10.000   3.874  1.00  0.00     0.030 A 
HETATM   31  C   UNL     1      40.706  -9.921   2.929  1.00  0.00     0.002 A 
HETATM   32  C   UNL     1      40.232 -11.077   2.312  1.00  0.00     0.000 A 
HETATM   33  C   UNL     1      40.783 -12.311   2.644  1.00  0.00     0.002 A 
HETATM   34  C   UNL     1      41.810 -12.387   3.588  1.00  0.00     0.030 A 
ENDBRANCH   2  29
TORSDOF 6
ENDMDL
MODEL 3
REMARK VINA RESULT:      -8.7      3.697      5.461
REMARK  6 active torsions:
REMARK  status: ('A' for Active; 'I' for Inactive)
REMARK    1  A    between atoms: O_2  and  C_3 
REMARK    2  A    between atoms: C_6  and  C_7 
REMARK    3  A    between atoms: C_7  and  N_8 
REMARK       I    between atoms: N_8  and  C_9 
REMARK    4  A    between atoms: C_9  and  C_10 
REMARK    5  A    between atoms: C_10  and  O_11 
REMARK    6  A    between atoms: N_12  and  C_13 
ROOT
HETATM    1  C   UNL     1      40.427 -12.921   1.551  1.00  0.00     0.256 C 
HETATM    2  N   UNL     1      40.262 -12.332   0.219  1.00  0.00    -0.254 N 
HETATM    3  C   UNL     1      41.054 -11.213  -0.063  1.00  0.00     0.330 C 
HETATM    4  O   UNL     1      41.326 -10.769  -1.177  1.00  0.00    -0.246 OA
HETATM    5  N   UNL     1      41.462 -10.472   1.029  1.00  0.00    -0.308 N 
HETATM    6  C   UNL     1      40.953 -10.644   2.315  1.00  0.00     0.048 A 
HETATM    7  C   UNL     1      40.307 -11.843   2.607  1.00  0.00     0.035 A 
HETATM    8  C   UNL     1      41.047  -9.626   3.261  1.00  0.00     0.031 A 
HETATM    9  C   UNL     1      40.439  -9.794   4.507  1.00  0.00     0.021 A 
HETATM   10  C   UNL     1      39.751 -10.975   4.792  1.00  0.00     0.011 A 
HETATM   11 BR   UNL     1      38.915 -11.189   6.474  1.00  0.00    -0.051 Br
HETATM   12  C   UNL     1      39.687 -12.004   3.853  1.00  0.00     0.034 A 
HETATM   13  H   UNL     1      41.924  -9.607   0.777  1.00  0.00     0.170 HD
ENDROOT
BRANCH   1  14
HETATM   14  C   UNL     1      41.860 -13.627   1.625  1.00  0.00     0.279 C 
HETATM   15  N   UNL     1      41.908 -14.941   1.196  1.00  0.00    -0.352 N 
HETATM   16  H   UNL     1      41.095 -15.356   0.759  1.00  0.00     0.162 HD
HETATM   17  O   UNL     1      42.884 -13.025   1.955  1.00  0.00    -0.268 OA
BRANCH  15  18
HETATM   18  C   UNL     1      43.136 -15.703   1.188  1.00  0.00     0.161 C 
BRANCH  18  19
HETATM   19  C   UNL     1      43.246 -16.572   2.415  1.00  0.00    -0.040 A 
HETATM   20  C   UNL     1      43.406 -17.959   2.300  1.00  0.00     0.011 A 
HETATM   21  C   UNL     1      43.557 -18.749   3.442  1.00  0.00     0.037 A 
HETATM   22  C   UNL     1      43.562 -18.174   4.715  1.00  0.00     0.068 A 
HETATM   23  C   UNL     1      43.392 -16.796   4.839  1.00  0.00     0.037 A 
HETATM   24  C   UNL     1      43.241 -16.001   3.697  1.00  0.00     0.011 A 
BRANCH  22  25
HETATM   25  O   UNL     1      43.737 -19.059   5.743  1.00  0.00    -0.356 OA
HETATM   26  C   UNL     1      44.056 -20.399   5.387  1.00  0.00     0.210 C 
ENDBRANCH  22  25
ENDBRANCH  18  19
ENDBRANCH  15  18
ENDBRANCH   1  14
BRANCH   1  27
HETATM   27  O   UNL     1      39.483 -13.958   1.830  1.00  0.00    -0.359 OA
HETATM   28  H   UNL     1      40.013 -14.777   1.823  1.00  0.00     0.213 HD
ENDBRANCH   1  27
BRANCH   2  29
HETATM   29  C   UNL     1      39.529 -12.987  -0.816  1.00  0.00     0.042 A 
HETATM   30  C   UNL     1      40.086 -14.035  -1.559  1.00  0.00     0.030 A 
HETATM   31  C   UNL     1      39.372 -14.634  -2.601  1.00  0.00     0.002 A 
HETATM   32  C   UNL     1      38.094 -14.184  -2.923  1.00  0.00     0.000 A 
HETATM   33  C   UNL     1      37.531 -13.133  -2.205  1.00  0.00     0.002 A 
HETATM   34  C   UNL     1      38.246 -12.537  -1.163  1.00  0.00     0.030 A 
ENDBRANCH   2  29
TORSDOF 6
ENDMDL
MODEL 4
REMARK VINA RESULT:      -8.5      3.303      6.859
REMARK  6 active torsions:
REMARK  status: ('A' for Active; 'I' for Inactive)
REMARK    1  A    between atoms: O_2  and  C_3 
REMARK    2  A    between atoms: C_6  and  C_7 
REMARK    3  A    between atoms: C_7  and  N_8 
REMARK       I    between atoms: N_8  and  C_9 
REMARK    4  A    between atoms: C_9  and  C_10 
REMARK    5  A    between atoms: C_10  and  O_11 
REMARK    6  A    between atoms: N_12  and  C_13 
ROOT
HETATM    1  C   UNL     1      41.589 -12.402   2.723  1.00  0.00     0.256 C 
HETATM    2  N   UNL     1      41.344 -12.537   4.162  1.00  0.00    -0.254 N 
HETATM    3  C   UNL     1      40.100 -13.064   4.529  1.00  0.00     0.330 C 
HETATM    4  O   UNL     1      39.806 -13.563   5.614  1.00  0.00    -0.246 OA
HETATM    5  N   UNL     1      39.078 -12.890   3.616  1.00  0.00    -0.308 N 
HETATM    6  C   UNL     1      39.165 -12.049   2.507  1.00  0.00     0.048 A 
HETATM    7  C   UNL     1      40.434 -11.672   2.072  1.00  0.00     0.035 A 
HETATM    8  C   UNL     1      38.015 -11.566   1.887  1.00  0.00     0.031 A 
HETATM    9  C   UNL     1      38.139 -10.649   0.842  1.00  0.00     0.021 A 
HETATM   10  C   UNL     1      39.405 -10.231   0.428  1.00  0.00     0.011 A 
HETATM   11 BR   UNL     1      39.565  -8.975  -0.975  1.00  0.00    -0.051 Br
HETATM   12  C   UNL     1      40.554 -10.742   1.032  1.00  0.00     0.034 A 
HETATM   13  H   UNL     1      38.172 -13.172   3.970  1.00  0.00     0.170 HD
ENDROOT
BRANCH   1  14
HETATM   14  C   UNL     1      41.762 -13.861   2.095  1.00  0.00     0.279 C 
HETATM   15  N   UNL     1      43.043 -14.382   2.120  1.00  0.00    -0.352 N 
HETATM   16  H   UNL     1      43.773 -13.891   2.621  1.00  0.00     0.162 HD
HETATM   17  O   UNL     1      40.809 -14.530   1.689  1.00  0.00    -0.268 OA
BRANCH  15  18
HETATM   18  C   UNL     1      43.350 -15.697   1.605  1.00  0.00     0.161 C 
BRANCH  18  19
HETATM   19  C   UNL     1      43.455 -16.708   2.718  1.00  0.00    -0.040 A 
HETATM   20  C   UNL     1      43.533 -18.078   2.438  1.00  0.00     0.011 A 
HETATM   21  C   UNL     1      43.681 -19.003   3.474  1.00  0.00     0.037 A 
HETATM   22  C   UNL     1      43.762 -18.582   4.803  1.00  0.00     0.068 A 
HETATM   23  C   UNL     1      43.674 -17.221   5.092  1.00  0.00     0.037 A 
HETATM   24  C   UNL     1      43.527 -16.291   4.056  1.00  0.00     0.011 A 
BRANCH  22  25
HETATM   25  O   UNL     1      43.924 -19.589   5.715  1.00  0.00    -0.356 OA
HETATM   26  C   UNL     1      43.952 -20.916   5.204  1.00  0.00     0.210 C 
ENDBRANCH  22  25
ENDBRANCH  18  19
ENDBRANCH  15  18
ENDBRANCH   1  14
BRANCH   1  27
HETATM   27  O   UNL     1      42.807 -11.716   2.421  1.00  0.00    -0.359 OA
HETATM   28  H   UNL     1      42.626 -10.787   2.659  1.00  0.00     0.213 HD
ENDBRANCH   1  27
BRANCH   2  29
HETATM   29  C   UNL     1      42.381 -12.375   5.128  1.00  0.00     0.042 A 
HETATM   30  C   UNL     1      43.135 -13.464   5.585  1.00  0.00     0.030 A 
HETATM   31  C   UNL     1      44.115 -13.296   6.567  1.00  0.00     0.002 A 
HETATM   32  C   UNL     1      44.348 -12.038   7.116  1.00  0.00     0.000 A 
HETATM   33  C   UNL     1      43.598 -10.948   6.686  1.00  0.00     0.002 A 
HETATM   34  C   UNL     1      42.619 -11.117   5.703  1.00  0.00     0.030 A 
ENDBRANCH   2  29
TORSDOF 6
ENDMDL
MODEL 5
REMARK VINA RESULT:      -8.3      3.212      6.172
REMARK  6 active torsions:
REMARK  status: ('A' for Active; 'I' for Inactive)
REMARK    1  A    between atoms: O_2  and  C_3 
REMARK    2  A    between atoms: C_6  and  C_7 
REMARK    3  A    between atoms: C_7  and  N_8 
REMARK       I    between atoms: N_8  and  C_9 
REMARK    4  A    between atoms: C_9  and  C_10 
REMARK    5  A    between atoms: C_10  and  O_11 
REMARK    6  A    between atoms: N_12  and  C_13 
ROOT
HETATM    1  C   UNL     1      42.703 -13.751   5.195  1.00  0.00     0.256 C 
HETATM    2  N   UNL     1      43.413 -12.497   4.923  1.00  0.00    -0.254 N 
HETATM    3  C   UNL     1      43.302 -11.996   3.622  1.00  0.00     0.330 C 
HETATM    4  O   UNL     1      43.520 -10.840   3.259  1.00  0.00    -0.246 OA
HETATM    5  N   UNL     1      43.040 -12.927   2.636  1.00  0.00    -0.308 N 
HETATM    6  C   UNL     1      43.112 -14.306   2.835  1.00  0.00     0.048 A 
HETATM    7  C   UNL     1      43.059 -14.780   4.144  1.00  0.00     0.035 A 
HETATM    8  C   UNL     1      43.280 -15.173   1.758  1.00  0.00     0.031 A 
HETATM    9  C   UNL     1      43.447 -16.538   2.002  1.00  0.00     0.021 A 
HETATM   10  C   UNL     1      43.440 -17.017   3.314  1.00  0.00     0.011 A 
HETATM   11 BR   UNL     1      43.685 -18.862   3.638  1.00  0.00    -0.051 Br
HETATM   12  C   UNL     1      43.240 -16.148   4.386  1.00  0.00     0.034 A 
HETATM   13  H   UNL     1      43.091 -12.546   1.699  1.00  0.00     0.170 HD
ENDROOT
BRANCH   1  14
HETATM   14  C   UNL     1      41.132 -13.460   5.193  1.00  0.00     0.279 C 
HETATM   15  N   UNL     1      40.662 -12.673   6.229  1.00  0.00    -0.352 N 
HETATM   16  H   UNL     1      41.319 -12.230   6.859  1.00  0.00     0.162 HD
HETATM   17  O   UNL     1      40.386 -13.831   4.284  1.00  0.00    -0.268 OA
BRANCH  15  18
HETATM   18  C   UNL     1      39.268 -12.311   6.349  1.00  0.00     0.161 C 
BRANCH  18  19
HETATM   19  C   UNL     1      39.095 -10.813   6.378  1.00  0.00    -0.040 A 
HETATM   20  C   UNL     1      39.593 -10.054   7.445  1.00  0.00     0.011 A 
HETATM   21  C   UNL     1      39.472  -8.662   7.437  1.00  0.00     0.037 A 
HETATM   22  C   UNL     1      38.864  -8.002   6.367  1.00  0.00     0.068 A 
HETATM   23  C   UNL     1      38.356  -8.751   5.307  1.00  0.00     0.037 A 
HETATM   24  C   UNL     1      38.476 -10.145   5.310  1.00  0.00     0.011 A 
BRANCH  22  25
HETATM   25  O   UNL     1      38.829  -6.640   6.479  1.00  0.00    -0.356 OA
HETATM   26  C   UNL     1      38.100  -6.107   7.579  1.00  0.00     0.210 C 
ENDBRANCH  22  25
ENDBRANCH  18  19
ENDBRANCH  15  18
ENDBRANCH   1  14
BRANCH   1  27
HETATM   27  O   UNL     1      42.985 -14.288   6.490  1.00  0.00    -0.359 OA
HETATM   28  H   UNL     1      42.134 -14.663   6.786  1.00  0.00     0.213 HD
ENDBRANCH   1  27
BRANCH   2  29
HETATM   29  C   UNL     1      43.981 -11.704   5.965  1.00  0.00     0.042 A 
HETATM   30  C   UNL     1      43.210 -10.793   6.696  1.00  0.00     0.030 A 
HETATM   31  C   UNL     1      43.791  -9.988   7.681  1.00  0.00     0.002 A 
HETATM   32  C   UNL     1      45.157 -10.076   7.940  1.00  0.00     0.000 A 
HETATM   33  C   UNL     1      45.941 -10.965   7.211  1.00  0.00     0.002 A 
HETATM   34  C   UNL     1      45.358 -11.769   6.228  1.00  0.00     0.030 A 
ENDBRANCH   2  29
TORSDOF 6
ENDMDL
MODEL 6
REMARK VINA RESULT:      -8.1      3.551      6.469
REMARK  6 active torsions:
REMARK  status: ('A' for Active; 'I' for Inactive)
REMARK    1  A    between atoms: O_2  and  C_3 
REMARK    2  A    between atoms: C_6  and  C_7 
REMARK    3  A    between atoms: C_7  and  N_8 
REMARK       I    between atoms: N_8  and  C_9 
REMARK    4  A    between atoms: C_9  and  C_10 
REMARK    5  A    between atoms: C_10  and  O_11 
REMARK    6  A    between atoms: N_12  and  C_13 
ROOT
HETATM    1  C   UNL     1      41.792 -11.365   6.023  1.00  0.00     0.256 C 
HETATM    2  N   UNL     1      41.735 -11.004   4.604  1.00  0.00    -0.254 N 
HETATM    3  C   UNL     1      42.733 -11.550   3.788  1.00  0.00     0.330 C 
HETATM    4  O   UNL     1      42.701 -11.660   2.563  1.00  0.00    -0.246 OA
HETATM    5  N   UNL     1      43.915 -11.882   4.421  1.00  0.00    -0.308 N 
HETATM    6  C   UNL     1      44.229 -11.500   5.724  1.00  0.00     0.048 A 
HETATM    7  C   UNL     1      43.185 -11.113   6.561  1.00  0.00     0.035 A 
HETATM    8  C   UNL     1      45.553 -11.462   6.156  1.00  0.00     0.031 A 
HETATM    9  C   UNL     1      45.839 -10.980   7.435  1.00  0.00     0.021 A 
HETATM   10  C   UNL     1      44.802 -10.548   8.264  1.00  0.00     0.011 A 
HETATM   11 BR   UNL     1      45.197  -9.880   9.988  1.00  0.00    -0.051 Br
HETATM   12  C   UNL     1      43.476 -10.618   7.839  1.00  0.00     0.034 A 
HETATM   13  H   UNL     1      44.650 -12.155   3.780  1.00  0.00     0.170 HD
ENDROOT
BRANCH   1  14
HETATM   14  C   UNL     1      41.398 -12.906   6.176  1.00  0.00     0.279 C 
HETATM   15  N   UNL     1      42.354 -13.720   6.758  1.00  0.00    -0.352 N 
HETATM   16  H   UNL     1      43.188 -13.306   7.157  1.00  0.00     0.162 HD
HETATM   17  O   UNL     1      40.284 -13.343   5.880  1.00  0.00    -0.268 OA
BRANCH  15  18
HETATM   18  C   UNL     1      42.134 -15.131   6.977  1.00  0.00     0.161 C 
BRANCH  18  19
HETATM   19  C   UNL     1      42.679 -15.951   5.836  1.00  0.00    -0.040 A 
HETATM   20  C   UNL     1      43.873 -16.670   5.974  1.00  0.00     0.011 A 
HETATM   21  C   UNL     1      44.343 -17.467   4.927  1.00  0.00     0.037 A 
HETATM   22  C   UNL     1      43.630 -17.570   3.731  1.00  0.00     0.068 A 
HETATM   23  C   UNL     1      42.447 -16.849   3.580  1.00  0.00     0.037 A 
HETATM   24  C   UNL     1      41.972 -16.051   4.627  1.00  0.00     0.011 A 
BRANCH  22  25
HETATM   25  O   UNL     1      44.192 -18.398   2.798  1.00  0.00    -0.356 OA
HETATM   26  C   UNL     1      43.420 -19.521   2.391  1.00  0.00     0.210 C 
ENDBRANCH  22  25
ENDBRANCH  18  19
ENDBRANCH  15  18
ENDBRANCH   1  14
BRANCH   1  27
HETATM   27  O   UNL     1      40.845 -10.654   6.824  1.00  0.00    -0.359 OA
HETATM   28  H   UNL     1      40.964 -11.019   7.721  1.00  0.00     0.213 HD
ENDBRANCH   1  27
BRANCH   2  29
HETATM   29  C   UNL     1      40.607 -10.342   4.033  1.00  0.00     0.042 A 
HETATM   30  C   UNL     1      39.503 -11.056   3.551  1.00  0.00     0.030 A 
HETATM   31  C   UNL     1      38.427 -10.395   2.951  1.00  0.00     0.002 A 
HETATM   32  C   UNL     1      38.446  -9.009   2.813  1.00  0.00     0.000 A 
HETATM   33  C   UNL     1      39.542  -8.285   3.272  1.00  0.00     0.002 A 
HETATM   34  C   UNL     1      40.616  -8.948   3.873  1.00  0.00     0.030 A 
ENDBRANCH   2  29
TORSDOF 6
ENDMDL
MODEL 7
REMARK VINA RESULT:      -8.0      4.875      9.885
REMARK  6 active torsions:
REMARK  status: ('A' for Active; 'I' for Inactive)
REMARK    1  A    between atoms: O_2  and  C_3 
REMARK    2  A    between atoms: C_6  and  C_7 
REMARK    3  A    between atoms: C_7  and  N_8 
REMARK       I    between atoms: N_8  and  C_9 
REMARK    4  A    between atoms: C_9  and  C_10 
REMARK    5  A    between atoms: C_10  and  O_11 
REMARK    6  A    between atoms: N_12  and  C_13 
ROOT
HETATM    1  C   UNL     1      42.542  -8.669   9.954  1.00  0.00     0.256 C 
HETATM    2  N   UNL     1      43.518  -9.758  10.050  1.00  0.00    -0.254 N 
HETATM    3  C   UNL     1      43.490 -10.509  11.231  1.00  0.00     0.330 C 
HETATM    4  O   UNL     1      43.962 -11.632  11.398  1.00  0.00    -0.246 OA
HETATM    5  N   UNL     1      42.988  -9.864  12.345  1.00  0.00    -0.308 N 
HETATM    6  C   UNL     1      42.740  -8.492  12.398  1.00  0.00     0.048 A 
HETATM    7  C   UNL     1      42.615  -7.804  11.194  1.00  0.00     0.035 A 
HETATM    8  C   UNL     1      42.668  -7.828  13.621  1.00  0.00     0.031 A 
HETATM    9  C   UNL     1      42.517  -6.440  13.634  1.00  0.00     0.021 A 
HETATM   10  C   UNL     1      42.435  -5.737  12.431  1.00  0.00     0.011 A 
HETATM   11 BR   UNL     1      42.250  -3.856  12.457  1.00  0.00    -0.051 Br
HETATM   12  C   UNL     1      42.476  -6.410  11.210  1.00  0.00     0.034 A 
HETATM   13  H   UNL     1      43.100 -10.393  13.200  1.00  0.00     0.170 HD
ENDROOT
BRANCH   1  14
HETATM   14  C   UNL     1      41.083  -9.302   9.791  1.00  0.00     0.279 C 
HETATM   15  N   UNL     1      40.668  -9.537   8.493  1.00  0.00    -0.352 N 
HETATM   16  H   UNL     1      41.321  -9.415   7.729  1.00  0.00     0.162 HD
HETATM   17  O   UNL     1      40.395  -9.647  10.754  1.00  0.00    -0.268 OA
BRANCH  15  18
HETATM   18  C   UNL     1      39.381 -10.121   8.190  1.00  0.00     0.161 C 
BRANCH  18  19
HETATM   19  C   UNL     1      39.317 -10.581   6.755  1.00  0.00    -0.040 A 
HETATM   20  C   UNL     1      39.678 -11.887   6.404  1.00  0.00     0.011 A 
HETATM   21  C   UNL     1      39.567 -12.319   5.080  1.00  0.00     0.037 A 
HETATM   22  C   UNL     1      39.085 -11.464   4.086  1.00  0.00     0.068 A 
HETATM   23  C   UNL     1      38.733 -10.158   4.426  1.00  0.00     0.037 A 
HETATM   24  C   UNL     1      38.843  -9.723   5.751  1.00  0.00     0.011 A 
BRANCH  22  25
HETATM   25  O   UNL     1      39.009 -12.019   2.839  1.00  0.00    -0.356 OA
HETATM   26  C   UNL     1      39.683 -13.257   2.648  1.00  0.00     0.210 C 
ENDBRANCH  22  25
ENDBRANCH  18  19
ENDBRANCH  15  18
ENDBRANCH   1  14
BRANCH   1  27
HETATM   27  O   UNL     1      42.726  -7.848   8.798  1.00  0.00    -0.359 OA
HETATM   28  H   UNL     1      41.927  -8.004   8.260  1.00  0.00     0.213 HD
ENDBRANCH   1  27
BRANCH   2  29
HETATM   29  C   UNL     1      44.286 -10.192   8.929  1.00  0.00     0.042 A 
HETATM   30  C   UNL     1      43.762 -11.077   7.978  1.00  0.00     0.030 A 
HETATM   31  C   UNL     1      44.544 -11.530   6.911  1.00  0.00     0.002 A 
HETATM   32  C   UNL     1      45.867 -11.113   6.786  1.00  0.00     0.000 A 
HETATM   33  C   UNL     1      46.409 -10.246   7.730  1.00  0.00     0.002 A 
HETATM   34  C   UNL     1      45.625  -9.794   8.795  1.00  0.00     0.030 A 
ENDBRANCH   2  29
TORSDOF 6
ENDMDL
MODEL 8
REMARK VINA RESULT:      -8.0      3.107      7.277
REMARK  6 active torsions:
REMARK  status: ('A' for Active; 'I' for Inactive)
REMARK    1  A    between atoms: O_2  and  C_3 
REMARK    2  A    between atoms: C_6  and  C_7 
REMARK    3  A    between atoms: C_7  and  N_8 
REMARK       I    between atoms: N_8  and  C_9 
REMARK    4  A    between atoms: C_9  and  C_10 
REMARK    5  A    between atoms: C_10  and  O_11 
REMARK    6  A    between atoms: N_12  and  C_13 
ROOT
HETATM    1  C   UNL     1      41.587 -14.105   3.689  1.00  0.00     0.256 C 
HETATM    2  N   UNL     1      41.608 -15.365   4.437  1.00  0.00    -0.254 N 
HETATM    3  C   UNL     1      40.498 -15.618   5.251  1.00  0.00     0.330 C 
HETATM    4  O   UNL     1      40.147 -16.710   5.695  1.00  0.00    -0.246 OA
HETATM    5  N   UNL     1      39.808 -14.506   5.693  1.00  0.00    -0.308 N 
HETATM    6  C   UNL     1      40.281 -13.200   5.565  1.00  0.00     0.048 A 
HETATM    7  C   UNL     1      41.281 -12.957   4.626  1.00  0.00     0.035 A 
HETATM    8  C   UNL     1      39.799 -12.184   6.387  1.00  0.00     0.031 A 
HETATM    9  C   UNL     1      40.366 -10.911   6.299  1.00  0.00     0.021 A 
HETATM   10  C   UNL     1      41.398 -10.669   5.392  1.00  0.00     0.011 A 
HETATM   11 BR   UNL     1      42.173  -8.948   5.292  1.00  0.00    -0.051 Br
HETATM   12  C   UNL     1      41.856 -11.682   4.549  1.00  0.00     0.034 A 
HETATM   13  H   UNL     1      39.093 -14.722   6.376  1.00  0.00     0.170 HD
ENDROOT
BRANCH   1  14
HETATM   14  C   UNL     1      40.478 -14.210   2.542  1.00  0.00     0.279 C 
HETATM   15  N   UNL     1      40.889 -14.787   1.354  1.00  0.00    -0.352 N 
HETATM   16  H   UNL     1      41.806 -15.212   1.296  1.00  0.00     0.162 HD
HETATM   17  O   UNL     1      39.302 -13.883   2.719  1.00  0.00    -0.268 OA
BRANCH  15  18
HETATM   18  C   UNL     1      39.994 -14.965   0.234  1.00  0.00     0.161 C 
BRANCH  18  19
HETATM   19  C   UNL     1      40.198 -13.889  -0.802  1.00  0.00    -0.040 A 
HETATM   20  C   UNL     1      40.794 -12.669  -0.461  1.00  0.00     0.011 A 
HETATM   21  C   UNL     1      41.025 -11.698  -1.439  1.00  0.00     0.037 A 
HETATM   22  C   UNL     1      40.676 -11.927  -2.771  1.00  0.00     0.068 A 
HETATM   23  C   UNL     1      40.072 -13.135  -3.118  1.00  0.00     0.037 A 
HETATM   24  C   UNL     1      39.840 -14.110  -2.141  1.00  0.00     0.011 A 
BRANCH  22  25
HETATM   25  O   UNL     1      40.974 -10.902  -3.626  1.00  0.00    -0.356 OA
HETATM   26  C   UNL     1      40.369  -9.644  -3.352  1.00  0.00     0.210 C 
ENDBRANCH  22  25
ENDBRANCH  18  19
ENDBRANCH  15  18
ENDBRANCH   1  14
BRANCH   1  27
HETATM   27  O   UNL     1      42.812 -13.836   3.003  1.00  0.00    -0.359 OA
HETATM   28  H   UNL     1      42.550 -13.737   2.068  1.00  0.00     0.213 HD
ENDBRANCH   1  27
BRANCH   2  29
HETATM   29  C   UNL     1      42.571 -16.387   4.178  1.00  0.00     0.042 A 
HETATM   30  C   UNL     1      42.484 -17.207   3.046  1.00  0.00     0.030 A 
HETATM   31  C   UNL     1      43.408 -18.234   2.832  1.00  0.00     0.002 A 
HETATM   32  C   UNL     1      44.425 -18.464   3.754  1.00  0.00     0.000 A 
HETATM   33  C   UNL     1      44.517 -17.669   4.893  1.00  0.00     0.002 A 
HETATM   34  C   UNL     1      43.593 -16.642   5.104  1.00  0.00     0.030 A 
ENDBRANCH   2  29
TORSDOF 6
ENDMDL
MODEL 9
REMARK VINA RESULT:      -8.0      3.310      5.391
REMARK  6 active torsions:
REMARK  status: ('A' for Active; 'I' for Inactive)
REMARK    1  A    between atoms: O_2  and  C_3 
REMARK    2  A    between atoms: C_6  and  C_7 
REMARK    3  A    between atoms: C_7  and  N_8 
REMARK       I    between atoms: N_8  and  C_9 
REMARK    4  A    between atoms: C_9  and  C_10 
REMARK    5  A    between atoms: C_10  and  O_11 
REMARK    6  A    between atoms: N_12  and  C_13 
ROOT
HETATM    1  C   UNL     1      39.279 -12.121   1.604  1.00  0.00     0.256 C 
HETATM    2  N   UNL     1      39.548 -11.326   0.402  1.00  0.00    -0.254 N 
HETATM    3  C   UNL     1      40.886 -10.989   0.172  1.00  0.00     0.330 C 
HETATM    4  O   UNL     1      41.380 -10.631  -0.896  1.00  0.00    -0.246 OA
HETATM    5  N   UNL     1      41.697 -10.938   1.290  1.00  0.00    -0.308 N 
HETATM    6  C   UNL     1      41.214 -10.974   2.598  1.00  0.00     0.048 A 
HETATM    7  C   UNL     1      39.929 -11.469   2.806  1.00  0.00     0.035 A 
HETATM    8  C   UNL     1      41.980 -10.486   3.654  1.00  0.00     0.031 A 
HETATM    9  C   UNL     1      41.427 -10.447   4.936  1.00  0.00     0.021 A 
HETATM   10  C   UNL     1      40.124 -10.899   5.146  1.00  0.00     0.011 A 
HETATM   11 BR   UNL     1      39.375 -10.827   6.880  1.00  0.00    -0.051 Br
HETATM   12  C   UNL     1      39.372 -11.416   4.091  1.00  0.00     0.034 A 
HETATM   13  H   UNL     1      42.621 -10.571   1.100  1.00  0.00     0.170 HD
ENDROOT
BRANCH   1  14
HETATM   14  C   UNL     1      39.855 -13.595   1.382  1.00  0.00     0.279 C 
HETATM   15  N   UNL     1      39.338 -14.577   2.209  1.00  0.00    -0.352 N 
HETATM   16  H   UNL     1      38.561 -14.358   2.820  1.00  0.00     0.162 HD
HETATM   17  O   UNL     1      40.644 -13.874   0.477  1.00  0.00    -0.268 OA
BRANCH  15  18
HETATM   18  C   UNL     1      39.749 -15.959   2.114  1.00  0.00     0.161 C 
BRANCH  18  19
HETATM   19  C   UNL     1      40.961 -16.227   2.969  1.00  0.00    -0.040 A 
HETATM   20  C   UNL     1      42.141 -16.727   2.405  1.00  0.00     0.011 A 
HETATM   21  C   UNL     1      43.274 -16.924   3.198  1.00  0.00     0.037 A 
HETATM   22  C   UNL     1      43.257 -16.618   4.560  1.00  0.00     0.068 A 
HETATM   23  C   UNL     1      42.083 -16.130   5.132  1.00  0.00     0.037 A 
HETATM   24  C   UNL     1      40.946 -15.931   4.341  1.00  0.00     0.011 A 
BRANCH  22  25
HETATM   25  O   UNL     1      44.437 -16.841   5.214  1.00  0.00    -0.356 OA
HETATM   26  C   UNL     1      44.512 -16.407   6.566  1.00  0.00     0.210 C 
ENDBRANCH  22  25
ENDBRANCH  18  19
ENDBRANCH  15  18
ENDBRANCH   1  14
BRANCH   1  27
HETATM   27  O   UNL     1      37.884 -12.297   1.863  1.00  0.00    -0.359 OA
HETATM   28  H   UNL     1      37.553 -11.394   2.029  1.00  0.00     0.213 HD
ENDBRANCH   1  27
BRANCH   2  29
HETATM   29  C   UNL     1      38.558 -11.110  -0.603  1.00  0.00     0.042 A 
HETATM   30  C   UNL     1      38.267 -12.083  -1.567  1.00  0.00     0.030 A 
HETATM   31  C   UNL     1      37.329 -11.838  -2.574  1.00  0.00     0.002 A 
HETATM   32  C   UNL     1      36.677 -10.610  -2.639  1.00  0.00     0.000 A 
HETATM   33  C   UNL     1      36.964  -9.625  -1.698  1.00  0.00     0.002 A 
HETATM   34  C   UNL     1      37.902  -9.873  -0.691  1.00  0.00     0.030 A 
ENDBRANCH   2  29
TORSDOF 6
ENDMDL
MODEL 10
REMARK VINA RESULT:      -8.0      2.545      5.265
REMARK  6 active torsions:
REMARK  status: ('A' for Active; 'I' for Inactive)
REMARK    1  A    between atoms: O_2  and  C_3 
REMARK    2  A    between atoms: C_6  and  C_7 
REMARK    3  A    between atoms: C_7  and  N_8 
REMARK       I    between atoms: N_8  and  C_9 
REMARK    4  A    between atoms: C_9  and  C_10 
REMARK    5  A    between atoms: C_10  and  O_11 
REMARK    6  A    between atoms: N_12  and  C_13 
ROOT
HETATM    1  C   UNL     1      40.398 -14.642   1.680  1.00  0.00     0.256 C 
HETATM    2  N   UNL     1      41.802 -14.688   2.098  1.00  0.00    -0.254 N 
HETATM    3  C   UNL     1      42.517 -13.490   1.990  1.00  0.00     0.330 C 
HETATM    4  O   UNL     1      43.566 -13.207   2.567  1.00  0.00    -0.246 OA
HETATM    5  N   UNL     1      42.055 -12.594   1.045  1.00  0.00    -0.308 N 
HETATM    6  C   UNL     1      41.100 -12.911   0.080  1.00  0.00     0.048 A 
HETATM    7  C   UNL     1      40.294 -14.026   0.301  1.00  0.00     0.035 A 
HETATM    8  C   UNL     1      40.992 -12.162  -1.089  1.00  0.00     0.031 A 
HETATM    9  C   UNL     1      40.092 -12.567  -2.077  1.00  0.00     0.021 A 
HETATM   10  C   UNL     1      39.312 -13.708  -1.883  1.00  0.00     0.011 A 
HETATM   11 BR   UNL     1      38.109 -14.260  -3.233  1.00  0.00    -0.051 Br
HETATM   12  C   UNL     1      39.401 -14.437  -0.698  1.00  0.00     0.034 A 
HETATM   13  H   UNL     1      42.669 -11.800   0.911  1.00  0.00     0.170 HD
ENDROOT
BRANCH   1  14
HETATM   14  C   UNL     1      39.574 -13.783   2.746  1.00  0.00     0.279 C 
HETATM   15  N   UNL     1      40.085 -13.765   4.032  1.00  0.00    -0.352 N 
HETATM   16  H   UNL     1      40.989 -14.182   4.217  1.00  0.00     0.162 HD
HETATM   17  O   UNL     1      38.593 -13.102   2.440  1.00  0.00    -0.268 OA
BRANCH  15  18
HETATM   18  C   UNL     1      39.459 -13.018   5.099  1.00  0.00     0.161 C 
BRANCH  18  19
HETATM   19  C   UNL     1      40.453 -12.120   5.791  1.00  0.00    -0.040 A 
HETATM   20  C   UNL     1      41.815 -12.443   5.815  1.00  0.00     0.011 A 
HETATM   21  C   UNL     1      42.735 -11.579   6.415  1.00  0.00     0.037 A 
HETATM   22  C   UNL     1      42.318 -10.378   6.992  1.00  0.00     0.068 A 
HETATM   23  C   UNL     1      40.962 -10.054   6.983  1.00  0.00     0.037 A 
HETATM   24  C   UNL     1      40.038 -10.917   6.382  1.00  0.00     0.011 A 
BRANCH  22  25
HETATM   25  O   UNL     1      43.322  -9.619   7.527  1.00  0.00    -0.356 OA
HETATM   26  C   UNL     1      44.595 -10.241   7.655  1.00  0.00     0.210 C 
ENDBRANCH  22  25
ENDBRANCH  18  19
ENDBRANCH  15  18
ENDBRANCH   1  14
BRANCH   1  27
HETATM   27  O   UNL     1      39.771 -15.927   1.667  1.00  0.00    -0.359 OA
HETATM   28  H   UNL     1      39.728 -16.184   2.608  1.00  0.00     0.213 HD
ENDBRANCH   1  27
BRANCH   2  29
HETATM   29  C   UNL     1      42.350 -15.804   2.798  1.00  0.00     0.042 A 
HETATM   30  C   UNL     1      42.331 -15.875   4.197  1.00  0.00     0.030 A 
HETATM   31  C   UNL     1      42.915 -16.952   4.869  1.00  0.00     0.002 A 
HETATM   32  C   UNL     1      43.538 -17.970   4.152  1.00  0.00     0.000 A 
HETATM   33  C   UNL     1      43.580 -17.909   2.762  1.00  0.00     0.002 A 
HETATM   34  C   UNL     1      42.994 -16.832   2.092  1.00  0.00     0.030 A 
ENDBRANCH   2  29
TORSDOF 6
ENDMDL
