MODEL 1
REMARK VINA RESULT:      -8.6      0.000      0.000
REMARK  8 active torsions:
REMARK  status: ('A' for Active; 'I' for Inactive)
REMARK    1  A    between atoms: C_3  and  N_4 
REMARK    2  A    between atoms: C_5  and  S_6 
REMARK    3  A    between atoms: S_6  and  C_7 
REMARK    4  A    between atoms: C_7  and  C_8 
REMARK       I    between atoms: C_8  and  N_9 
REMARK    5  A    between atoms: N_9  and  C_10 
REMARK    6  A    between atoms: C_10  and  C_11 
REMARK    7  A    between atoms: C_11  and  C_12 
REMARK    8  A    between atoms: C_22  and  N_23 
ROOT
HETATM    1  N   UNL     1      41.797 -11.903   5.244  1.00  0.00    -0.275 N 
HETATM    2  C   UNL     1      42.323 -11.681   3.944  1.00  0.00     0.177 A 
HETATM    3  N   UNL     1      42.216 -10.574   3.249  1.00  0.00    -0.204 NA
HETATM    4  C   UNL     1      41.577  -9.581   3.908  1.00  0.00     0.162 A 
HETATM    5  C   UNL     1      41.022  -9.584   5.158  1.00  0.00     0.081 A 
HETATM    6  C   UNL     1      41.107 -10.806   5.902  1.00  0.00     0.124 A 
HETATM    7  N   UNL     1      41.368  -8.323   3.428  1.00  0.00    -0.260 N 
HETATM    8  H   UNL     1      41.652  -7.948   2.529  1.00  0.00     0.191 HD
HETATM    9  N   UNL     1      40.703  -7.528   4.295  1.00  0.00    -0.177 NA
HETATM   10  C   UNL     1      40.494  -8.302   5.371  1.00  0.00     0.068 A 
HETATM   11  C   UNL     1      39.788  -7.741   6.546  1.00  0.00     0.073 C 
ENDROOT
BRANCH   2  12
HETATM   12  S   UNL     1      43.166 -13.003   3.110  1.00  0.00    -0.082 SA
BRANCH  12  13
HETATM   13  C   UNL     1      41.975 -13.388   1.803  1.00  0.00     0.185 C 
BRANCH  13  14
HETATM   14  C   UNL     1      40.754 -14.142   2.319  1.00  0.00     0.227 C 
HETATM   15  N   UNL     1      40.890 -15.498   2.505  1.00  0.00    -0.360 N 
HETATM   16  H   UNL     1      40.035 -15.958   2.803  1.00  0.00     0.162 HD
HETATM   17  O   UNL     1      39.679 -13.611   2.600  1.00  0.00    -0.273 OA
BRANCH  15  18
HETATM   18  C   UNL     1      42.041 -16.302   2.129  1.00  0.00     0.127 C 
BRANCH  18  19
HETATM   19  C   UNL     1      42.972 -16.608   3.303  1.00  0.00     0.058 C 
BRANCH  19  20
HETATM   20  C   UNL     1      43.334 -18.074   3.328  1.00  0.00    -0.057 A 
HETATM   21  C   UNL     1      43.089 -18.888   2.215  1.00  0.00     0.007 A 
HETATM   22  C   UNL     1      43.380 -20.253   2.259  1.00  0.00     0.001 A 
HETATM   23  C   UNL     1      43.913 -20.817   3.416  1.00  0.00     0.000 A 
HETATM   24  C   UNL     1      44.161 -20.017   4.529  1.00  0.00     0.001 A 
HETATM   25  C   UNL     1      43.874 -18.652   4.486  1.00  0.00     0.007 A 
ENDBRANCH  19  20
ENDBRANCH  18  19
ENDBRANCH  15  18
ENDBRANCH  13  14
ENDBRANCH  12  13
ENDBRANCH   2  12
BRANCH   1  26
HETATM   26  C   UNL     1      41.985 -13.144   5.925  1.00  0.00     0.051 A 
HETATM   27  C   UNL     1      43.172 -13.436   6.632  1.00  0.00    -0.035 A 
HETATM   28  C   UNL     1      44.276 -12.428   6.817  1.00  0.00     0.050 C 
HETATM   29  C   UNL     1      43.312 -14.693   7.241  1.00  0.00     0.011 A 
HETATM   30  C   UNL     1      42.316 -15.664   7.118  1.00  0.00     0.024 A 
HETATM   31  C   UNL     1      41.161 -15.379   6.400  1.00  0.00     0.036 A 
HETATM   32  C   UNL     1      40.988 -14.130   5.808  1.00  0.00     0.054 A 
HETATM   33 CL   UNL     1      39.946 -16.582   6.221  1.00  0.00    -0.084 Cl
ENDBRANCH   1  26
BRANCH   6  34
HETATM   34  N   UNL     1      40.563 -10.920   7.098  1.00  0.00    -0.384 N 
HETATM   35  H   UNL     1      39.840 -10.292   7.417  1.00  0.00     0.157 HD
HETATM   36  H   UNL     1      40.865 -11.659   7.719  1.00  0.00     0.157 HD
ENDBRANCH   6  34
TORSDOF 8
ENDMDL
MODEL 2
REMARK VINA RESULT:      -8.4      2.666      4.971
REMARK  8 active torsions:
REMARK  status: ('A' for Active; 'I' for Inactive)
REMARK    1  A    between atoms: C_3  and  N_4 
REMARK    2  A    between atoms: C_5  and  S_6 
REMARK    3  A    between atoms: S_6  and  C_7 
REMARK    4  A    between atoms: C_7  and  C_8 
REMARK       I    between atoms: C_8  and  N_9 
REMARK    5  A    between atoms: N_9  and  C_10 
REMARK    6  A    between atoms: C_10  and  C_11 
REMARK    7  A    between atoms: C_11  and  C_12 
REMARK    8  A    between atoms: C_22  and  N_23 
ROOT
HETATM    1  N   UNL     1      41.266 -12.904   3.877  1.00  0.00    -0.275 N 
HETATM    2  C   UNL     1      40.816 -14.212   4.198  1.00  0.00     0.177 A 
HETATM    3  N   UNL     1      40.292 -15.073   3.360  1.00  0.00    -0.204 NA
HETATM    4  C   UNL     1      40.249 -14.629   2.083  1.00  0.00     0.162 A 
HETATM    5  C   UNL     1      40.646 -13.425   1.569  1.00  0.00     0.081 A 
HETATM    6  C   UNL     1      41.185 -12.471   2.492  1.00  0.00     0.124 A 
HETATM    7  N   UNL     1      39.790 -15.340   1.016  1.00  0.00    -0.260 N 
HETATM    8  H   UNL     1      39.421 -16.285   1.013  1.00  0.00     0.191 HD
HETATM    9  N   UNL     1      39.861 -14.656  -0.147  1.00  0.00    -0.177 NA
HETATM   10  C   UNL     1      40.399 -13.473   0.188  1.00  0.00     0.068 A 
HETATM   11  C   UNL     1      40.639 -12.457  -0.862  1.00  0.00     0.073 C 
ENDROOT
BRANCH   2  12
HETATM   12  S   UNL     1      40.896 -14.769   5.883  1.00  0.00    -0.082 SA
BRANCH  12  13
HETATM   13  C   UNL     1      42.613 -15.336   5.968  1.00  0.00     0.185 C 
BRANCH  13  14
HETATM   14  C   UNL     1      43.034 -15.735   7.377  1.00  0.00     0.227 C 
HETATM   15  N   UNL     1      43.378 -17.052   7.578  1.00  0.00    -0.360 N 
HETATM   16  H   UNL     1      43.602 -17.274   8.542  1.00  0.00     0.162 HD
HETATM   17  O   UNL     1      43.108 -14.953   8.326  1.00  0.00    -0.273 OA
BRANCH  15  18
HETATM   18  C   UNL     1      43.249 -18.126   6.607  1.00  0.00     0.127 C 
BRANCH  18  19
HETATM   19  C   UNL     1      44.392 -18.165   5.594  1.00  0.00     0.058 C 
BRANCH  19  20
HETATM   20  C   UNL     1      43.967 -18.884   4.336  1.00  0.00    -0.057 A 
HETATM   21  C   UNL     1      44.138 -20.269   4.216  1.00  0.00     0.007 A 
HETATM   22  C   UNL     1      43.788 -20.925   3.033  1.00  0.00     0.001 A 
HETATM   23  C   UNL     1      43.271 -20.201   1.960  1.00  0.00     0.000 A 
HETATM   24  C   UNL     1      43.097 -18.824   2.069  1.00  0.00     0.001 A 
HETATM   25  C   UNL     1      43.442 -18.167   3.251  1.00  0.00     0.007 A 
ENDBRANCH  19  20
ENDBRANCH  18  19
ENDBRANCH  15  18
ENDBRANCH  13  14
ENDBRANCH  12  13
ENDBRANCH   2  12
BRANCH   1  26
HETATM   26  C   UNL     1      41.841 -12.047   4.864  1.00  0.00     0.051 A 
HETATM   27  C   UNL     1      41.063 -11.120   5.592  1.00  0.00    -0.035 A 
HETATM   28  C   UNL     1      39.565 -11.040   5.466  1.00  0.00     0.050 C 
HETATM   29  C   UNL     1      41.698 -10.274   6.516  1.00  0.00     0.011 A 
HETATM   30  C   UNL     1      43.083 -10.311   6.688  1.00  0.00     0.024 A 
HETATM   31  C   UNL     1      43.845 -11.209   5.950  1.00  0.00     0.036 A 
HETATM   32  C   UNL     1      43.235 -12.076   5.046  1.00  0.00     0.054 A 
HETATM   33 CL   UNL     1      45.554 -11.237   6.137  1.00  0.00    -0.084 Cl
ENDBRANCH   1  26
BRANCH   6  34
HETATM   34  N   UNL     1      41.554 -11.268   2.097  1.00  0.00    -0.384 N 
HETATM   35  H   UNL     1      42.206 -11.132   1.339  1.00  0.00     0.157 HD
HETATM   36  H   UNL     1      41.172 -10.451   2.555  1.00  0.00     0.157 HD
ENDBRANCH   6  34
TORSDOF 8
ENDMDL
MODEL 3
REMARK VINA RESULT:      -8.3      2.624      4.082
REMARK  8 active torsions:
REMARK  status: ('A' for Active; 'I' for Inactive)
REMARK    1  A    between atoms: C_3  and  N_4 
REMARK    2  A    between atoms: C_5  and  S_6 
REMARK    3  A    between atoms: S_6  and  C_7 
REMARK    4  A    between atoms: C_7  and  C_8 
REMARK       I    between atoms: C_8  and  N_9 
REMARK    5  A    between atoms: N_9  and  C_10 
REMARK    6  A    between atoms: C_10  and  C_11 
REMARK    7  A    between atoms: C_11  and  C_12 
REMARK    8  A    between atoms: C_22  and  N_23 
ROOT
HETATM    1  N   UNL     1      42.494 -10.657   5.764  1.00  0.00    -0.275 N 
HETATM    2  C   UNL     1      43.332 -11.072   4.696  1.00  0.00     0.177 A 
HETATM    3  N   UNL     1      44.630 -11.248   4.760  1.00  0.00    -0.204 NA
HETATM    4  C   UNL     1      45.145 -11.045   5.993  1.00  0.00     0.162 A 
HETATM    5  C   UNL     1      44.513 -10.667   7.147  1.00  0.00     0.081 A 
HETATM    6  C   UNL     1      43.101 -10.439   7.067  1.00  0.00     0.124 A 
HETATM    7  N   UNL     1      46.453 -11.199   6.337  1.00  0.00    -0.260 N 
HETATM    8  H   UNL     1      47.222 -11.483   5.739  1.00  0.00     0.191 HD
HETATM    9  N   UNL     1      46.695 -10.932   7.640  1.00  0.00    -0.177 NA
HETATM   10  C   UNL     1      45.495 -10.611   8.147  1.00  0.00     0.068 A 
HETATM   11  C   UNL     1      45.379 -10.265   9.583  1.00  0.00     0.073 C 
ENDROOT
BRANCH   2  12
HETATM   12  S   UNL     1      42.623 -11.340   3.090  1.00  0.00    -0.082 SA
BRANCH  12  13
HETATM   13  C   UNL     1      42.986 -13.097   2.852  1.00  0.00     0.185 C 
BRANCH  13  14
HETATM   14  C   UNL     1      41.774 -13.893   2.383  1.00  0.00     0.227 C 
HETATM   15  N   UNL     1      41.928 -15.254   2.260  1.00  0.00    -0.360 N 
HETATM   16  H   UNL     1      41.107 -15.729   1.898  1.00  0.00     0.162 HD
HETATM   17  O   UNL     1      40.673 -13.398   2.136  1.00  0.00    -0.273 OA
BRANCH  15  18
HETATM   18  C   UNL     1      43.174 -15.989   2.405  1.00  0.00     0.127 C 
BRANCH  18  19
HETATM   19  C   UNL     1      43.304 -16.697   3.753  1.00  0.00     0.058 C 
BRANCH  19  20
HETATM   20  C   UNL     1      43.536 -18.176   3.560  1.00  0.00    -0.057 A 
HETATM   21  C   UNL     1      43.203 -18.797   2.350  1.00  0.00     0.007 A 
HETATM   22  C   UNL     1      43.374 -20.174   2.190  1.00  0.00     0.001 A 
HETATM   23  C   UNL     1      43.873 -20.942   3.240  1.00  0.00     0.000 A 
HETATM   24  C   UNL     1      44.208 -20.335   4.448  1.00  0.00     0.001 A 
HETATM   25  C   UNL     1      44.041 -18.958   4.609  1.00  0.00     0.007 A 
ENDBRANCH  19  20
ENDBRANCH  18  19
ENDBRANCH  15  18
ENDBRANCH  13  14
ENDBRANCH  12  13
ENDBRANCH   2  12
BRANCH   1  26
HETATM   26  C   UNL     1      41.084 -10.512   5.596  1.00  0.00     0.051 A 
HETATM   27  C   UNL     1      40.209 -11.619   5.640  1.00  0.00    -0.035 A 
HETATM   28  C   UNL     1      40.675 -13.011   5.977  1.00  0.00     0.050 C 
HETATM   29  C   UNL     1      38.837 -11.414   5.421  1.00  0.00     0.011 A 
HETATM   30  C   UNL     1      38.341 -10.144   5.119  1.00  0.00     0.024 A 
HETATM   31  C   UNL     1      39.212  -9.063   5.053  1.00  0.00     0.036 A 
HETATM   32  C   UNL     1      40.573  -9.237   5.292  1.00  0.00     0.054 A 
HETATM   33 CL   UNL     1      38.610  -7.503   4.652  1.00  0.00    -0.084 Cl
ENDBRANCH   1  26
BRANCH   6  34
HETATM   34  N   UNL     1      42.412 -10.030   8.116  1.00  0.00    -0.384 N 
HETATM   35  H   UNL     1      42.865  -9.730   8.966  1.00  0.00     0.157 HD
HETATM   36  H   UNL     1      41.402 -10.005   8.074  1.00  0.00     0.157 HD
ENDBRANCH   6  34
TORSDOF 8
ENDMDL
MODEL 4
REMARK VINA RESULT:      -8.2      2.944      7.741
REMARK  8 active torsions:
REMARK  status: ('A' for Active; 'I' for Inactive)
REMARK    1  A    between atoms: C_3  and  N_4 
REMARK    2  A    between atoms: C_5  and  S_6 
REMARK    3  A    between atoms: S_6  and  C_7 
REMARK    4  A    between atoms: C_7  and  C_8 
REMARK       I    between atoms: C_8  and  N_9 
REMARK    5  A    between atoms: N_9  and  C_10 
REMARK    6  A    between atoms: C_10  and  C_11 
REMARK    7  A    between atoms: C_11  and  C_12 
REMARK    8  A    between atoms: C_22  and  N_23 
ROOT
HETATM    1  N   UNL     1      42.917 -16.719   4.146  1.00  0.00    -0.275 N 
HETATM    2  C   UNL     1      42.811 -16.744   2.730  1.00  0.00     0.177 A 
HETATM    3  N   UNL     1      43.089 -17.764   1.956  1.00  0.00    -0.204 NA
HETATM    4  C   UNL     1      43.459 -18.874   2.633  1.00  0.00     0.162 A 
HETATM    5  C   UNL     1      43.601 -19.062   3.981  1.00  0.00     0.081 A 
HETATM    6  C   UNL     1      43.332 -17.936   4.825  1.00  0.00     0.124 A 
HETATM    7  N   UNL     1      43.763 -20.077   2.071  1.00  0.00    -0.260 N 
HETATM    8  H   UNL     1      43.758 -20.319   1.086  1.00  0.00     0.191 HD
HETATM    9  N   UNL     1      44.100 -21.018   2.981  1.00  0.00    -0.177 NA
HETATM   10  C   UNL     1      43.993 -20.396   4.166  1.00  0.00     0.068 A 
HETATM   11  C   UNL     1      44.282 -21.145   5.410  1.00  0.00     0.073 C 
ENDROOT
BRANCH   2  12
HETATM   12  S   UNL     1      42.313 -15.271   1.871  1.00  0.00    -0.082 SA
BRANCH  12  13
HETATM   13  C   UNL     1      40.566 -15.636   1.566  1.00  0.00     0.185 C 
BRANCH  13  14
HETATM   14  C   UNL     1      39.904 -14.622   0.641  1.00  0.00     0.227 C 
HETATM   15  N   UNL     1      39.425 -13.469   1.219  1.00  0.00    -0.360 N 
HETATM   16  H   UNL     1      38.951 -12.851   0.568  1.00  0.00     0.162 HD
HETATM   17  O   UNL     1      39.797 -14.761  -0.578  1.00  0.00    -0.273 OA
BRANCH  15  18
HETATM   18  C   UNL     1      39.369 -13.185   2.643  1.00  0.00     0.127 C 
BRANCH  18  19
HETATM   19  C   UNL     1      38.901 -11.765   2.958  1.00  0.00     0.058 C 
BRANCH  19  20
HETATM   20  C   UNL     1      39.907 -11.051   3.828  1.00  0.00    -0.057 A 
HETATM   21  C   UNL     1      39.539 -10.561   5.087  1.00  0.00     0.007 A 
HETATM   22  C   UNL     1      40.459  -9.859   5.870  1.00  0.00     0.001 A 
HETATM   23  C   UNL     1      41.751  -9.636   5.398  1.00  0.00     0.000 A 
HETATM   24  C   UNL     1      42.128 -10.119   4.147  1.00  0.00     0.001 A 
HETATM   25  C   UNL     1      41.212 -10.824   3.365  1.00  0.00     0.007 A 
ENDBRANCH  19  20
ENDBRANCH  18  19
ENDBRANCH  15  18
ENDBRANCH  13  14
ENDBRANCH  12  13
ENDBRANCH   2  12
BRANCH   1  26
HETATM   26  C   UNL     1      42.570 -15.558   4.902  1.00  0.00     0.051 A 
HETATM   27  C   UNL     1      41.256 -15.335   5.367  1.00  0.00    -0.035 A 
HETATM   28  C   UNL     1      40.153 -16.346   5.201  1.00  0.00     0.050 C 
HETATM   29  C   UNL     1      40.971 -14.151   6.066  1.00  0.00     0.011 A 
HETATM   30  C   UNL     1      41.956 -13.181   6.264  1.00  0.00     0.024 A 
HETATM   31  C   UNL     1      43.242 -13.396   5.782  1.00  0.00     0.036 A 
HETATM   32  C   UNL     1      43.555 -14.575   5.108  1.00  0.00     0.054 A 
HETATM   33 CL   UNL     1      44.449 -12.192   5.999  1.00  0.00    -0.084 Cl
ENDBRANCH   1  26
BRANCH   6  34
HETATM   34  N   UNL     1      43.484 -18.007   6.133  1.00  0.00    -0.384 N 
HETATM   35  H   UNL     1      44.259 -18.496   6.554  1.00  0.00     0.157 HD
HETATM   36  H   UNL     1      42.813 -17.556   6.741  1.00  0.00     0.157 HD
ENDBRANCH   6  34
TORSDOF 8
ENDMDL
MODEL 5
REMARK VINA RESULT:      -8.0      2.579      4.509
REMARK  8 active torsions:
REMARK  status: ('A' for Active; 'I' for Inactive)
REMARK    1  A    between atoms: C_3  and  N_4 
REMARK    2  A    between atoms: C_5  and  S_6 
REMARK    3  A    between atoms: S_6  and  C_7 
REMARK    4  A    between atoms: C_7  and  C_8 
REMARK       I    between atoms: C_8  and  N_9 
REMARK    5  A    between atoms: N_9  and  C_10 
REMARK    6  A    between atoms: C_10  and  C_11 
REMARK    7  A    between atoms: C_11  and  C_12 
REMARK    8  A    between atoms: C_22  and  N_23 
ROOT
HETATM    1  N   UNL     1      41.245 -12.102   3.029  1.00  0.00    -0.275 N 
HETATM    2  C   UNL     1      40.987 -13.496   2.963  1.00  0.00     0.177 A 
HETATM    3  N   UNL     1      40.743 -14.183   1.874  1.00  0.00    -0.204 NA
HETATM    4  C   UNL     1      40.804 -13.445   0.742  1.00  0.00     0.162 A 
HETATM    5  C   UNL     1      41.057 -12.110   0.589  1.00  0.00     0.081 A 
HETATM    6  C   UNL     1      41.287 -11.352   1.783  1.00  0.00     0.124 A 
HETATM    7  N   UNL     1      40.629 -13.923  -0.521  1.00  0.00    -0.260 N 
HETATM    8  H   UNL     1      40.433 -14.878  -0.801  1.00  0.00     0.191 HD
HETATM    9  N   UNL     1      40.745 -12.968  -1.470  1.00  0.00    -0.177 NA
HETATM   10  C   UNL     1      41.019 -11.845  -0.788  1.00  0.00     0.068 A 
HETATM   11  C   UNL     1      41.225 -10.576  -1.524  1.00  0.00     0.073 C 
ENDROOT
BRANCH   2  12
HETATM   12  S   UNL     1      40.923 -14.439   4.467  1.00  0.00    -0.082 SA
BRANCH  12  13
HETATM   13  C   UNL     1      42.661 -14.911   4.641  1.00  0.00     0.185 C 
BRANCH  13  14
HETATM   14  C   UNL     1      43.152 -14.838   6.083  1.00  0.00     0.227 C 
HETATM   15  N   UNL     1      44.120 -15.739   6.460  1.00  0.00    -0.360 N 
HETATM   16  H   UNL     1      44.375 -15.680   7.441  1.00  0.00     0.162 HD
HETATM   17  O   UNL     1      42.756 -14.014   6.909  1.00  0.00    -0.273 OA
BRANCH  15  18
HETATM   18  C   UNL     1      44.622 -16.841   5.656  1.00  0.00     0.127 C 
BRANCH  18  19
HETATM   19  C   UNL     1      43.803 -18.122   5.810  1.00  0.00     0.058 C 
BRANCH  19  20
HETATM   20  C   UNL     1      43.757 -18.886   4.508  1.00  0.00    -0.057 A 
HETATM   21  C   UNL     1      43.404 -18.240   3.316  1.00  0.00     0.007 A 
HETATM   22  C   UNL     1      43.315 -18.959   2.122  1.00  0.00     0.001 A 
HETATM   23  C   UNL     1      43.573 -20.328   2.110  1.00  0.00     0.000 A 
HETATM   24  C   UNL     1      43.925 -20.980   3.289  1.00  0.00     0.001 A 
HETATM   25  C   UNL     1      44.018 -20.263   4.483  1.00  0.00     0.007 A 
ENDBRANCH  19  20
ENDBRANCH  18  19
ENDBRANCH  15  18
ENDBRANCH  13  14
ENDBRANCH  12  13
ENDBRANCH   2  12
BRANCH   1  26
HETATM   26  C   UNL     1      41.519 -11.449   4.268  1.00  0.00     0.051 A 
HETATM   27  C   UNL     1      42.838 -11.261   4.738  1.00  0.00    -0.035 A 
HETATM   28  C   UNL     1      44.050 -11.630   3.926  1.00  0.00     0.050 C 
HETATM   29  C   UNL     1      43.036 -10.652   5.988  1.00  0.00     0.011 A 
HETATM   30  C   UNL     1      41.952 -10.274   6.782  1.00  0.00     0.024 A 
HETATM   31  C   UNL     1      40.657 -10.484   6.324  1.00  0.00     0.036 A 
HETATM   32  C   UNL     1      40.434 -11.063   5.076  1.00  0.00     0.054 A 
HETATM   33 CL   UNL     1      39.318 -10.047   7.311  1.00  0.00    -0.084 Cl
ENDBRANCH   1  26
BRANCH   6  34
HETATM   34  N   UNL     1      41.495 -10.050   1.740  1.00  0.00    -0.384 N 
HETATM   35  H   UNL     1      42.317  -9.656   1.307  1.00  0.00     0.157 HD
HETATM   36  H   UNL     1      40.815  -9.420   2.143  1.00  0.00     0.157 HD
ENDBRANCH   6  34
TORSDOF 8
ENDMDL
MODEL 6
REMARK VINA RESULT:      -7.9      3.035      7.217
REMARK  8 active torsions:
REMARK  status: ('A' for Active; 'I' for Inactive)
REMARK    1  A    between atoms: C_3  and  N_4 
REMARK    2  A    between atoms: C_5  and  S_6 
REMARK    3  A    between atoms: S_6  and  C_7 
REMARK    4  A    between atoms: C_7  and  C_8 
REMARK       I    between atoms: C_8  and  N_9 
REMARK    5  A    between atoms: N_9  and  C_10 
REMARK    6  A    between atoms: C_10  and  C_11 
REMARK    7  A    between atoms: C_11  and  C_12 
REMARK    8  A    between atoms: C_22  and  N_23 
ROOT
HETATM    1  N   UNL     1      41.428 -13.560   2.184  1.00  0.00    -0.275 N 
HETATM    2  C   UNL     1      42.083 -12.307   2.313  1.00  0.00     0.177 A 
HETATM    3  N   UNL     1      41.896 -11.258   1.549  1.00  0.00    -0.204 NA
HETATM    4  C   UNL     1      40.947 -11.439   0.603  1.00  0.00     0.162 A 
HETATM    5  C   UNL     1      40.194 -12.548   0.330  1.00  0.00     0.081 A 
HETATM    6  C   UNL     1      40.425 -13.705   1.141  1.00  0.00     0.124 A 
HETATM    7  N   UNL     1      40.535 -10.498  -0.290  1.00  0.00    -0.260 N 
HETATM    8  H   UNL     1      40.865  -9.543  -0.382  1.00  0.00     0.191 HD
HETATM    9  N   UNL     1      39.570 -10.945  -1.125  1.00  0.00    -0.177 NA
HETATM   10  C   UNL     1      39.349 -12.211  -0.739  1.00  0.00     0.068 A 
HETATM   11  C   UNL     1      38.325 -13.019  -1.440  1.00  0.00     0.073 C 
ENDROOT
BRANCH   2  12
HETATM   12  S   UNL     1      43.318 -12.099   3.572  1.00  0.00    -0.082 SA
BRANCH  12  13
HETATM   13  C   UNL     1      42.518 -10.864   4.626  1.00  0.00     0.185 C 
BRANCH  13  14
HETATM   14  C   UNL     1      42.093 -11.426   5.977  1.00  0.00     0.227 C 
HETATM   15  N   UNL     1      42.962 -11.252   7.028  1.00  0.00    -0.360 N 
HETATM   16  H   UNL     1      42.653 -11.687   7.892  1.00  0.00     0.162 HD
HETATM   17  O   UNL     1      41.020 -11.996   6.185  1.00  0.00    -0.273 OA
BRANCH  15  18
HETATM   18  C   UNL     1      44.306 -10.703   6.945  1.00  0.00     0.127 C 
BRANCH  18  19
HETATM   19  C   UNL     1      45.061 -10.751   8.273  1.00  0.00     0.058 C 
BRANCH  19  20
HETATM   20  C   UNL     1      44.468  -9.774   9.260  1.00  0.00    -0.057 A 
HETATM   21  C   UNL     1      44.247 -10.152  10.591  1.00  0.00     0.007 A 
HETATM   22  C   UNL     1      43.654  -9.262  11.489  1.00  0.00     0.001 A 
HETATM   23  C   UNL     1      43.272  -7.992  11.065  1.00  0.00     0.000 A 
HETATM   24  C   UNL     1      43.487  -7.605   9.744  1.00  0.00     0.001 A 
HETATM   25  C   UNL     1      44.083  -8.491   8.845  1.00  0.00     0.007 A 
ENDBRANCH  19  20
ENDBRANCH  18  19
ENDBRANCH  15  18
ENDBRANCH  13  14
ENDBRANCH  12  13
ENDBRANCH   2  12
BRANCH   1  26
HETATM   26  C   UNL     1      41.691 -14.638   3.083  1.00  0.00     0.051 A 
HETATM   27  C   UNL     1      42.630 -15.649   2.781  1.00  0.00    -0.035 A 
HETATM   28  C   UNL     1      43.500 -15.610   1.554  1.00  0.00     0.050 C 
HETATM   29  C   UNL     1      42.807 -16.707   3.688  1.00  0.00     0.011 A 
HETATM   30  C   UNL     1      42.040 -16.791   4.851  1.00  0.00     0.024 A 
HETATM   31  C   UNL     1      41.100 -15.805   5.129  1.00  0.00     0.036 A 
HETATM   32  C   UNL     1      40.924 -14.732   4.258  1.00  0.00     0.054 A 
HETATM   33 CL   UNL     1      40.132 -15.920   6.545  1.00  0.00    -0.084 Cl
ENDBRANCH   1  26
BRANCH   6  34
HETATM   34  N   UNL     1      39.779 -14.835   0.925  1.00  0.00    -0.384 N 
HETATM   35  H   UNL     1      40.246 -15.658   0.573  1.00  0.00     0.157 HD
HETATM   36  H   UNL     1      38.788 -14.892   1.122  1.00  0.00     0.157 HD
ENDBRANCH   6  34
TORSDOF 8
ENDMDL
MODEL 7
REMARK VINA RESULT:      -7.8      2.858      4.424
REMARK  8 active torsions:
REMARK  status: ('A' for Active; 'I' for Inactive)
REMARK    1  A    between atoms: C_3  and  N_4 
REMARK    2  A    between atoms: C_5  and  S_6 
REMARK    3  A    between atoms: S_6  and  C_7 
REMARK    4  A    between atoms: C_7  and  C_8 
REMARK       I    between atoms: C_8  and  N_9 
REMARK    5  A    between atoms: N_9  and  C_10 
REMARK    6  A    between atoms: C_10  and  C_11 
REMARK    7  A    between atoms: C_11  and  C_12 
REMARK    8  A    between atoms: C_22  and  N_23 
ROOT
HETATM    1  N   UNL     1      41.231 -12.711   2.176  1.00  0.00    -0.275 N 
HETATM    2  C   UNL     1      42.296 -11.813   2.453  1.00  0.00     0.177 A 
HETATM    3  N   UNL     1      42.418 -10.596   1.981  1.00  0.00    -0.204 NA
HETATM    4  C   UNL     1      41.380 -10.208   1.206  1.00  0.00     0.162 A 
HETATM    5  C   UNL     1      40.261 -10.906   0.840  1.00  0.00     0.081 A 
HETATM    6  C   UNL     1      40.147 -12.248   1.326  1.00  0.00     0.124 A 
HETATM    7  N   UNL     1      41.243  -8.983   0.627  1.00  0.00    -0.260 N 
HETATM    8  H   UNL     1      41.878  -8.195   0.687  1.00  0.00     0.191 HD
HETATM    9  N   UNL     1      40.107  -8.862  -0.095  1.00  0.00    -0.177 NA
HETATM   10  C   UNL     1      39.492 -10.047   0.041  1.00  0.00     0.068 A 
HETATM   11  C   UNL     1      38.186 -10.271  -0.622  1.00  0.00     0.073 C 
ENDROOT
BRANCH   2  12
HETATM   12  S   UNL     1      43.639 -12.350   3.483  1.00  0.00    -0.082 SA
BRANCH  12  13
HETATM   13  C   UNL     1      43.124 -11.680   5.083  1.00  0.00     0.185 C 
BRANCH  13  14
HETATM   14  C   UNL     1      44.157 -11.909   6.180  1.00  0.00     0.227 C 
HETATM   15  N   UNL     1      44.039 -13.063   6.919  1.00  0.00    -0.360 N 
HETATM   16  H   UNL     1      44.721 -13.143   7.666  1.00  0.00     0.162 HD
HETATM   17  O   UNL     1      45.092 -11.145   6.422  1.00  0.00    -0.273 OA
BRANCH  15  18
HETATM   18  C   UNL     1      42.946 -14.018   6.843  1.00  0.00     0.127 C 
BRANCH  18  19
HETATM   19  C   UNL     1      43.178 -15.268   7.692  1.00  0.00     0.058 C 
BRANCH  19  20
HETATM   20  C   UNL     1      43.561 -16.441   6.822  1.00  0.00    -0.057 A 
HETATM   21  C   UNL     1      44.345 -16.252   5.677  1.00  0.00     0.007 A 
HETATM   22  C   UNL     1      44.658 -17.332   4.848  1.00  0.00     0.001 A 
HETATM   23  C   UNL     1      44.185 -18.606   5.152  1.00  0.00     0.000 A 
HETATM   24  C   UNL     1      43.405 -18.806   6.289  1.00  0.00     0.001 A 
HETATM   25  C   UNL     1      43.094 -17.730   7.121  1.00  0.00     0.007 A 
ENDBRANCH  19  20
ENDBRANCH  18  19
ENDBRANCH  15  18
ENDBRANCH  13  14
ENDBRANCH  12  13
ENDBRANCH   2  12
BRANCH   1  26
HETATM   26  C   UNL     1      41.182 -14.014   2.757  1.00  0.00     0.051 A 
HETATM   27  C   UNL     1      40.546 -14.256   3.995  1.00  0.00    -0.035 A 
HETATM   28  C   UNL     1      39.781 -13.192   4.737  1.00  0.00     0.050 C 
HETATM   29  C   UNL     1      40.572 -15.553   4.534  1.00  0.00     0.011 A 
HETATM   30  C   UNL     1      41.253 -16.584   3.885  1.00  0.00     0.024 A 
HETATM   31  C   UNL     1      41.898 -16.334   2.680  1.00  0.00     0.036 A 
HETATM   32  C   UNL     1      41.864 -15.061   2.113  1.00  0.00     0.054 A 
HETATM   33 CL   UNL     1      42.762 -17.594   1.893  1.00  0.00    -0.084 Cl
ENDBRANCH   1  26
BRANCH   6  34
HETATM   34  N   UNL     1      39.126 -13.014   0.991  1.00  0.00    -0.384 N 
HETATM   35  H   UNL     1      38.376 -12.677   0.405  1.00  0.00     0.157 HD
HETATM   36  H   UNL     1      39.087 -13.970   1.319  1.00  0.00     0.157 HD
ENDBRANCH   6  34
TORSDOF 8
ENDMDL
MODEL 8
REMARK VINA RESULT:      -7.8     16.365     18.957
REMARK  8 active torsions:
REMARK  status: ('A' for Active; 'I' for Inactive)
REMARK    1  A    between atoms: C_3  and  N_4 
REMARK    2  A    between atoms: C_5  and  S_6 
REMARK    3  A    between atoms: S_6  and  C_7 
REMARK    4  A    between atoms: C_7  and  C_8 
REMARK       I    between atoms: C_8  and  N_9 
REMARK    5  A    between atoms: N_9  and  C_10 
REMARK    6  A    between atoms: C_10  and  C_11 
REMARK    7  A    between atoms: C_11  and  C_12 
REMARK    8  A    between atoms: C_22  and  N_23 
ROOT
HETATM    1  N   UNL     1      46.525 -30.839  -1.191  1.00  0.00    -0.275 N 
HETATM    2  C   UNL     1      45.666 -31.508  -0.280  1.00  0.00     0.177 A 
HETATM    3  N   UNL     1      46.047 -32.254   0.729  1.00  0.00    -0.204 NA
HETATM    4  C   UNL     1      47.389 -32.310   0.886  1.00  0.00     0.162 A 
HETATM    5  C   UNL     1      48.376 -31.728   0.139  1.00  0.00     0.081 A 
HETATM    6  C   UNL     1      47.960 -30.943  -0.985  1.00  0.00     0.124 A 
HETATM    7  N   UNL     1      48.039 -32.982   1.877  1.00  0.00    -0.260 N 
HETATM    8  H   UNL     1      47.630 -33.527   2.628  1.00  0.00     0.191 HD
HETATM    9  N   UNL     1      49.384 -32.871   1.799  1.00  0.00    -0.177 NA
HETATM   10  C   UNL     1      49.597 -32.088   0.729  1.00  0.00     0.068 A 
HETATM   11  C   UNL     1      50.984 -31.738   0.346  1.00  0.00     0.073 C 
ENDROOT
BRANCH   2  12
HETATM   12  S   UNL     1      43.908 -31.406  -0.508  1.00  0.00    -0.082 SA
BRANCH  12  13
HETATM   13  C   UNL     1      43.368 -31.088   1.190  1.00  0.00     0.185 C 
BRANCH  13  14
HETATM   14  C   UNL     1      43.073 -29.615   1.450  1.00  0.00     0.227 C 
HETATM   15  N   UNL     1      43.990 -28.917   2.200  1.00  0.00    -0.360 N 
HETATM   16  H   UNL     1      43.721 -27.956   2.385  1.00  0.00     0.162 HD
HETATM   17  O   UNL     1      42.089 -29.017   1.011  1.00  0.00    -0.273 OA
BRANCH  15  18
HETATM   18  C   UNL     1      45.143 -29.481   2.882  1.00  0.00     0.127 C 
BRANCH  18  19
HETATM   19  C   UNL     1      46.464 -28.831   2.471  1.00  0.00     0.058 C 
BRANCH  19  20
HETATM   20  C   UNL     1      47.626 -29.495   3.171  1.00  0.00    -0.057 A 
HETATM   21  C   UNL     1      47.404 -30.442   4.178  1.00  0.00     0.007 A 
HETATM   22  C   UNL     1      48.480 -31.019   4.857  1.00  0.00     0.001 A 
HETATM   23  C   UNL     1      49.785 -30.651   4.538  1.00  0.00     0.000 A 
HETATM   24  C   UNL     1      50.018 -29.710   3.538  1.00  0.00     0.001 A 
HETATM   25  C   UNL     1      48.944 -29.135   2.856  1.00  0.00     0.007 A 
ENDBRANCH  19  20
ENDBRANCH  18  19
ENDBRANCH  15  18
ENDBRANCH  13  14
ENDBRANCH  12  13
ENDBRANCH   2  12
BRANCH   1  26
HETATM   26  C   UNL     1      46.009 -30.032  -2.251  1.00  0.00     0.051 A 
HETATM   27  C   UNL     1      45.742 -28.656  -2.079  1.00  0.00    -0.035 A 
HETATM   28  C   UNL     1      46.083 -27.914  -0.814  1.00  0.00     0.050 C 
HETATM   29  C   UNL     1      45.192 -27.929  -3.147  1.00  0.00     0.011 A 
HETATM   30  C   UNL     1      44.869 -28.558  -4.351  1.00  0.00     0.024 A 
HETATM   31  C   UNL     1      45.111 -29.918  -4.504  1.00  0.00     0.036 A 
HETATM   32  C   UNL     1      45.680 -30.655  -3.468  1.00  0.00     0.054 A 
HETATM   33 CL   UNL     1      44.686 -30.703  -5.974  1.00  0.00    -0.084 Cl
ENDBRANCH   1  26
BRANCH   6  34
HETATM   34  N   UNL     1      48.840 -30.379  -1.790  1.00  0.00    -0.384 N 
HETATM   35  H   UNL     1      49.829 -30.383  -1.586  1.00  0.00     0.157 HD
HETATM   36  H   UNL     1      48.527 -29.933  -2.642  1.00  0.00     0.157 HD
ENDBRANCH   6  34
TORSDOF 8
ENDMDL
MODEL 9
REMARK VINA RESULT:      -7.7      4.829      7.654
REMARK  8 active torsions:
REMARK  status: ('A' for Active; 'I' for Inactive)
REMARK    1  A    between atoms: C_3  and  N_4 
REMARK    2  A    between atoms: C_5  and  S_6 
REMARK    3  A    between atoms: S_6  and  C_7 
REMARK    4  A    between atoms: C_7  and  C_8 
REMARK       I    between atoms: C_8  and  N_9 
REMARK    5  A    between atoms: N_9  and  C_10 
REMARK    6  A    between atoms: C_10  and  C_11 
REMARK    7  A    between atoms: C_11  and  C_12 
REMARK    8  A    between atoms: C_22  and  N_23 
ROOT
HETATM    1  N   UNL     1      40.071 -10.966  -1.145  1.00  0.00    -0.275 N 
HETATM    2  C   UNL     1      40.611 -11.540   0.036  1.00  0.00     0.177 A 
HETATM    3  N   UNL     1      40.527 -12.800   0.387  1.00  0.00    -0.204 NA
HETATM    4  C   UNL     1      39.899 -13.576  -0.525  1.00  0.00     0.162 A 
HETATM    5  C   UNL     1      39.333 -13.226  -1.721  1.00  0.00     0.081 A 
HETATM    6  C   UNL     1      39.393 -11.842  -2.086  1.00  0.00     0.124 A 
HETATM    7  N   UNL     1      39.714 -14.921  -0.422  1.00  0.00    -0.260 N 
HETATM    8  H   UNL     1      40.011 -15.532   0.331  1.00  0.00     0.191 HD
HETATM    9  N   UNL     1      39.055 -15.449  -1.478  1.00  0.00    -0.177 NA
HETATM   10  C   UNL     1      38.825 -14.404  -2.289  1.00  0.00     0.068 A 
HETATM   11  C   UNL     1      38.118 -14.619  -3.572  1.00  0.00     0.073 C 
ENDROOT
BRANCH   2  12
HETATM   12  S   UNL     1      41.440 -10.495   1.209  1.00  0.00    -0.082 SA
BRANCH  12  13
HETATM   13  C   UNL     1      41.463 -11.575   2.661  1.00  0.00     0.185 C 
BRANCH  13  14
HETATM   14  C   UNL     1      42.876 -11.904   3.129  1.00  0.00     0.227 C 
HETATM   15  N   UNL     1      43.154 -13.224   3.396  1.00  0.00    -0.360 N 
HETATM   16  H   UNL     1      44.092 -13.382   3.751  1.00  0.00     0.162 HD
HETATM   17  O   UNL     1      43.777 -11.073   3.254  1.00  0.00    -0.273 OA
BRANCH  15  18
HETATM   18  C   UNL     1      42.194 -14.315   3.406  1.00  0.00     0.127 C 
BRANCH  18  19
HETATM   19  C   UNL     1      42.417 -15.306   4.548  1.00  0.00     0.058 C 
BRANCH  19  20
HETATM   20  C   UNL     1      42.938 -16.621   4.021  1.00  0.00    -0.057 A 
HETATM   21  C   UNL     1      43.882 -17.357   4.749  1.00  0.00     0.007 A 
HETATM   22  C   UNL     1      44.398 -18.549   4.236  1.00  0.00     0.001 A 
HETATM   23  C   UNL     1      43.981 -19.012   2.990  1.00  0.00     0.000 A 
HETATM   24  C   UNL     1      43.043 -18.289   2.257  1.00  0.00     0.001 A 
HETATM   25  C   UNL     1      42.522 -17.099   2.769  1.00  0.00     0.007 A 
ENDBRANCH  19  20
ENDBRANCH  18  19
ENDBRANCH  15  18
ENDBRANCH  13  14
ENDBRANCH  12  13
ENDBRANCH   2  12
BRANCH   1  26
HETATM   26  C   UNL     1      40.233  -9.579  -1.445  1.00  0.00     0.051 A 
HETATM   27  C   UNL     1      39.278  -8.615  -1.057  1.00  0.00    -0.035 A 
HETATM   28  C   UNL     1      38.081  -8.952  -0.208  1.00  0.00     0.050 C 
HETATM   29  C   UNL     1      39.474  -7.273  -1.424  1.00  0.00     0.011 A 
HETATM   30  C   UNL     1      40.573  -6.896  -2.198  1.00  0.00     0.024 A 
HETATM   31  C   UNL     1      41.497  -7.854  -2.597  1.00  0.00     0.036 A 
HETATM   32  C   UNL     1      41.336  -9.187  -2.225  1.00  0.00     0.054 A 
HETATM   33 CL   UNL     1      42.834  -7.399  -3.577  1.00  0.00    -0.084 Cl
ENDBRANCH   1  26
BRANCH   6  34
HETATM   34  N   UNL     1      38.837 -11.402  -3.199  1.00  0.00    -0.384 N 
HETATM   35  H   UNL     1      39.003 -10.469  -3.545  1.00  0.00     0.157 HD
HETATM   36  H   UNL     1      38.232 -12.012  -3.733  1.00  0.00     0.157 HD
ENDBRANCH   6  34
TORSDOF 8
ENDMDL
MODEL 10
REMARK VINA RESULT:      -7.6     16.519     18.530
REMARK  8 active torsions:
REMARK  status: ('A' for Active; 'I' for Inactive)
REMARK    1  A    between atoms: C_3  and  N_4 
REMARK    2  A    between atoms: C_5  and  S_6 
REMARK    3  A    between atoms: S_6  and  C_7 
REMARK    4  A    between atoms: C_7  and  C_8 
REMARK       I    between atoms: C_8  and  N_9 
REMARK    5  A    between atoms: N_9  and  C_10 
REMARK    6  A    between atoms: C_10  and  C_11 
REMARK    7  A    between atoms: C_11  and  C_12 
REMARK    8  A    between atoms: C_22  and  N_23 
ROOT
HETATM    1  N   UNL     1      45.025 -30.303  -0.162  1.00  0.00    -0.275 N 
HETATM    2  C   UNL     1      45.966 -31.291   0.229  1.00  0.00     0.177 A 
HETATM    3  N   UNL     1      45.959 -31.957   1.358  1.00  0.00    -0.204 NA
HETATM    4  C   UNL     1      44.907 -31.662   2.155  1.00  0.00     0.162 A 
HETATM    5  C   UNL     1      43.891 -30.768   1.955  1.00  0.00     0.081 A 
HETATM    6  C   UNL     1      43.920 -30.014   0.738  1.00  0.00     0.124 A 
HETATM    7  N   UNL     1      44.644 -32.239   3.360  1.00  0.00    -0.260 N 
HETATM    8  H   UNL     1      45.179 -32.959   3.833  1.00  0.00     0.191 HD
HETATM    9  N   UNL     1      43.525 -31.757   3.946  1.00  0.00    -0.177 NA
HETATM   10  C   UNL     1      43.050 -30.853   3.076  1.00  0.00     0.068 A 
HETATM   11  C   UNL     1      41.801 -30.122   3.392  1.00  0.00     0.073 C 
ENDROOT
BRANCH   2  12
HETATM   12  S   UNL     1      47.331 -31.663  -0.845  1.00  0.00    -0.082 SA
BRANCH  12  13
HETATM   13  C   UNL     1      48.710 -31.574   0.324  1.00  0.00     0.185 C 
BRANCH  13  14
HETATM   14  C   UNL     1      49.492 -30.269   0.216  1.00  0.00     0.227 C 
HETATM   15  N   UNL     1      49.300 -29.341   1.212  1.00  0.00    -0.360 N 
HETATM   16  H   UNL     1      49.805 -28.473   1.067  1.00  0.00     0.162 HD
HETATM   17  O   UNL     1      50.293 -30.013  -0.684  1.00  0.00    -0.273 OA
BRANCH  15  18
HETATM   18  C   UNL     1      48.323 -29.428   2.285  1.00  0.00     0.127 C 
BRANCH  18  19
HETATM   19  C   UNL     1      48.887 -29.029   3.649  1.00  0.00     0.058 C 
BRANCH  19  20
HETATM   20  C   UNL     1      49.473 -30.228   4.356  1.00  0.00    -0.057 A 
HETATM   21  C   UNL     1      48.643 -31.259   4.816  1.00  0.00     0.007 A 
HETATM   22  C   UNL     1      49.183 -32.343   5.511  1.00  0.00     0.001 A 
HETATM   23  C   UNL     1      50.553 -32.403   5.758  1.00  0.00     0.000 A 
HETATM   24  C   UNL     1      51.387 -31.384   5.305  1.00  0.00     0.001 A 
HETATM   25  C   UNL     1      50.851 -30.301   4.606  1.00  0.00     0.007 A 
ENDBRANCH  19  20
ENDBRANCH  18  19
ENDBRANCH  15  18
ENDBRANCH  13  14
ENDBRANCH  12  13
ENDBRANCH   2  12
BRANCH   1  26
HETATM   26  C   UNL     1      45.111 -29.646  -1.427  1.00  0.00     0.051 A 
HETATM   27  C   UNL     1      45.764 -28.403  -1.579  1.00  0.00    -0.035 A 
HETATM   28  C   UNL     1      46.511 -27.734  -0.455  1.00  0.00     0.050 C 
HETATM   29  C   UNL     1      45.774 -27.788  -2.841  1.00  0.00     0.011 A 
HETATM   30  C   UNL     1      45.112 -28.366  -3.926  1.00  0.00     0.024 A 
HETATM   31  C   UNL     1      44.450 -29.577  -3.763  1.00  0.00     0.036 A 
HETATM   32  C   UNL     1      44.448 -30.220  -2.526  1.00  0.00     0.054 A 
HETATM   33 CL   UNL     1      43.609 -30.278  -5.088  1.00  0.00    -0.084 Cl
ENDBRANCH   1  26
BRANCH   6  34
HETATM   34  N   UNL     1      43.008 -29.097   0.477  1.00  0.00    -0.384 N 
HETATM   35  H   UNL     1      42.134 -29.327   0.027  1.00  0.00     0.157 HD
HETATM   36  H   UNL     1      43.175 -28.134   0.738  1.00  0.00     0.157 HD
ENDBRANCH   6  34
TORSDOF 8
ENDMDL
