MODEL 1
REMARK VINA RESULT:      -8.1      0.000      0.000
REMARK  9 active torsions:
REMARK  status: ('A' for Active; 'I' for Inactive)
REMARK    1  A    between atoms: C_5  and  O_6 
REMARK    2  A    between atoms: O_6  and  C_7 
REMARK    3  A    between atoms: C_7  and  C_8 
REMARK    4  A    between atoms: N_9  and  C_10 
REMARK    5  A    between atoms: C_10  and  C_11 
REMARK    6  A    between atoms: C_11  and  C_12 
REMARK    7  A    between atoms: C_18  and  S_19 
REMARK    8  A    between atoms: S_19  and  C_20 
REMARK    9  A    between atoms: C_20  and  C_21 
REMARK       I    between atoms: C_21  and  N_22 
ROOT
HETATM    1  C   UNL     1      43.089 -14.754   6.432  1.00  0.00     0.155 A 
HETATM    2  N   UNL     1      43.318 -13.660   5.618  1.00  0.00    -0.309 N 
HETATM    3  C   UNL     1      43.770 -12.679   6.463  1.00  0.00     0.192 A 
HETATM    4  N   UNL     1      43.778 -13.122   7.698  1.00  0.00    -0.123 NA
HETATM    5  N   UNL     1      43.364 -14.422   7.680  1.00  0.00    -0.132 NA
ENDROOT
BRANCH   1   6
HETATM    6  C   UNL     1      42.557 -16.079   6.008  1.00  0.00     0.256 C 
BRANCH   6   7
HETATM    7  O   UNL     1      43.635 -17.010   6.023  1.00  0.00    -0.344 OA
BRANCH   7   8
HETATM    8  C   UNL     1      43.657 -17.934   5.014  1.00  0.00     0.069 A 
HETATM    9  C   UNL     1      43.262 -17.445   3.767  1.00  0.00     0.037 A 
HETATM   10  C   UNL     1      43.256 -18.277   2.646  1.00  0.00     0.009 A 
HETATM   11  C   UNL     1      43.630 -19.619   2.762  1.00  0.00    -0.062 A 
HETATM   12  C   UNL     1      43.671 -20.514   1.559  1.00  0.00     0.048 C 
HETATM   13  C   UNL     1      44.021 -20.108   4.013  1.00  0.00     0.009 A 
HETATM   14  C   UNL     1      44.029 -19.272   5.135  1.00  0.00     0.037 A 
ENDBRANCH   7   8
ENDBRANCH   6   7
ENDBRANCH   1   6
BRANCH   2  15
HETATM   15  C   UNL     1      43.134 -13.577   4.181  1.00  0.00     0.137 C 
BRANCH  15  16
HETATM   16  C   UNL     1      41.755 -13.047   3.786  1.00  0.00     0.059 C 
BRANCH  16  17
HETATM   17  C   UNL     1      41.120 -13.875   2.697  1.00  0.00    -0.057 A 
HETATM   18  C   UNL     1      40.495 -15.092   2.996  1.00  0.00     0.007 A 
HETATM   19  C   UNL     1      39.917 -15.855   1.978  1.00  0.00     0.001 A 
HETATM   20  C   UNL     1      39.961 -15.410   0.658  1.00  0.00     0.000 A 
HETATM   21  C   UNL     1      40.586 -14.203   0.352  1.00  0.00     0.001 A 
HETATM   22  C   UNL     1      41.166 -13.441   1.366  1.00  0.00     0.007 A 
ENDBRANCH  16  17
ENDBRANCH  15  16
ENDBRANCH   2  15
BRANCH   3  23
HETATM   23  S   UNL     1      44.270 -11.098   5.975  1.00  0.00    -0.081 SA
BRANCH  23  24
HETATM   24  C   UNL     1      45.906 -10.994   6.759  1.00  0.00     0.185 C 
BRANCH  24  25
HETATM   25  C   UNL     1      45.887 -10.022   7.928  1.00  0.00     0.226 C 
HETATM   26  N   UNL     1      45.249 -10.496   9.057  1.00  0.00    -0.365 N 
HETATM   27  C   UNL     1      45.245  -9.731  10.277  1.00  0.00     0.149 C 
HETATM   28  H   UNL     1      45.167 -11.511   9.143  1.00  0.00     0.161 HD
HETATM   29  O   UNL     1      46.391  -8.904   7.860  1.00  0.00    -0.273 OA
ENDBRANCH  24  25
ENDBRANCH  23  24
ENDBRANCH   3  23
TORSDOF 9
ENDMDL
MODEL 2
REMARK VINA RESULT:      -8.0      3.004      7.898
REMARK  9 active torsions:
REMARK  status: ('A' for Active; 'I' for Inactive)
REMARK    1  A    between atoms: C_5  and  O_6 
REMARK    2  A    between atoms: O_6  and  C_7 
REMARK    3  A    between atoms: C_7  and  C_8 
REMARK    4  A    between atoms: N_9  and  C_10 
REMARK    5  A    between atoms: C_10  and  C_11 
REMARK    6  A    between atoms: C_11  and  C_12 
REMARK    7  A    between atoms: C_18  and  S_19 
REMARK    8  A    between atoms: S_19  and  C_20 
REMARK    9  A    between atoms: C_20  and  C_21 
REMARK       I    between atoms: C_21  and  N_22 
ROOT
HETATM    1  C   UNL     1      42.236 -13.624   4.746  1.00  0.00     0.155 A 
HETATM    2  N   UNL     1      41.763 -14.770   4.134  1.00  0.00    -0.309 N 
HETATM    3  C   UNL     1      40.779 -14.336   3.284  1.00  0.00     0.192 A 
HETATM    4  N   UNL     1      40.632 -13.038   3.395  1.00  0.00    -0.123 NA
HETATM    5  N   UNL     1      41.549 -12.589   4.300  1.00  0.00    -0.132 NA
ENDROOT
BRANCH   1   6
HETATM    6  C   UNL     1      43.297 -13.548   5.788  1.00  0.00     0.256 C 
BRANCH   6   7
HETATM    7  O   UNL     1      44.123 -12.426   5.494  1.00  0.00    -0.344 OA
BRANCH   7   8
HETATM    8  C   UNL     1      44.569 -11.700   6.564  1.00  0.00     0.069 A 
HETATM    9  C   UNL     1      43.613 -11.474   7.556  1.00  0.00     0.037 A 
HETATM   10  C   UNL     1      43.941 -10.762   8.712  1.00  0.00     0.009 A 
HETATM   11  C   UNL     1      45.230 -10.252   8.883  1.00  0.00    -0.062 A 
HETATM   12  C   UNL     1      45.610  -9.523  10.139  1.00  0.00     0.048 C 
HETATM   13  C   UNL     1      46.186 -10.475   7.887  1.00  0.00     0.009 A 
HETATM   14  C   UNL     1      45.857 -11.190   6.730  1.00  0.00     0.037 A 
ENDBRANCH   7   8
ENDBRANCH   6   7
ENDBRANCH   1   6
BRANCH   2  15
HETATM   15  C   UNL     1      42.222 -16.132   4.339  1.00  0.00     0.137 C 
BRANCH  15  16
HETATM   16  C   UNL     1      43.216 -16.593   3.271  1.00  0.00     0.059 C 
BRANCH  16  17
HETATM   17  C   UNL     1      43.438 -18.084   3.310  1.00  0.00    -0.057 A 
HETATM   18  C   UNL     1      43.960 -18.701   4.454  1.00  0.00     0.007 A 
HETATM   19  C   UNL     1      44.168 -20.081   4.477  1.00  0.00     0.001 A 
HETATM   20  C   UNL     1      43.862 -20.854   3.358  1.00  0.00     0.000 A 
HETATM   21  C   UNL     1      43.347 -20.248   2.214  1.00  0.00     0.001 A 
HETATM   22  C   UNL     1      43.140 -18.869   2.188  1.00  0.00     0.007 A 
ENDBRANCH  16  17
ENDBRANCH  15  16
ENDBRANCH   2  15
BRANCH   3  23
HETATM   23  S   UNL     1      39.875 -15.347   2.212  1.00  0.00    -0.081 SA
BRANCH  23  24
HETATM   24  C   UNL     1      40.725 -15.031   0.637  1.00  0.00     0.185 C 
BRANCH  24  25
HETATM   25  C   UNL     1      39.885 -14.140  -0.264  1.00  0.00     0.226 C 
HETATM   26  N   UNL     1      39.251 -13.100   0.387  1.00  0.00    -0.365 N 
HETATM   27  C   UNL     1      38.509 -12.113  -0.352  1.00  0.00     0.149 C 
HETATM   28  H   UNL     1      39.651 -12.811   1.281  1.00  0.00     0.161 HD
HETATM   29  O   UNL     1      39.776 -14.343  -1.471  1.00  0.00    -0.273 OA
ENDBRANCH  24  25
ENDBRANCH  23  24
ENDBRANCH   3  23
TORSDOF 9
ENDMDL
MODEL 3
REMARK VINA RESULT:      -7.9      2.692      6.383
REMARK  9 active torsions:
REMARK  status: ('A' for Active; 'I' for Inactive)
REMARK    1  A    between atoms: C_5  and  O_6 
REMARK    2  A    between atoms: O_6  and  C_7 
REMARK    3  A    between atoms: C_7  and  C_8 
REMARK    4  A    between atoms: N_9  and  C_10 
REMARK    5  A    between atoms: C_10  and  C_11 
REMARK    6  A    between atoms: C_11  and  C_12 
REMARK    7  A    between atoms: C_18  and  S_19 
REMARK    8  A    between atoms: S_19  and  C_20 
REMARK    9  A    between atoms: C_20  and  C_21 
REMARK       I    between atoms: C_21  and  N_22 
ROOT
HETATM    1  C   UNL     1      41.177 -13.687   2.940  1.00  0.00     0.155 A 
HETATM    2  N   UNL     1      41.341 -14.974   3.415  1.00  0.00    -0.309 N 
HETATM    3  C   UNL     1      41.000 -14.909   4.741  1.00  0.00     0.192 A 
HETATM    4  N   UNL     1      40.690 -13.676   5.063  1.00  0.00    -0.123 NA
HETATM    5  N   UNL     1      40.789 -12.912   3.937  1.00  0.00    -0.132 NA
ENDROOT
BRANCH   1   6
HETATM    6  C   UNL     1      41.448 -13.210   1.555  1.00  0.00     0.256 C 
BRANCH   6   7
HETATM    7  O   UNL     1      40.243 -12.655   1.038  1.00  0.00    -0.344 OA
BRANCH   7   8
HETATM    8  C   UNL     1      39.731 -13.248  -0.084  1.00  0.00     0.069 A 
HETATM    9  C   UNL     1      39.007 -12.394  -0.917  1.00  0.00     0.037 A 
HETATM   10  C   UNL     1      38.444 -12.866  -2.105  1.00  0.00     0.009 A 
HETATM   11  C   UNL     1      38.586 -14.208  -2.467  1.00  0.00    -0.062 A 
HETATM   12  C   UNL     1      38.026 -14.721  -3.761  1.00  0.00     0.048 C 
HETATM   13  C   UNL     1      39.309 -15.064  -1.629  1.00  0.00     0.009 A 
HETATM   14  C   UNL     1      39.873 -14.589  -0.439  1.00  0.00     0.037 A 
ENDBRANCH   7   8
ENDBRANCH   6   7
ENDBRANCH   1   6
BRANCH   2  15
HETATM   15  C   UNL     1      41.769 -16.142   2.665  1.00  0.00     0.137 C 
BRANCH  15  16
HETATM   16  C   UNL     1      43.242 -16.487   2.888  1.00  0.00     0.059 C 
BRANCH  16  17
HETATM   17  C   UNL     1      43.450 -17.963   3.116  1.00  0.00    -0.057 A 
HETATM   18  C   UNL     1      44.001 -18.432   4.315  1.00  0.00     0.007 A 
HETATM   19  C   UNL     1      44.196 -19.801   4.512  1.00  0.00     0.001 A 
HETATM   20  C   UNL     1      43.846 -20.709   3.514  1.00  0.00     0.000 A 
HETATM   21  C   UNL     1      43.302 -20.250   2.317  1.00  0.00     0.001 A 
HETATM   22  C   UNL     1      43.108 -18.884   2.116  1.00  0.00     0.007 A 
ENDBRANCH  16  17
ENDBRANCH  15  16
ENDBRANCH   2  15
BRANCH   3  23
HETATM   23  S   UNL     1      40.966 -16.254   5.827  1.00  0.00    -0.081 SA
BRANCH  23  24
HETATM   24  C   UNL     1      41.885 -15.580   7.243  1.00  0.00     0.185 C 
BRANCH  24  25
HETATM   25  C   UNL     1      43.138 -14.854   6.781  1.00  0.00     0.226 C 
HETATM   26  N   UNL     1      43.151 -13.501   7.054  1.00  0.00    -0.365 N 
HETATM   27  C   UNL     1      44.316 -12.704   6.772  1.00  0.00     0.149 C 
HETATM   28  H   UNL     1      42.539 -13.182   7.807  1.00  0.00     0.161 HD
HETATM   29  O   UNL     1      44.055 -15.432   6.202  1.00  0.00    -0.273 OA
ENDBRANCH  24  25
ENDBRANCH  23  24
ENDBRANCH   3  23
TORSDOF 9
ENDMDL
MODEL 4
REMARK VINA RESULT:      -7.8      4.035      7.573
REMARK  9 active torsions:
REMARK  status: ('A' for Active; 'I' for Inactive)
REMARK    1  A    between atoms: C_5  and  O_6 
REMARK    2  A    between atoms: O_6  and  C_7 
REMARK    3  A    between atoms: C_7  and  C_8 
REMARK    4  A    between atoms: N_9  and  C_10 
REMARK    5  A    between atoms: C_10  and  C_11 
REMARK    6  A    between atoms: C_11  and  C_12 
REMARK    7  A    between atoms: C_18  and  S_19 
REMARK    8  A    between atoms: S_19  and  C_20 
REMARK    9  A    between atoms: C_20  and  C_21 
REMARK       I    between atoms: C_21  and  N_22 
ROOT
HETATM    1  C   UNL     1      39.672 -13.079   3.416  1.00  0.00     0.155 A 
HETATM    2  N   UNL     1      40.107 -14.118   2.615  1.00  0.00    -0.309 N 
HETATM    3  C   UNL     1      39.846 -13.709   1.332  1.00  0.00     0.192 A 
HETATM    4  N   UNL     1      39.262 -12.535   1.347  1.00  0.00    -0.123 NA
HETATM    5  N   UNL     1      39.162 -12.134   2.648  1.00  0.00    -0.132 NA
ENDROOT
BRANCH   1   6
HETATM    6  C   UNL     1      39.700 -13.033   4.904  1.00  0.00     0.256 C 
BRANCH   6   7
HETATM    7  O   UNL     1      40.994 -12.595   5.307  1.00  0.00    -0.344 OA
BRANCH   7   8
HETATM    8  C   UNL     1      41.783 -13.519   5.934  1.00  0.00     0.069 A 
HETATM    9  C   UNL     1      41.098 -14.626   6.439  1.00  0.00     0.037 A 
HETATM   10  C   UNL     1      41.785 -15.654   7.087  1.00  0.00     0.009 A 
HETATM   11  C   UNL     1      43.171 -15.580   7.253  1.00  0.00    -0.062 A 
HETATM   12  C   UNL     1      43.929 -16.697   7.907  1.00  0.00     0.048 C 
HETATM   13  C   UNL     1      43.856 -14.469   6.750  1.00  0.00     0.009 A 
HETATM   14  C   UNL     1      43.166 -13.440   6.099  1.00  0.00     0.037 A 
ENDBRANCH   7   8
ENDBRANCH   6   7
ENDBRANCH   1   6
BRANCH   2  15
HETATM   15  C   UNL     1      40.721 -15.362   3.042  1.00  0.00     0.137 C 
BRANCH  15  16
HETATM   16  C   UNL     1      42.246 -15.344   2.930  1.00  0.00     0.059 C 
BRANCH  16  17
HETATM   17  C   UNL     1      42.840 -16.724   3.057  1.00  0.00    -0.057 A 
HETATM   18  C   UNL     1      42.585 -17.705   2.091  1.00  0.00     0.007 A 
HETATM   19  C   UNL     1      43.134 -18.983   2.223  1.00  0.00     0.001 A 
HETATM   20  C   UNL     1      43.938 -19.290   3.320  1.00  0.00     0.000 A 
HETATM   21  C   UNL     1      44.192 -18.321   4.288  1.00  0.00     0.001 A 
HETATM   22  C   UNL     1      43.643 -17.045   4.160  1.00  0.00     0.007 A 
ENDBRANCH  16  17
ENDBRANCH  15  16
ENDBRANCH   2  15
BRANCH   3  23
HETATM   23  S   UNL     1      40.241 -14.600  -0.095  1.00  0.00    -0.081 SA
BRANCH  23  24
HETATM   24  C   UNL     1      40.369 -13.261  -1.317  1.00  0.00     0.185 C 
BRANCH  24  25
HETATM   25  C   UNL     1      39.252 -13.355  -2.344  1.00  0.00     0.226 C 
HETATM   26  N   UNL     1      37.989 -13.113  -1.842  1.00  0.00    -0.365 N 
HETATM   27  C   UNL     1      36.847 -13.061  -2.717  1.00  0.00     0.149 C 
HETATM   28  H   UNL     1      37.938 -12.574  -0.976  1.00  0.00     0.161 HD
HETATM   29  O   UNL     1      39.466 -13.634  -3.522  1.00  0.00    -0.273 OA
ENDBRANCH  24  25
ENDBRANCH  23  24
ENDBRANCH   3  23
TORSDOF 9
ENDMDL
MODEL 5
REMARK VINA RESULT:      -7.8      2.094      4.986
REMARK  9 active torsions:
REMARK  status: ('A' for Active; 'I' for Inactive)
REMARK    1  A    between atoms: C_5  and  O_6 
REMARK    2  A    between atoms: O_6  and  C_7 
REMARK    3  A    between atoms: C_7  and  C_8 
REMARK    4  A    between atoms: N_9  and  C_10 
REMARK    5  A    between atoms: C_10  and  C_11 
REMARK    6  A    between atoms: C_11  and  C_12 
REMARK    7  A    between atoms: C_18  and  S_19 
REMARK    8  A    between atoms: S_19  and  C_20 
REMARK    9  A    between atoms: C_20  and  C_21 
REMARK       I    between atoms: C_21  and  N_22 
ROOT
HETATM    1  C   UNL     1      43.328 -12.617   3.387  1.00  0.00     0.155 A 
HETATM    2  N   UNL     1      43.140 -13.088   4.672  1.00  0.00    -0.309 N 
HETATM    3  C   UNL     1      43.799 -12.195   5.476  1.00  0.00     0.192 A 
HETATM    4  N   UNL     1      44.378 -11.275   4.742  1.00  0.00    -0.123 NA
HETATM    5  N   UNL     1      44.075 -11.530   3.436  1.00  0.00    -0.132 NA
ENDROOT
BRANCH   1   6
HETATM    6  C   UNL     1      42.837 -13.248   2.129  1.00  0.00     0.256 C 
BRANCH   6   7
HETATM    7  O   UNL     1      41.649 -12.570   1.732  1.00  0.00    -0.344 OA
BRANCH   7   8
HETATM    8  C   UNL     1      41.014 -13.053   0.622  1.00  0.00     0.069 A 
HETATM    9  C   UNL     1      40.477 -14.333   0.767  1.00  0.00     0.037 A 
HETATM   10  C   UNL     1      39.786 -14.939  -0.284  1.00  0.00     0.009 A 
HETATM   11  C   UNL     1      39.636 -14.275  -1.504  1.00  0.00    -0.062 A 
HETATM   12  C   UNL     1      38.858 -14.894  -2.628  1.00  0.00     0.048 C 
HETATM   13  C   UNL     1      40.178 -12.994  -1.650  1.00  0.00     0.009 A 
HETATM   14  C   UNL     1      40.869 -12.387  -0.595  1.00  0.00     0.037 A 
ENDBRANCH   7   8
ENDBRANCH   6   7
ENDBRANCH   1   6
BRANCH   2  15
HETATM   15  C   UNL     1      42.394 -14.265   5.079  1.00  0.00     0.137 C 
BRANCH  15  16
HETATM   16  C   UNL     1      43.293 -15.459   5.405  1.00  0.00     0.059 C 
BRANCH  16  17
HETATM   17  C   UNL     1      43.218 -16.530   4.347  1.00  0.00    -0.057 A 
HETATM   18  C   UNL     1      44.101 -17.617   4.364  1.00  0.00     0.007 A 
HETATM   19  C   UNL     1      44.028 -18.600   3.375  1.00  0.00     0.001 A 
HETATM   20  C   UNL     1      43.076 -18.504   2.361  1.00  0.00     0.000 A 
HETATM   21  C   UNL     1      42.197 -17.423   2.334  1.00  0.00     0.001 A 
HETATM   22  C   UNL     1      42.269 -16.439   3.320  1.00  0.00     0.007 A 
ENDBRANCH  16  17
ENDBRANCH  15  16
ENDBRANCH   2  15
BRANCH   3  23
HETATM   23  S   UNL     1      43.849 -12.259   7.203  1.00  0.00    -0.081 SA
BRANCH  23  24
HETATM   24  C   UNL     1      45.106 -10.996   7.562  1.00  0.00     0.185 C 
BRANCH  24  25
HETATM   25  C   UNL     1      44.864 -10.360   8.921  1.00  0.00     0.226 C 
HETATM   26  N   UNL     1      43.725 -10.800   9.565  1.00  0.00    -0.365 N 
HETATM   27  C   UNL     1      43.422 -10.367  10.904  1.00  0.00     0.149 C 
HETATM   28  H   UNL     1      43.358 -11.708   9.275  1.00  0.00     0.161 HD
HETATM   29  O   UNL     1      45.621  -9.515   9.395  1.00  0.00    -0.273 OA
ENDBRANCH  24  25
ENDBRANCH  23  24
ENDBRANCH   3  23
TORSDOF 9
ENDMDL
MODEL 6
REMARK VINA RESULT:      -7.8      2.924      5.521
REMARK  9 active torsions:
REMARK  status: ('A' for Active; 'I' for Inactive)
REMARK    1  A    between atoms: C_5  and  O_6 
REMARK    2  A    between atoms: O_6  and  C_7 
REMARK    3  A    between atoms: C_7  and  C_8 
REMARK    4  A    between atoms: N_9  and  C_10 
REMARK    5  A    between atoms: C_10  and  C_11 
REMARK    6  A    between atoms: C_11  and  C_12 
REMARK    7  A    between atoms: C_18  and  S_19 
REMARK    8  A    between atoms: S_19  and  C_20 
REMARK    9  A    between atoms: C_20  and  C_21 
REMARK       I    between atoms: C_21  and  N_22 
ROOT
HETATM    1  C   UNL     1      41.696 -14.228   6.015  1.00  0.00     0.155 A 
HETATM    2  N   UNL     1      42.015 -12.884   5.971  1.00  0.00    -0.309 N 
HETATM    3  C   UNL     1      40.825 -12.232   6.164  1.00  0.00     0.192 A 
HETATM    4  N   UNL     1      39.851 -13.102   6.276  1.00  0.00    -0.123 NA
HETATM    5  N   UNL     1      40.394 -14.351   6.194  1.00  0.00    -0.132 NA
ENDROOT
BRANCH   1   6
HETATM    6  C   UNL     1      42.635 -15.370   5.828  1.00  0.00     0.256 C 
BRANCH   6   7
HETATM    7  O   UNL     1      43.102 -15.339   4.484  1.00  0.00    -0.344 OA
BRANCH   7   8
HETATM    8  C   UNL     1      43.227 -16.548   3.854  1.00  0.00     0.069 A 
HETATM    9  C   UNL     1      43.981 -17.493   4.550  1.00  0.00     0.037 A 
HETATM   10  C   UNL     1      44.173 -18.775   4.029  1.00  0.00     0.009 A 
HETATM   11  C   UNL     1      43.622 -19.122   2.792  1.00  0.00    -0.062 A 
HETATM   12  C   UNL     1      43.781 -20.508   2.239  1.00  0.00     0.048 C 
HETATM   13  C   UNL     1      42.870 -18.171   2.094  1.00  0.00     0.009 A 
HETATM   14  C   UNL     1      42.677 -16.888   2.618  1.00  0.00     0.037 A 
ENDBRANCH   7   8
ENDBRANCH   6   7
ENDBRANCH   1   6
BRANCH   2  15
HETATM   15  C   UNL     1      43.329 -12.296   5.779  1.00  0.00     0.137 C 
BRANCH  15  16
HETATM   16  C   UNL     1      44.243 -12.466   6.993  1.00  0.00     0.059 C 
BRANCH  16  17
HETATM   17  C   UNL     1      44.687 -11.141   7.558  1.00  0.00    -0.057 A 
HETATM   18  C   UNL     1      46.004 -10.695   7.389  1.00  0.00     0.007 A 
HETATM   19  C   UNL     1      46.407  -9.469   7.922  1.00  0.00     0.001 A 
HETATM   20  C   UNL     1      45.500  -8.681   8.629  1.00  0.00     0.000 A 
HETATM   21  C   UNL     1      44.190  -9.119   8.806  1.00  0.00     0.001 A 
HETATM   22  C   UNL     1      43.785 -10.344   8.277  1.00  0.00     0.007 A 
ENDBRANCH  16  17
ENDBRANCH  15  16
ENDBRANCH   2  15
BRANCH   3  23
HETATM   23  S   UNL     1      40.637 -10.516   6.261  1.00  0.00    -0.081 SA
BRANCH  23  24
HETATM   24  C   UNL     1      39.126 -10.389   7.265  1.00  0.00     0.185 C 
BRANCH  24  25
HETATM   25  C   UNL     1      39.358  -9.513   8.485  1.00  0.00     0.226 C 
HETATM   26  N   UNL     1      40.381  -9.937   9.310  1.00  0.00    -0.365 N 
HETATM   27  C   UNL     1      40.787  -9.150  10.444  1.00  0.00     0.149 C 
HETATM   28  H   UNL     1      41.087 -10.543   8.887  1.00  0.00     0.161 HD
HETATM   29  O   UNL     1      38.678  -8.516   8.716  1.00  0.00    -0.273 OA
ENDBRANCH  24  25
ENDBRANCH  23  24
ENDBRANCH   3  23
TORSDOF 9
ENDMDL
MODEL 7
REMARK VINA RESULT:      -7.8      2.357      5.362
REMARK  9 active torsions:
REMARK  status: ('A' for Active; 'I' for Inactive)
REMARK    1  A    between atoms: C_5  and  O_6 
REMARK    2  A    between atoms: O_6  and  C_7 
REMARK    3  A    between atoms: C_7  and  C_8 
REMARK    4  A    between atoms: N_9  and  C_10 
REMARK    5  A    between atoms: C_10  and  C_11 
REMARK    6  A    between atoms: C_11  and  C_12 
REMARK    7  A    between atoms: C_18  and  S_19 
REMARK    8  A    between atoms: S_19  and  C_20 
REMARK    9  A    between atoms: C_20  and  C_21 
REMARK       I    between atoms: C_21  and  N_22 
ROOT
HETATM    1  C   UNL     1      40.628 -12.599   4.336  1.00  0.00     0.155 A 
HETATM    2  N   UNL     1      41.532 -13.497   4.870  1.00  0.00    -0.309 N 
HETATM    3  C   UNL     1      42.266 -12.767   5.770  1.00  0.00     0.192 A 
HETATM    4  N   UNL     1      41.872 -11.517   5.759  1.00  0.00    -0.123 NA
HETATM    5  N   UNL     1      40.840 -11.411   4.872  1.00  0.00    -0.132 NA
ENDROOT
BRANCH   1   6
HETATM    6  C   UNL     1      39.614 -12.881   3.282  1.00  0.00     0.256 C 
BRANCH   6   7
HETATM    7  O   UNL     1      40.004 -12.188   2.100  1.00  0.00    -0.344 OA
BRANCH   7   8
HETATM    8  C   UNL     1      39.682 -12.782   0.911  1.00  0.00     0.069 A 
HETATM    9  C   UNL     1      40.154 -14.088   0.764  1.00  0.00     0.037 A 
HETATM   10  C   UNL     1      39.881 -14.817  -0.395  1.00  0.00     0.009 A 
HETATM   11  C   UNL     1      39.143 -14.242  -1.432  1.00  0.00    -0.062 A 
HETATM   12  C   UNL     1      38.803 -15.027  -2.665  1.00  0.00     0.048 C 
HETATM   13  C   UNL     1      38.674 -12.931  -1.286  1.00  0.00     0.009 A 
HETATM   14  C   UNL     1      38.947 -12.202  -0.123  1.00  0.00     0.037 A 
ENDBRANCH   7   8
ENDBRANCH   6   7
ENDBRANCH   1   6
BRANCH   2  15
HETATM   15  C   UNL     1      41.663 -14.908   4.556  1.00  0.00     0.137 C 
BRANCH  15  16
HETATM   16  C   UNL     1      42.637 -15.175   3.406  1.00  0.00     0.059 C 
BRANCH  16  17
HETATM   17  C   UNL     1      43.092 -16.612   3.372  1.00  0.00    -0.057 A 
HETATM   18  C   UNL     1      42.792 -17.433   2.278  1.00  0.00     0.007 A 
HETATM   19  C   UNL     1      43.212 -18.765   2.260  1.00  0.00     0.001 A 
HETATM   20  C   UNL     1      43.932 -19.286   3.334  1.00  0.00     0.000 A 
HETATM   21  C   UNL     1      44.231 -18.478   4.429  1.00  0.00     0.001 A 
HETATM   22  C   UNL     1      43.810 -17.148   4.450  1.00  0.00     0.007 A 
ENDBRANCH  16  17
ENDBRANCH  15  16
ENDBRANCH   2  15
BRANCH   3  23
HETATM   23  S   UNL     1      43.516 -13.403   6.781  1.00  0.00    -0.081 SA
BRANCH  23  24
HETATM   24  C   UNL     1      44.894 -12.290   6.372  1.00  0.00     0.185 C 
BRANCH  24  25
HETATM   25  C   UNL     1      45.132 -11.287   7.490  1.00  0.00     0.226 C 
HETATM   26  N   UNL     1      46.047 -10.298   7.188  1.00  0.00    -0.365 N 
HETATM   27  C   UNL     1      46.294  -9.219   8.108  1.00  0.00     0.149 C 
HETATM   28  H   UNL     1      46.207 -10.112   6.197  1.00  0.00     0.161 HD
HETATM   29  O   UNL     1      44.559 -11.366   8.574  1.00  0.00    -0.273 OA
ENDBRANCH  24  25
ENDBRANCH  23  24
ENDBRANCH   3  23
TORSDOF 9
ENDMDL
MODEL 8
REMARK VINA RESULT:      -7.7      2.434      4.209
REMARK  9 active torsions:
REMARK  status: ('A' for Active; 'I' for Inactive)
REMARK    1  A    between atoms: C_5  and  O_6 
REMARK    2  A    between atoms: O_6  and  C_7 
REMARK    3  A    between atoms: C_7  and  C_8 
REMARK    4  A    between atoms: N_9  and  C_10 
REMARK    5  A    between atoms: C_10  and  C_11 
REMARK    6  A    between atoms: C_11  and  C_12 
REMARK    7  A    between atoms: C_18  and  S_19 
REMARK    8  A    between atoms: S_19  and  C_20 
REMARK    9  A    between atoms: C_20  and  C_21 
REMARK       I    between atoms: C_21  and  N_22 
ROOT
HETATM    1  C   UNL     1      41.254 -11.192   3.906  1.00  0.00     0.155 A 
HETATM    2  N   UNL     1      41.547 -11.390   5.242  1.00  0.00    -0.309 N 
HETATM    3  C   UNL     1      41.783 -10.136   5.742  1.00  0.00     0.192 A 
HETATM    4  N   UNL     1      41.682  -9.246   4.784  1.00  0.00    -0.123 NA
HETATM    5  N   UNL     1      41.340  -9.902   3.638  1.00  0.00    -0.132 NA
ENDROOT
BRANCH   1   6
HETATM    6  C   UNL     1      40.951 -12.246   2.898  1.00  0.00     0.256 C 
BRANCH   6   7
HETATM    7  O   UNL     1      42.183 -12.831   2.490  1.00  0.00    -0.344 OA
BRANCH   7   8
HETATM    8  C   UNL     1      42.231 -14.198   2.465  1.00  0.00     0.069 A 
HETATM    9  C   UNL     1      43.414 -14.731   1.951  1.00  0.00     0.037 A 
HETATM   10  C   UNL     1      43.602 -16.114   1.885  1.00  0.00     0.009 A 
HETATM   11  C   UNL     1      42.598 -16.983   2.321  1.00  0.00    -0.062 A 
HETATM   12  C   UNL     1      42.802 -18.469   2.299  1.00  0.00     0.048 C 
HETATM   13  C   UNL     1      41.411 -16.446   2.833  1.00  0.00     0.009 A 
HETATM   14  C   UNL     1      41.225 -15.061   2.899  1.00  0.00     0.037 A 
ENDBRANCH   7   8
ENDBRANCH   6   7
ENDBRANCH   1   6
BRANCH   2  15
HETATM   15  C   UNL     1      41.583 -12.652   5.959  1.00  0.00     0.137 C 
BRANCH  15  16
HETATM   16  C   UNL     1      42.991 -13.238   6.067  1.00  0.00     0.059 C 
BRANCH  16  17
HETATM   17  C   UNL     1      42.980 -14.745   6.071  1.00  0.00    -0.057 A 
HETATM   18  C   UNL     1      41.849 -15.452   6.498  1.00  0.00     0.007 A 
HETATM   19  C   UNL     1      41.852 -16.849   6.505  1.00  0.00     0.001 A 
HETATM   20  C   UNL     1      42.983 -17.549   6.088  1.00  0.00     0.000 A 
HETATM   21  C   UNL     1      44.114 -16.853   5.666  1.00  0.00     0.001 A 
HETATM   22  C   UNL     1      44.115 -15.459   5.661  1.00  0.00     0.007 A 
ENDBRANCH  16  17
ENDBRANCH  15  16
ENDBRANCH   2  15
BRANCH   3  23
HETATM   23  S   UNL     1      42.144  -9.776   7.394  1.00  0.00    -0.081 SA
BRANCH  23  24
HETATM   24  C   UNL     1      43.928 -10.119   7.443  1.00  0.00     0.185 C 
BRANCH  24  25
HETATM   25  C   UNL     1      44.369 -10.504   8.846  1.00  0.00     0.226 C 
HETATM   26  N   UNL     1      43.398 -10.347   9.815  1.00  0.00    -0.365 N 
HETATM   27  C   UNL     1      43.635 -10.772  11.170  1.00  0.00     0.149 C 
HETATM   28  H   UNL     1      42.429 -10.337   9.493  1.00  0.00     0.161 HD
HETATM   29  O   UNL     1      45.503 -10.910   9.089  1.00  0.00    -0.273 OA
ENDBRANCH  24  25
ENDBRANCH  23  24
ENDBRANCH   3  23
TORSDOF 9
ENDMDL
MODEL 9
REMARK VINA RESULT:      -7.7      3.106      4.848
REMARK  9 active torsions:
REMARK  status: ('A' for Active; 'I' for Inactive)
REMARK    1  A    between atoms: C_5  and  O_6 
REMARK    2  A    between atoms: O_6  and  C_7 
REMARK    3  A    between atoms: C_7  and  C_8 
REMARK    4  A    between atoms: N_9  and  C_10 
REMARK    5  A    between atoms: C_10  and  C_11 
REMARK    6  A    between atoms: C_11  and  C_12 
REMARK    7  A    between atoms: C_18  and  S_19 
REMARK    8  A    between atoms: S_19  and  C_20 
REMARK    9  A    between atoms: C_20  and  C_21 
REMARK       I    between atoms: C_21  and  N_22 
ROOT
HETATM    1  C   UNL     1      39.230 -12.336   3.439  1.00  0.00     0.155 A 
HETATM    2  N   UNL     1      39.549 -12.389   4.782  1.00  0.00    -0.309 N 
HETATM    3  C   UNL     1      39.187 -11.165   5.281  1.00  0.00     0.192 A 
HETATM    4  N   UNL     1      38.722 -10.409   4.315  1.00  0.00    -0.123 NA
HETATM    5  N   UNL     1      38.737 -11.143   3.165  1.00  0.00    -0.132 NA
ENDROOT
BRANCH   1   6
HETATM    6  C   UNL     1      39.454 -13.409   2.429  1.00  0.00     0.256 C 
BRANCH   6   7
HETATM    7  O   UNL     1      40.817 -13.351   2.021  1.00  0.00    -0.344 OA
BRANCH   7   8
HETATM    8  C   UNL     1      41.541 -14.505   2.147  1.00  0.00     0.069 A 
HETATM    9  C   UNL     1      40.778 -15.650   2.381  1.00  0.00     0.037 A 
HETATM   10  C   UNL     1      41.390 -16.898   2.512  1.00  0.00     0.009 A 
HETATM   11  C   UNL     1      42.779 -17.015   2.425  1.00  0.00    -0.062 A 
HETATM   12  C   UNL     1      43.448 -18.355   2.519  1.00  0.00     0.048 C 
HETATM   13  C   UNL     1      43.543 -15.865   2.195  1.00  0.00     0.009 A 
HETATM   14  C   UNL     1      42.929 -14.615   2.063  1.00  0.00     0.037 A 
ENDBRANCH   7   8
ENDBRANCH   6   7
ENDBRANCH   1   6
BRANCH   2  15
HETATM   15  C   UNL     1      40.128 -13.507   5.507  1.00  0.00     0.137 C 
BRANCH  15  16
HETATM   16  C   UNL     1      41.649 -13.408   5.638  1.00  0.00     0.059 C 
BRANCH  16  17
HETATM   17  C   UNL     1      42.289 -14.758   5.842  1.00  0.00    -0.057 A 
HETATM   18  C   UNL     1      43.682 -14.897   5.852  1.00  0.00     0.007 A 
HETATM   19  C   UNL     1      44.264 -16.154   6.033  1.00  0.00     0.001 A 
HETATM   20  C   UNL     1      43.460 -17.280   6.203  1.00  0.00     0.000 A 
HETATM   21  C   UNL     1      42.072 -17.151   6.189  1.00  0.00     0.001 A 
HETATM   22  C   UNL     1      41.489 -15.898   6.006  1.00  0.00     0.007 A 
ENDBRANCH  16  17
ENDBRANCH  15  16
ENDBRANCH   2  15
BRANCH   3  23
HETATM   23  S   UNL     1      39.310 -10.690   6.938  1.00  0.00    -0.081 SA
BRANCH  23  24
HETATM   24  C   UNL     1      40.553  -9.368   6.830  1.00  0.00     0.185 C 
BRANCH  24  25
HETATM   25  C   UNL     1      41.943  -9.946   6.616  1.00  0.00     0.226 C 
HETATM   26  N   UNL     1      42.545 -10.429   7.760  1.00  0.00    -0.365 N 
HETATM   27  C   UNL     1      43.816 -11.103   7.695  1.00  0.00     0.149 C 
HETATM   28  H   UNL     1      41.925 -10.679   8.532  1.00  0.00     0.161 HD
HETATM   29  O   UNL     1      42.481  -9.967   5.512  1.00  0.00    -0.273 OA
ENDBRANCH  24  25
ENDBRANCH  23  24
ENDBRANCH   3  23
TORSDOF 9
ENDMDL
MODEL 10
REMARK VINA RESULT:      -7.7      3.885      8.038
REMARK  9 active torsions:
REMARK  status: ('A' for Active; 'I' for Inactive)
REMARK    1  A    between atoms: C_5  and  O_6 
REMARK    2  A    between atoms: O_6  and  C_7 
REMARK    3  A    between atoms: C_7  and  C_8 
REMARK    4  A    between atoms: N_9  and  C_10 
REMARK    5  A    between atoms: C_10  and  C_11 
REMARK    6  A    between atoms: C_11  and  C_12 
REMARK    7  A    between atoms: C_18  and  S_19 
REMARK    8  A    between atoms: S_19  and  C_20 
REMARK    9  A    between atoms: C_20  and  C_21 
REMARK       I    between atoms: C_21  and  N_22 
ROOT
HETATM    1  C   UNL     1      40.291 -13.602   3.584  1.00  0.00     0.155 A 
HETATM    2  N   UNL     1      40.981 -13.749   2.396  1.00  0.00    -0.309 N 
HETATM    3  C   UNL     1      40.228 -13.082   1.465  1.00  0.00     0.192 A 
HETATM    4  N   UNL     1      39.146 -12.600   2.027  1.00  0.00    -0.123 NA
HETATM    5  N   UNL     1      39.188 -12.914   3.354  1.00  0.00    -0.132 NA
ENDROOT
BRANCH   1   6
HETATM    6  C   UNL     1      40.670 -14.171   4.908  1.00  0.00     0.256 C 
BRANCH   6   7
HETATM    7  O   UNL     1      40.675 -13.110   5.857  1.00  0.00    -0.344 OA
BRANCH   7   8
HETATM    8  C   UNL     1      41.890 -12.541   6.130  1.00  0.00     0.069 A 
HETATM    9  C   UNL     1      42.925 -13.452   6.346  1.00  0.00     0.037 A 
HETATM   10  C   UNL     1      44.220 -13.006   6.616  1.00  0.00     0.009 A 
HETATM   11  C   UNL     1      44.494 -11.637   6.689  1.00  0.00    -0.062 A 
HETATM   12  C   UNL     1      45.889 -11.142   6.934  1.00  0.00     0.048 C 
HETATM   13  C   UNL     1      43.454 -10.726   6.476  1.00  0.00     0.009 A 
HETATM   14  C   UNL     1      42.157 -11.174   6.204  1.00  0.00     0.037 A 
ENDBRANCH   7   8
ENDBRANCH   6   7
ENDBRANCH   1   6
BRANCH   2  15
HETATM   15  C   UNL     1      42.237 -14.446   2.187  1.00  0.00     0.137 C 
BRANCH  15  16
HETATM   16  C   UNL     1      42.048 -15.915   1.803  1.00  0.00     0.059 C 
BRANCH  16  17
HETATM   17  C   UNL     1      42.836 -16.840   2.695  1.00  0.00    -0.057 A 
HETATM   18  C   UNL     1      43.362 -16.387   3.911  1.00  0.00     0.007 A 
HETATM   19  C   UNL     1      44.097 -17.251   4.726  1.00  0.00     0.001 A 
HETATM   20  C   UNL     1      44.315 -18.570   4.331  1.00  0.00     0.000 A 
HETATM   21  C   UNL     1      43.799 -19.027   3.120  1.00  0.00     0.001 A 
HETATM   22  C   UNL     1      43.067 -18.166   2.304  1.00  0.00     0.007 A 
ENDBRANCH  16  17
ENDBRANCH  15  16
ENDBRANCH   2  15
BRANCH   3  23
HETATM   23  S   UNL     1      40.650 -12.888  -0.201  1.00  0.00    -0.081 SA
BRANCH  23  24
HETATM   24  C   UNL     1      39.809 -14.321  -0.940  1.00  0.00     0.185 C 
BRANCH  24  25
HETATM   25  C   UNL     1      39.025 -13.911  -2.176  1.00  0.00     0.226 C 
HETATM   26  N   UNL     1      37.683 -13.677  -1.952  1.00  0.00    -0.365 N 
HETATM   27  C   UNL     1      36.837 -13.179  -3.005  1.00  0.00     0.149 C 
HETATM   28  H   UNL     1      37.412 -13.456  -0.992  1.00  0.00     0.161 HD
HETATM   29  O   UNL     1      39.550 -13.809  -3.282  1.00  0.00    -0.273 OA
ENDBRANCH  24  25
ENDBRANCH  23  24
ENDBRANCH   3  23
TORSDOF 9
ENDMDL
