MODEL 1
REMARK VINA RESULT:      -8.4      0.000      0.000
REMARK  9 active torsions:
REMARK  status: ('A' for Active; 'I' for Inactive)
REMARK    1  A    between atoms: C_3  and  C_4 
REMARK    2  A    between atoms: C_4  and  C_5 
REMARK    3  A    between atoms: C_5  and  O_6 
REMARK    4  A    between atoms: C_16  and  O_17 
REMARK    5  A    between atoms: C_18  and  C_19 
REMARK    6  A    between atoms: C_19  and  N_20 
REMARK    7  A    between atoms: N_20  and  C_23 
REMARK    8  A    between atoms: N_26  and  C_28 
REMARK    9  A    between atoms: C_28  and  C_29 
ROOT
HETATM    1  C   UNL     1      42.942 -17.862   2.287  1.00  0.00     0.050 C 
HETATM    2  C   UNL     1      42.655 -16.673   3.169  1.00  0.00    -0.036 C 
HETATM    3  C   UNL     1      43.286 -16.441   4.341  1.00  0.00     0.034 C 
HETATM    4  C   UNL     1      42.882 -15.315   5.226  1.00  0.00     0.295 C 
HETATM    5  O   UNL     1      43.539 -14.997   6.209  1.00  0.00    -0.259 OA
HETATM    6  O   UNL     1      41.717 -14.650   4.897  1.00  0.00    -0.274 OA
HETATM    7  C   UNL     1      41.138 -14.761   3.620  1.00  0.00     0.099 A 
HETATM    8  C   UNL     1      41.618 -15.719   2.724  1.00  0.00     0.006 A 
HETATM    9  C   UNL     1      40.137 -13.827   3.291  1.00  0.00     0.007 A 
HETATM   10  C   UNL     1      39.647 -12.833   4.311  1.00  0.00     0.054 C 
HETATM   11  C   UNL     1      39.669 -13.829   1.973  1.00  0.00     0.082 A 
HETATM   12  C   UNL     1      40.161 -14.742   1.025  1.00  0.00     0.002 A 
HETATM   13  C   UNL     1      41.112 -15.697   1.417  1.00  0.00     0.026 A 
ENDROOT
BRANCH  12  14
HETATM   14  C   UNL     1      39.745 -14.635  -0.414  1.00  0.00     0.274 C 
BRANCH  14  15
HETATM   15  N   UNL     1      40.677 -13.684  -1.113  1.00  0.00    -0.067 N 
HETATM   16  H   UNL     1      41.274 -13.287  -0.376  1.00  0.00     0.277 HD
HETATM   17  H   UNL     1      41.334 -14.294  -1.629  1.00  0.00     0.277 HD
BRANCH  15  18
HETATM   18  C   UNL     1      40.165 -12.650  -2.077  1.00  0.00     0.189 C 
HETATM   19  C   UNL     1      38.851 -11.984  -1.679  1.00  0.00     0.060 C 
HETATM   20  C   UNL     1      38.973 -10.747  -0.793  1.00  0.00     0.237 C 
HETATM   21  N   UNL     1      40.319 -10.682  -0.125  1.00  0.00    -0.067 N 
HETATM   22  H   UNL     1      40.423 -11.513   0.476  1.00  0.00     0.280 HD
HETATM   23  C   UNL     1      41.459 -10.632  -1.111  1.00  0.00     0.237 C 
HETATM   24  C   UNL     1      41.253 -11.595  -2.285  1.00  0.00     0.060 C 
BRANCH  21  25
HETATM   25  C   UNL     1      40.416  -9.546   0.919  1.00  0.00     0.273 C 
BRANCH  25  26
HETATM   26  C   UNL     1      41.167  -9.866   2.180  1.00  0.00    -0.033 A 
HETATM   27  C   UNL     1      42.141 -10.881   2.177  1.00  0.00     0.009 A 
HETATM   28  C   UNL     1      42.815 -11.220   3.348  1.00  0.00     0.001 A 
HETATM   29  C   UNL     1      42.531 -10.551   4.534  1.00  0.00     0.000 A 
HETATM   30  C   UNL     1      41.580  -9.533   4.549  1.00  0.00     0.001 A 
HETATM   31  C   UNL     1      40.903  -9.186   3.378  1.00  0.00     0.009 A 
ENDBRANCH  25  26
ENDBRANCH  21  25
ENDBRANCH  15  18
ENDBRANCH  14  15
ENDBRANCH  12  14
BRANCH  11  32
HETATM   32  O   UNL     1      38.760 -12.889   1.532  1.00  0.00    -0.359 OA
HETATM   33  H   UNL     1      39.260 -12.335   0.890  1.00  0.00     0.217 HD
ENDBRANCH  11  32
BRANCH   3  34
HETATM   34  C   UNL     1      44.444 -17.234   4.907  1.00  0.00     0.156 C 
BRANCH  34  35
HETATM   35  C   UNL     1      43.954 -18.499   5.585  1.00  0.00     0.262 C 
HETATM   36  O   UNL     1      43.232 -18.526   6.574  1.00  0.00    -0.265 OA
BRANCH  35  37
HETATM   37  O   UNL     1      44.398 -19.582   4.893  1.00  0.00    -0.326 OA
HETATM   38  C   UNL     1      43.926 -20.839   5.384  1.00  0.00     0.213 C 
ENDBRANCH  35  37
ENDBRANCH  34  35
ENDBRANCH   3  34
TORSDOF 9
ENDMDL
MODEL 2
REMARK VINA RESULT:      -8.0      2.311      4.441
REMARK  9 active torsions:
REMARK  status: ('A' for Active; 'I' for Inactive)
REMARK    1  A    between atoms: C_3  and  C_4 
REMARK    2  A    between atoms: C_4  and  C_5 
REMARK    3  A    between atoms: C_5  and  O_6 
REMARK    4  A    between atoms: C_16  and  O_17 
REMARK    5  A    between atoms: C_18  and  C_19 
REMARK    6  A    between atoms: C_19  and  N_20 
REMARK    7  A    between atoms: N_20  and  C_23 
REMARK    8  A    between atoms: N_26  and  C_28 
REMARK    9  A    between atoms: C_28  and  C_29 
ROOT
HETATM    1  C   UNL     1      43.216 -11.097   3.965  1.00  0.00     0.050 C 
HETATM    2  C   UNL     1      43.150 -12.398   4.727  1.00  0.00    -0.036 C 
HETATM    3  C   UNL     1      43.435 -12.510   6.042  1.00  0.00     0.034 C 
HETATM    4  C   UNL     1      43.465 -13.837   6.715  1.00  0.00     0.295 C 
HETATM    5  O   UNL     1      43.567 -13.944   7.931  1.00  0.00    -0.259 OA
HETATM    6  O   UNL     1      43.389 -14.951   5.902  1.00  0.00    -0.274 OA
HETATM    7  C   UNL     1      42.938 -14.866   4.572  1.00  0.00     0.099 A 
HETATM    8  C   UNL     1      42.760 -13.612   3.981  1.00  0.00     0.006 A 
HETATM    9  C   UNL     1      42.615 -16.076   3.931  1.00  0.00     0.007 A 
HETATM   10  C   UNL     1      42.852 -17.397   4.614  1.00  0.00     0.054 C 
HETATM   11  C   UNL     1      42.018 -15.992   2.668  1.00  0.00     0.082 A 
HETATM   12  C   UNL     1      41.774 -14.750   2.058  1.00  0.00     0.002 A 
HETATM   13  C   UNL     1      42.173 -13.572   2.709  1.00  0.00     0.026 A 
ENDROOT
BRANCH  12  14
HETATM   14  C   UNL     1      41.009 -14.679   0.767  1.00  0.00     0.274 C 
BRANCH  14  15
HETATM   15  N   UNL     1      41.477 -13.475  -0.002  1.00  0.00    -0.067 N 
HETATM   16  H   UNL     1      41.981 -12.889   0.678  1.00  0.00     0.277 HD
HETATM   17  H   UNL     1      42.243 -13.829  -0.602  1.00  0.00     0.277 HD
BRANCH  15  18
HETATM   18  C   UNL     1      40.541 -12.690  -0.877  1.00  0.00     0.189 C 
HETATM   19  C   UNL     1      39.063 -12.797  -0.508  1.00  0.00     0.060 C 
HETATM   20  C   UNL     1      38.559 -11.790   0.520  1.00  0.00     0.237 C 
HETATM   21  N   UNL     1      39.696 -11.181   1.295  1.00  0.00    -0.067 N 
HETATM   22  H   UNL     1      40.183 -11.934   1.802  1.00  0.00     0.280 HD
HETATM   23  C   UNL     1      40.680 -10.455   0.413  1.00  0.00     0.237 C 
HETATM   24  C   UNL     1      40.983 -11.226  -0.876  1.00  0.00     0.060 C 
BRANCH  21  25
HETATM   25  C   UNL     1      39.217 -10.294   2.467  1.00  0.00     0.273 C 
BRANCH  25  26
HETATM   26  C   UNL     1      39.469 -10.827   3.848  1.00  0.00    -0.033 A 
HETATM   27  C   UNL     1      39.293 -12.197   4.113  1.00  0.00     0.009 A 
HETATM   28  C   UNL     1      39.480 -12.700   5.399  1.00  0.00     0.001 A 
HETATM   29  C   UNL     1      39.849 -11.847   6.434  1.00  0.00     0.000 A 
HETATM   30  C   UNL     1      40.041 -10.490   6.184  1.00  0.00     0.001 A 
HETATM   31  C   UNL     1      39.858  -9.980   4.896  1.00  0.00     0.009 A 
ENDBRANCH  25  26
ENDBRANCH  21  25
ENDBRANCH  15  18
ENDBRANCH  14  15
ENDBRANCH  12  14
BRANCH  11  32
HETATM   32  O   UNL     1      41.580 -17.119   2.004  1.00  0.00    -0.359 OA
HETATM   33  H   UNL     1      41.081 -17.633   2.679  1.00  0.00     0.217 HD
ENDBRANCH  11  32
BRANCH   3  34
HETATM   34  C   UNL     1      43.742 -11.373   6.993  1.00  0.00     0.156 C 
BRANCH  34  35
HETATM   35  C   UNL     1      45.238 -11.228   7.198  1.00  0.00     0.262 C 
HETATM   36  O   UNL     1      46.069 -11.226   6.299  1.00  0.00    -0.265 OA
BRANCH  35  37
HETATM   37  O   UNL     1      45.496 -11.049   8.522  1.00  0.00    -0.326 OA
HETATM   38  C   UNL     1      45.372  -9.700   8.977  1.00  0.00     0.213 C 
ENDBRANCH  35  37
ENDBRANCH  34  35
ENDBRANCH   3  34
TORSDOF 9
ENDMDL
MODEL 3
REMARK VINA RESULT:      -7.9      2.897      4.771
REMARK  9 active torsions:
REMARK  status: ('A' for Active; 'I' for Inactive)
REMARK    1  A    between atoms: C_3  and  C_4 
REMARK    2  A    between atoms: C_4  and  C_5 
REMARK    3  A    between atoms: C_5  and  O_6 
REMARK    4  A    between atoms: C_16  and  O_17 
REMARK    5  A    between atoms: C_18  and  C_19 
REMARK    6  A    between atoms: C_19  and  N_20 
REMARK    7  A    between atoms: N_20  and  C_23 
REMARK    8  A    between atoms: N_26  and  C_28 
REMARK    9  A    between atoms: C_28  and  C_29 
ROOT
HETATM    1  C   UNL     1      43.919 -15.580   5.860  1.00  0.00     0.050 C 
HETATM    2  C   UNL     1      43.218 -16.122   4.640  1.00  0.00    -0.036 C 
HETATM    3  C   UNL     1      43.599 -17.246   3.995  1.00  0.00     0.034 C 
HETATM    4  C   UNL     1      42.943 -17.670   2.729  1.00  0.00     0.295 C 
HETATM    5  O   UNL     1      43.167 -18.760   2.218  1.00  0.00    -0.259 OA
HETATM    6  O   UNL     1      42.077 -16.768   2.143  1.00  0.00    -0.274 OA
HETATM    7  C   UNL     1      41.548 -15.679   2.858  1.00  0.00     0.099 A 
HETATM    8  C   UNL     1      42.058 -15.368   4.121  1.00  0.00     0.006 A 
HETATM    9  C   UNL     1      40.459 -15.002   2.276  1.00  0.00     0.007 A 
HETATM   10  C   UNL     1      39.971 -15.371   0.900  1.00  0.00     0.054 C 
HETATM   11  C   UNL     1      39.827 -14.023   3.049  1.00  0.00     0.082 A 
HETATM   12  C   UNL     1      40.276 -13.713   4.344  1.00  0.00     0.002 A 
HETATM   13  C   UNL     1      41.405 -14.370   4.858  1.00  0.00     0.026 A 
ENDROOT
BRANCH  12  14
HETATM   14  C   UNL     1      39.499 -12.759   5.205  1.00  0.00     0.274 C 
BRANCH  14  15
HETATM   15  N   UNL     1      39.467 -11.418   4.525  1.00  0.00    -0.067 N 
HETATM   16  H   UNL     1      40.438 -11.222   4.248  1.00  0.00     0.277 HD
HETATM   17  H   UNL     1      39.007 -11.597   3.616  1.00  0.00     0.277 HD
BRANCH  15  18
HETATM   18  C   UNL     1      38.784 -10.235   5.154  1.00  0.00     0.189 C 
HETATM   19  C   UNL     1      38.556 -10.342   6.660  1.00  0.00     0.060 C 
HETATM   20  C   UNL     1      39.697  -9.845   7.543  1.00  0.00     0.237 C 
HETATM   21  N   UNL     1      40.988  -9.762   6.776  1.00  0.00    -0.067 N 
HETATM   22  H   UNL     1      41.231 -10.708   6.445  1.00  0.00     0.280 HD
HETATM   23  C   UNL     1      40.906  -8.827   5.595  1.00  0.00     0.237 C 
HETATM   24  C   UNL     1      39.588  -8.976   4.827  1.00  0.00     0.060 C 
BRANCH  21  25
HETATM   25  C   UNL     1      42.202  -9.439   7.676  1.00  0.00     0.273 C 
BRANCH  25  26
HETATM   26  C   UNL     1      43.481 -10.155   7.347  1.00  0.00    -0.033 A 
HETATM   27  C   UNL     1      44.669  -9.807   8.014  1.00  0.00     0.009 A 
HETATM   28  C   UNL     1      45.873 -10.430   7.690  1.00  0.00     0.001 A 
HETATM   29  C   UNL     1      45.906 -11.408   6.702  1.00  0.00     0.000 A 
HETATM   30  C   UNL     1      44.735 -11.774   6.044  1.00  0.00     0.001 A 
HETATM   31  C   UNL     1      43.525 -11.156   6.366  1.00  0.00     0.009 A 
ENDBRANCH  25  26
ENDBRANCH  21  25
ENDBRANCH  15  18
ENDBRANCH  14  15
ENDBRANCH  12  14
BRANCH  11  32
HETATM   32  O   UNL     1      38.694 -13.374   2.601  1.00  0.00    -0.359 OA
HETATM   33  H   UNL     1      38.570 -12.622   3.225  1.00  0.00     0.217 HD
ENDBRANCH  11  32
BRANCH   3  34
HETATM   34  C   UNL     1      44.684 -18.206   4.433  1.00  0.00     0.156 C 
BRANCH  34  35
HETATM   35  C   UNL     1      44.130 -19.252   5.382  1.00  0.00     0.262 C 
HETATM   36  O   UNL     1      43.298 -19.034   6.254  1.00  0.00    -0.265 OA
BRANCH  35  37
HETATM   37  O   UNL     1      44.662 -20.466   5.075  1.00  0.00    -0.326 OA
HETATM   38  C   UNL     1      43.838 -21.287   4.245  1.00  0.00     0.213 C 
ENDBRANCH  35  37
ENDBRANCH  34  35
ENDBRANCH   3  34
TORSDOF 9
ENDMDL
MODEL 4
REMARK VINA RESULT:      -7.8      4.030      6.516
REMARK  9 active torsions:
REMARK  status: ('A' for Active; 'I' for Inactive)
REMARK    1  A    between atoms: C_3  and  C_4 
REMARK    2  A    between atoms: C_4  and  C_5 
REMARK    3  A    between atoms: C_5  and  O_6 
REMARK    4  A    between atoms: C_16  and  O_17 
REMARK    5  A    between atoms: C_18  and  C_19 
REMARK    6  A    between atoms: C_19  and  N_20 
REMARK    7  A    between atoms: N_20  and  C_23 
REMARK    8  A    between atoms: N_26  and  C_28 
REMARK    9  A    between atoms: C_28  and  C_29 
ROOT
HETATM    1  C   UNL     1      40.727 -15.821   6.782  1.00  0.00     0.050 C 
HETATM    2  C   UNL     1      41.397 -15.104   5.636  1.00  0.00    -0.036 C 
HETATM    3  C   UNL     1      42.149 -15.726   4.702  1.00  0.00     0.034 C 
HETATM    4  C   UNL     1      42.882 -14.954   3.662  1.00  0.00     0.295 C 
HETATM    5  O   UNL     1      43.437 -15.504   2.719  1.00  0.00    -0.259 OA
HETATM    6  O   UNL     1      42.921 -13.582   3.815  1.00  0.00    -0.274 OA
HETATM    7  C   UNL     1      42.030 -12.908   4.670  1.00  0.00     0.099 A 
HETATM    8  C   UNL     1      41.225 -13.640   5.545  1.00  0.00     0.006 A 
HETATM    9  C   UNL     1      41.950 -11.509   4.532  1.00  0.00     0.007 A 
HETATM   10  C   UNL     1      42.864 -10.776   3.585  1.00  0.00     0.054 C 
HETATM   11  C   UNL     1      40.957 -10.850   5.263  1.00  0.00     0.082 A 
HETATM   12  C   UNL     1      40.092 -11.554   6.118  1.00  0.00     0.002 A 
HETATM   13  C   UNL     1      40.252 -12.939   6.272  1.00  0.00     0.026 A 
ENDROOT
BRANCH  12  14
HETATM   14  C   UNL     1      38.948 -10.845   6.785  1.00  0.00     0.274 C 
BRANCH  14  15
HETATM   15  N   UNL     1      39.186 -10.844   8.270  1.00  0.00    -0.067 N 
HETATM   16  H   UNL     1      38.582 -11.586   8.650  1.00  0.00     0.277 HD
HETATM   17  H   UNL     1      40.132 -11.247   8.384  1.00  0.00     0.277 HD
BRANCH  15  18
HETATM   18  C   UNL     1      39.133  -9.574   9.073  1.00  0.00     0.189 C 
HETATM   19  C   UNL     1      39.520  -9.718  10.543  1.00  0.00     0.060 C 
HETATM   20  C   UNL     1      41.006  -9.570  10.858  1.00  0.00     0.237 C 
HETATM   21  N   UNL     1      41.849  -9.753   9.625  1.00  0.00    -0.067 N 
HETATM   22  H   UNL     1      41.695 -10.706   9.265  1.00  0.00     0.280 HD
HETATM   23  C   UNL     1      41.526  -8.753   8.544  1.00  0.00     0.237 C 
HETATM   24  C   UNL     1      40.018  -8.529   8.391  1.00  0.00     0.060 C 
BRANCH  21  25
HETATM   25  C   UNL     1      43.363  -9.792   9.934  1.00  0.00     0.273 C 
BRANCH  25  26
HETATM   26  C   UNL     1      44.255 -10.261   8.820  1.00  0.00    -0.033 A 
HETATM   27  C   UNL     1      43.848 -11.327   7.998  1.00  0.00     0.009 A 
HETATM   28  C   UNL     1      44.682 -11.803   6.989  1.00  0.00     0.001 A 
HETATM   29  C   UNL     1      45.928 -11.221   6.783  1.00  0.00     0.000 A 
HETATM   30  C   UNL     1      46.339 -10.154   7.579  1.00  0.00     0.001 A 
HETATM   31  C   UNL     1      45.506  -9.670   8.590  1.00  0.00     0.009 A 
ENDBRANCH  25  26
ENDBRANCH  21  25
ENDBRANCH  15  18
ENDBRANCH  14  15
ENDBRANCH  12  14
BRANCH  11  32
HETATM   32  O   UNL     1      40.740  -9.494   5.121  1.00  0.00    -0.359 OA
HETATM   33  H   UNL     1      41.342  -9.216   4.394  1.00  0.00     0.217 HD
ENDBRANCH  11  32
BRANCH   3  34
HETATM   34  C   UNL     1      42.351 -17.219   4.562  1.00  0.00     0.156 C 
BRANCH  34  35
HETATM   35  C   UNL     1      43.584 -17.673   5.320  1.00  0.00     0.262 C 
HETATM   36  O   UNL     1      43.753 -17.534   6.524  1.00  0.00    -0.265 OA
BRANCH  35  37
HETATM   37  O   UNL     1      44.435 -18.299   4.463  1.00  0.00    -0.326 OA
HETATM   38  C   UNL     1      44.212 -19.703   4.319  1.00  0.00     0.213 C 
ENDBRANCH  35  37
ENDBRANCH  34  35
ENDBRANCH   3  34
TORSDOF 9
ENDMDL
MODEL 5
REMARK VINA RESULT:      -7.7      8.500     12.178
REMARK  9 active torsions:
REMARK  status: ('A' for Active; 'I' for Inactive)
REMARK    1  A    between atoms: C_3  and  C_4 
REMARK    2  A    between atoms: C_4  and  C_5 
REMARK    3  A    between atoms: C_5  and  O_6 
REMARK    4  A    between atoms: C_16  and  O_17 
REMARK    5  A    between atoms: C_18  and  C_19 
REMARK    6  A    between atoms: C_19  and  N_20 
REMARK    7  A    between atoms: N_20  and  C_23 
REMARK    8  A    between atoms: N_26  and  C_28 
REMARK    9  A    between atoms: C_28  and  C_29 
ROOT
HETATM    1  C   UNL     1      42.676  -6.803   8.661  1.00  0.00     0.050 C 
HETATM    2  C   UNL     1      42.945  -7.662   9.871  1.00  0.00    -0.036 C 
HETATM    3  C   UNL     1      43.418  -8.925   9.802  1.00  0.00     0.034 C 
HETATM    4  C   UNL     1      43.554  -9.767  11.021  1.00  0.00     0.295 C 
HETATM    5  O   UNL     1      44.124 -10.850  11.000  1.00  0.00    -0.259 OA
HETATM    6  O   UNL     1      42.992  -9.276  12.184  1.00  0.00    -0.274 OA
HETATM    7  C   UNL     1      42.642  -7.920  12.321  1.00  0.00     0.099 A 
HETATM    8  C   UNL     1      42.661  -7.084  11.201  1.00  0.00     0.006 A 
HETATM    9  C   UNL     1      42.362  -7.463  13.622  1.00  0.00     0.007 A 
HETATM   10  C   UNL     1      42.335  -8.419  14.785  1.00  0.00     0.054 C 
HETATM   11  C   UNL     1      42.169  -6.087  13.789  1.00  0.00     0.082 A 
HETATM   12  C   UNL     1      42.229  -5.204  12.698  1.00  0.00     0.002 A 
HETATM   13  C   UNL     1      42.448  -5.715  11.409  1.00  0.00     0.026 A 
ENDROOT
BRANCH  12  14
HETATM   14  C   UNL     1      42.156  -3.721  12.922  1.00  0.00     0.274 C 
BRANCH  14  15
HETATM   15  N   UNL     1      40.741  -3.360  13.283  1.00  0.00    -0.067 N 
HETATM   16  H   UNL     1      40.286  -4.245  13.546  1.00  0.00     0.277 HD
HETATM   17  H   UNL     1      40.820  -2.871  14.191  1.00  0.00     0.277 HD
BRANCH  15  18
HETATM   18  C   UNL     1      39.893  -2.508  12.380  1.00  0.00     0.189 C 
HETATM   19  C   UNL     1      40.267  -2.557  10.901  1.00  0.00     0.060 C 
HETATM   20  C   UNL     1      39.603  -3.660  10.082  1.00  0.00     0.237 C 
HETATM   21  N   UNL     1      39.059  -4.748  10.967  1.00  0.00    -0.067 N 
HETATM   22  H   UNL     1      39.845  -5.168  11.485  1.00  0.00     0.280 HD
HETATM   23  C   UNL     1      38.028  -4.244  11.946  1.00  0.00     0.237 C 
HETATM   24  C   UNL     1      38.428  -2.903  12.571  1.00  0.00     0.060 C 
BRANCH  21  25
HETATM   25  C   UNL     1      38.542  -5.967  10.170  1.00  0.00     0.273 C 
BRANCH  25  26
HETATM   26  C   UNL     1      38.964  -7.318  10.675  1.00  0.00    -0.033 A 
HETATM   27  C   UNL     1      39.365  -8.312   9.764  1.00  0.00     0.009 A 
HETATM   28  C   UNL     1      39.717  -9.583  10.212  1.00  0.00     0.001 A 
HETATM   29  C   UNL     1      39.680  -9.878  11.571  1.00  0.00     0.000 A 
HETATM   30  C   UNL     1      39.300  -8.899  12.486  1.00  0.00     0.001 A 
HETATM   31  C   UNL     1      38.949  -7.622  12.044  1.00  0.00     0.009 A 
ENDBRANCH  25  26
ENDBRANCH  21  25
ENDBRANCH  15  18
ENDBRANCH  14  15
ENDBRANCH  12  14
BRANCH  11  32
HETATM   32  O   UNL     1      41.983  -5.534  15.040  1.00  0.00    -0.359 OA
HETATM   33  H   UNL     1      42.786  -5.788  15.550  1.00  0.00     0.217 HD
ENDBRANCH  11  32
BRANCH   3  34
HETATM   34  C   UNL     1      43.870  -9.645   8.550  1.00  0.00     0.156 C 
BRANCH  34  35
HETATM   35  C   UNL     1      45.328  -9.351   8.252  1.00  0.00     0.262 C 
HETATM   36  O   UNL     1      45.814  -8.230   8.180  1.00  0.00    -0.265 OA
BRANCH  35  37
HETATM   37  O   UNL     1      46.009 -10.524   8.133  1.00  0.00    -0.326 OA
HETATM   38  C   UNL     1      45.821 -11.199   6.888  1.00  0.00     0.213 C 
ENDBRANCH  35  37
ENDBRANCH  34  35
ENDBRANCH   3  34
TORSDOF 9
ENDMDL
MODEL 6
REMARK VINA RESULT:      -7.6      1.533      4.240
REMARK  9 active torsions:
REMARK  status: ('A' for Active; 'I' for Inactive)
REMARK    1  A    between atoms: C_3  and  C_4 
REMARK    2  A    between atoms: C_4  and  C_5 
REMARK    3  A    between atoms: C_5  and  O_6 
REMARK    4  A    between atoms: C_16  and  O_17 
REMARK    5  A    between atoms: C_18  and  C_19 
REMARK    6  A    between atoms: C_19  and  N_20 
REMARK    7  A    between atoms: N_20  and  C_23 
REMARK    8  A    between atoms: N_26  and  C_28 
REMARK    9  A    between atoms: C_28  and  C_29 
ROOT
HETATM    1  C   UNL     1      43.916 -15.525   5.756  1.00  0.00     0.050 C 
HETATM    2  C   UNL     1      43.184 -16.110   4.574  1.00  0.00    -0.036 C 
HETATM    3  C   UNL     1      43.545 -17.261   3.965  1.00  0.00     0.034 C 
HETATM    4  C   UNL     1      42.857 -17.730   2.732  1.00  0.00     0.295 C 
HETATM    5  O   UNL     1      43.064 -18.840   2.258  1.00  0.00    -0.259 OA
HETATM    6  O   UNL     1      41.980 -16.847   2.132  1.00  0.00    -0.274 OA
HETATM    7  C   UNL     1      41.472 -15.730   2.818  1.00  0.00     0.099 A 
HETATM    8  C   UNL     1      42.014 -15.372   4.055  1.00  0.00     0.006 A 
HETATM    9  C   UNL     1      40.372 -15.070   2.237  1.00  0.00     0.007 A 
HETATM   10  C   UNL     1      39.849 -15.490   0.888  1.00  0.00     0.054 C 
HETATM   11  C   UNL     1      39.763 -14.059   2.987  1.00  0.00     0.082 A 
HETATM   12  C   UNL     1      40.244 -13.702   4.257  1.00  0.00     0.002 A 
HETATM   13  C   UNL     1      41.383 -14.344   4.768  1.00  0.00     0.026 A 
ENDROOT
BRANCH  12  14
HETATM   14  C   UNL     1      39.492 -12.711   5.099  1.00  0.00     0.274 C 
BRANCH  14  15
HETATM   15  N   UNL     1      39.414 -11.409   4.352  1.00  0.00    -0.067 N 
HETATM   16  H   UNL     1      39.144 -11.655   3.390  1.00  0.00     0.277 HD
HETATM   17  H   UNL     1      38.559 -10.951   4.713  1.00  0.00     0.277 HD
BRANCH  15  18
HETATM   18  C   UNL     1      40.528 -10.402   4.411  1.00  0.00     0.189 C 
HETATM   19  C   UNL     1      41.870 -10.885   3.868  1.00  0.00     0.060 C 
HETATM   20  C   UNL     1      42.095 -10.685   2.372  1.00  0.00     0.237 C 
HETATM   21  N   UNL     1      40.796 -10.461   1.648  1.00  0.00    -0.067 N 
HETATM   22  H   UNL     1      40.207 -11.298   1.771  1.00  0.00     0.280 HD
HETATM   23  C   UNL     1      40.050  -9.249   2.148  1.00  0.00     0.237 C 
HETATM   24  C   UNL     1      40.083  -9.137   3.676  1.00  0.00     0.060 C 
BRANCH  21  25
HETATM   25  C   UNL     1      40.961 -10.436   0.111  1.00  0.00     0.273 C 
BRANCH  25  26
HETATM   26  C   UNL     1      40.206 -11.485  -0.655  1.00  0.00    -0.033 A 
HETATM   27  C   UNL     1      38.810 -11.585  -0.515  1.00  0.00     0.009 A 
HETATM   28  C   UNL     1      38.100 -12.579  -1.184  1.00  0.00     0.001 A 
HETATM   29  C   UNL     1      38.770 -13.483  -2.002  1.00  0.00     0.000 A 
HETATM   30  C   UNL     1      40.151 -13.387  -2.162  1.00  0.00     0.001 A 
HETATM   31  C   UNL     1      40.868 -12.390  -1.497  1.00  0.00     0.009 A 
ENDBRANCH  25  26
ENDBRANCH  21  25
ENDBRANCH  15  18
ENDBRANCH  14  15
ENDBRANCH  12  14
BRANCH  11  32
HETATM   32  O   UNL     1      38.622 -13.423   2.541  1.00  0.00    -0.359 OA
HETATM   33  H   UNL     1      38.814 -12.462   2.637  1.00  0.00     0.217 HD
ENDBRANCH  11  32
BRANCH   3  34
HETATM   34  C   UNL     1      44.637 -18.208   4.413  1.00  0.00     0.156 C 
BRANCH  34  35
HETATM   35  C   UNL     1      44.098 -19.227   5.399  1.00  0.00     0.262 C 
HETATM   36  O   UNL     1      43.307 -18.978   6.299  1.00  0.00    -0.265 OA
BRANCH  35  37
HETATM   37  O   UNL     1      44.589 -20.458   5.088  1.00  0.00    -0.326 OA
HETATM   38  C   UNL     1      43.595 -21.466   4.895  1.00  0.00     0.213 C 
ENDBRANCH  35  37
ENDBRANCH  34  35
ENDBRANCH   3  34
TORSDOF 9
ENDMDL
MODEL 7
REMARK VINA RESULT:      -7.5      5.454      8.747
REMARK  9 active torsions:
REMARK  status: ('A' for Active; 'I' for Inactive)
REMARK    1  A    between atoms: C_3  and  C_4 
REMARK    2  A    between atoms: C_4  and  C_5 
REMARK    3  A    between atoms: C_5  and  O_6 
REMARK    4  A    between atoms: C_16  and  O_17 
REMARK    5  A    between atoms: C_18  and  C_19 
REMARK    6  A    between atoms: C_19  and  N_20 
REMARK    7  A    between atoms: N_20  and  C_23 
REMARK    8  A    between atoms: N_26  and  C_28 
REMARK    9  A    between atoms: C_28  and  C_29 
ROOT
HETATM    1  C   UNL     1      42.064 -11.220   2.153  1.00  0.00     0.050 C 
HETATM    2  C   UNL     1      41.635 -12.616   2.530  1.00  0.00    -0.036 C 
HETATM    3  C   UNL     1      40.971 -13.445   1.696  1.00  0.00     0.034 C 
HETATM    4  C   UNL     1      40.471 -14.768   2.159  1.00  0.00     0.295 C 
HETATM    5  O   UNL     1      40.009 -15.594   1.383  1.00  0.00    -0.259 OA
HETATM    6  O   UNL     1      40.537 -15.020   3.516  1.00  0.00    -0.274 OA
HETATM    7  C   UNL     1      41.354 -14.257   4.370  1.00  0.00     0.099 A 
HETATM    8  C   UNL     1      41.954 -13.089   3.893  1.00  0.00     0.006 A 
HETATM    9  C   UNL     1      41.583 -14.772   5.661  1.00  0.00     0.007 A 
HETATM   10  C   UNL     1      40.887 -16.025   6.123  1.00  0.00     0.054 C 
HETATM   11  C   UNL     1      42.517 -14.105   6.460  1.00  0.00     0.082 A 
HETATM   12  C   UNL     1      43.181 -12.955   6.000  1.00  0.00     0.002 A 
HETATM   13  C   UNL     1      42.873 -12.442   4.731  1.00  0.00     0.026 A 
ENDROOT
BRANCH  12  14
HETATM   14  C   UNL     1      44.277 -12.337   6.820  1.00  0.00     0.274 C 
BRANCH  14  15
HETATM   15  N   UNL     1      43.659 -11.651   8.007  1.00  0.00    -0.067 N 
HETATM   16  H   UNL     1      42.696 -12.008   8.065  1.00  0.00     0.277 HD
HETATM   17  H   UNL     1      44.110 -12.091   8.828  1.00  0.00     0.277 HD
BRANCH  15  18
HETATM   18  C   UNL     1      43.747 -10.161   8.186  1.00  0.00     0.189 C 
HETATM   19  C   UNL     1      42.469  -9.490   8.683  1.00  0.00     0.060 C 
HETATM   20  C   UNL     1      42.300  -9.418  10.197  1.00  0.00     0.237 C 
HETATM   21  N   UNL     1      43.196 -10.404  10.897  1.00  0.00    -0.067 N 
HETATM   22  H   UNL     1      42.933 -11.353  10.593  1.00  0.00     0.280 HD
HETATM   23  C   UNL     1      44.657 -10.173  10.605  1.00  0.00     0.237 C 
HETATM   24  C   UNL     1      44.911  -9.850   9.129  1.00  0.00     0.060 C 
BRANCH  21  25
HETATM   25  C   UNL     1      42.923 -10.490  12.416  1.00  0.00     0.273 C 
BRANCH  25  26
HETATM   26  C   UNL     1      42.444  -9.229  13.077  1.00  0.00    -0.033 A 
HETATM   27  C   UNL     1      43.309  -8.125  13.187  1.00  0.00     0.009 A 
HETATM   28  C   UNL     1      42.896  -6.963  13.836  1.00  0.00     0.001 A 
HETATM   29  C   UNL     1      41.618  -6.886  14.378  1.00  0.00     0.000 A 
HETATM   30  C   UNL     1      40.745  -7.966  14.264  1.00  0.00     0.001 A 
HETATM   31  C   UNL     1      41.152  -9.132  13.612  1.00  0.00     0.009 A 
ENDBRANCH  25  26
ENDBRANCH  21  25
ENDBRANCH  15  18
ENDBRANCH  14  15
ENDBRANCH  12  14
BRANCH  11  32
HETATM   32  O   UNL     1      42.877 -14.589   7.701  1.00  0.00    -0.359 OA
HETATM   33  H   UNL     1      43.261 -15.478   7.524  1.00  0.00     0.217 HD
ENDBRANCH  11  32
BRANCH   3  34
HETATM   34  C   UNL     1      40.654 -13.187   0.239  1.00  0.00     0.156 C 
BRANCH  34  35
HETATM   35  C   UNL     1      39.269 -12.590   0.084  1.00  0.00     0.262 C 
HETATM   36  O   UNL     1      38.688 -11.940   0.944  1.00  0.00    -0.265 OA
BRANCH  35  37
HETATM   37  O   UNL     1      38.806 -12.845  -1.169  1.00  0.00    -0.326 OA
HETATM   38  C   UNL     1      39.037 -14.178  -1.631  1.00  0.00     0.213 C 
ENDBRANCH  35  37
ENDBRANCH  34  35
ENDBRANCH   3  34
TORSDOF 9
ENDMDL
MODEL 8
REMARK VINA RESULT:      -7.5      4.709      8.507
REMARK  9 active torsions:
REMARK  status: ('A' for Active; 'I' for Inactive)
REMARK    1  A    between atoms: C_3  and  C_4 
REMARK    2  A    between atoms: C_4  and  C_5 
REMARK    3  A    between atoms: C_5  and  O_6 
REMARK    4  A    between atoms: C_16  and  O_17 
REMARK    5  A    between atoms: C_18  and  C_19 
REMARK    6  A    between atoms: C_19  and  N_20 
REMARK    7  A    between atoms: N_20  and  C_23 
REMARK    8  A    between atoms: N_26  and  C_28 
REMARK    9  A    between atoms: C_28  and  C_29 
ROOT
HETATM    1  C   UNL     1      40.337  -9.488   8.331  1.00  0.00     0.050 C 
HETATM    2  C   UNL     1      41.734  -9.393   8.891  1.00  0.00    -0.036 C 
HETATM    3  C   UNL     1      42.018  -8.892  10.113  1.00  0.00     0.034 C 
HETATM    4  C   UNL     1      43.424  -8.715  10.567  1.00  0.00     0.295 C 
HETATM    5  O   UNL     1      43.699  -8.411  11.721  1.00  0.00    -0.259 OA
HETATM    6  O   UNL     1      44.413  -8.894   9.619  1.00  0.00    -0.274 OA
HETATM    7  C   UNL     1      44.162  -9.560   8.406  1.00  0.00     0.099 A 
HETATM    8  C   UNL     1      42.848  -9.868   8.044  1.00  0.00     0.006 A 
HETATM    9  C   UNL     1      45.284  -9.953   7.651  1.00  0.00     0.007 A 
HETATM   10  C   UNL     1      46.675  -9.570   8.083  1.00  0.00     0.054 C 
HETATM   11  C   UNL     1      45.050 -10.752   6.526  1.00  0.00     0.082 A 
HETATM   12  C   UNL     1      43.748 -11.126   6.155  1.00  0.00     0.002 A 
HETATM   13  C   UNL     1      42.656 -10.658   6.903  1.00  0.00     0.026 A 
ENDROOT
BRANCH  12  14
HETATM   14  C   UNL     1      43.533 -12.095   5.028  1.00  0.00     0.274 C 
BRANCH  14  15
HETATM   15  N   UNL     1      42.060 -12.373   4.909  1.00  0.00    -0.067 N 
HETATM   16  H   UNL     1      41.933 -13.346   5.216  1.00  0.00     0.277 HD
HETATM   17  H   UNL     1      41.629 -11.837   5.682  1.00  0.00     0.277 HD
BRANCH  15  18
HETATM   18  C   UNL     1      41.299 -12.048   3.653  1.00  0.00     0.189 C 
HETATM   19  C   UNL     1      42.070 -12.260   2.353  1.00  0.00     0.060 C 
HETATM   20  C   UNL     1      41.990 -13.659   1.751  1.00  0.00     0.237 C 
HETATM   21  N   UNL     1      41.539 -14.670   2.770  1.00  0.00    -0.067 N 
HETATM   22  H   UNL     1      42.232 -14.692   3.533  1.00  0.00     0.280 HD
HETATM   23  C   UNL     1      40.179 -14.356   3.342  1.00  0.00     0.237 C 
HETATM   24  C   UNL     1      40.005 -12.864   3.642  1.00  0.00     0.060 C 
BRANCH  21  25
HETATM   25  C   UNL     1      41.620 -16.123   2.251  1.00  0.00     0.273 C 
BRANCH  25  26
HETATM   26  C   UNL     1      42.636 -17.009   2.913  1.00  0.00    -0.033 A 
HETATM   27  C   UNL     1      43.033 -18.206   2.290  1.00  0.00     0.009 A 
HETATM   28  C   UNL     1      43.942 -19.061   2.911  1.00  0.00     0.001 A 
HETATM   29  C   UNL     1      44.468 -18.732   4.156  1.00  0.00     0.000 A 
HETATM   30  C   UNL     1      44.096 -17.543   4.778  1.00  0.00     0.001 A 
HETATM   31  C   UNL     1      43.188 -16.680   4.159  1.00  0.00     0.009 A 
ENDBRANCH  25  26
ENDBRANCH  21  25
ENDBRANCH  15  18
ENDBRANCH  14  15
ENDBRANCH  12  14
BRANCH  11  32
HETATM   32  O   UNL     1      46.092 -11.264   5.780  1.00  0.00    -0.359 OA
HETATM   33  H   UNL     1      46.905 -11.008   6.271  1.00  0.00     0.217 HD
ENDBRANCH  11  32
BRANCH   3  34
HETATM   34  C   UNL     1      41.015  -8.462  11.161  1.00  0.00     0.156 C 
BRANCH  34  35
HETATM   35  C   UNL     1      40.442  -9.664  11.887  1.00  0.00     0.262 C 
HETATM   36  O   UNL     1      39.550 -10.382  11.454  1.00  0.00    -0.265 OA
BRANCH  35  37
HETATM   37  O   UNL     1      41.110  -9.843  13.059  1.00  0.00    -0.326 OA
HETATM   38  C   UNL     1      41.015  -8.749  13.973  1.00  0.00     0.213 C 
ENDBRANCH  35  37
ENDBRANCH  34  35
ENDBRANCH   3  34
TORSDOF 9
ENDMDL
MODEL 9
REMARK VINA RESULT:      -7.5      5.416      7.719
REMARK  9 active torsions:
REMARK  status: ('A' for Active; 'I' for Inactive)
REMARK    1  A    between atoms: C_3  and  C_4 
REMARK    2  A    between atoms: C_4  and  C_5 
REMARK    3  A    between atoms: C_5  and  O_6 
REMARK    4  A    between atoms: C_16  and  O_17 
REMARK    5  A    between atoms: C_18  and  C_19 
REMARK    6  A    between atoms: C_19  and  N_20 
REMARK    7  A    between atoms: N_20  and  C_23 
REMARK    8  A    between atoms: N_26  and  C_28 
REMARK    9  A    between atoms: C_28  and  C_29 
ROOT
HETATM    1  C   UNL     1      44.357 -16.212   6.761  1.00  0.00     0.050 C 
HETATM    2  C   UNL     1      43.542 -15.831   5.550  1.00  0.00    -0.036 C 
HETATM    3  C   UNL     1      42.990 -16.730   4.706  1.00  0.00     0.034 C 
HETATM    4  C   UNL     1      42.295 -16.297   3.464  1.00  0.00     0.295 C 
HETATM    5  O   UNL     1      41.657 -17.080   2.773  1.00  0.00    -0.259 OA
HETATM    6  O   UNL     1      42.414 -14.965   3.114  1.00  0.00    -0.274 OA
HETATM    7  C   UNL     1      42.837 -13.993   4.039  1.00  0.00     0.099 A 
HETATM    8  C   UNL     1      43.351 -14.392   5.275  1.00  0.00     0.006 A 
HETATM    9  C   UNL     1      42.640 -12.646   3.681  1.00  0.00     0.007 A 
HETATM   10  C   UNL     1      42.102 -12.281   2.323  1.00  0.00     0.054 C 
HETATM   11  C   UNL     1      42.911 -11.679   4.655  1.00  0.00     0.082 A 
HETATM   12  C   UNL     1      43.382 -12.039   5.930  1.00  0.00     0.002 A 
HETATM   13  C   UNL     1      43.624 -13.392   6.218  1.00  0.00     0.026 A 
ENDROOT
BRANCH  12  14
HETATM   14  C   UNL     1      43.533 -10.998   7.001  1.00  0.00     0.274 C 
BRANCH  14  15
HETATM   15  N   UNL     1      42.165 -10.604   7.483  1.00  0.00    -0.067 N 
HETATM   16  H   UNL     1      41.510 -10.926   6.758  1.00  0.00     0.277 HD
HETATM   17  H   UNL     1      41.967 -11.250   8.266  1.00  0.00     0.277 HD
BRANCH  15  18
HETATM   18  C   UNL     1      41.873  -9.209   7.961  1.00  0.00     0.189 C 
HETATM   19  C   UNL     1      40.746  -9.096   8.986  1.00  0.00     0.060 C 
HETATM   20  C   UNL     1      41.157  -9.251  10.447  1.00  0.00     0.237 C 
HETATM   21  N   UNL     1      42.499  -9.919  10.572  1.00  0.00    -0.067 N 
HETATM   22  H   UNL     1      42.431 -10.862  10.160  1.00  0.00     0.280 HD
HETATM   23  C   UNL     1      43.600  -9.152   9.883  1.00  0.00     0.237 C 
HETATM   24  C   UNL     1      43.162  -8.605   8.521  1.00  0.00     0.060 C 
BRANCH  21  25
HETATM   25  C   UNL     1      42.868 -10.259  12.034  1.00  0.00     0.273 C 
BRANCH  25  26
HETATM   26  C   UNL     1      42.621  -9.178  13.048  1.00  0.00    -0.033 A 
HETATM   27  C   UNL     1      41.573  -9.315  13.976  1.00  0.00     0.009 A 
HETATM   28  C   UNL     1      41.304  -8.303  14.895  1.00  0.00     0.001 A 
HETATM   29  C   UNL     1      42.076  -7.146  14.903  1.00  0.00     0.000 A 
HETATM   30  C   UNL     1      43.126  -7.003  14.000  1.00  0.00     0.001 A 
HETATM   31  C   UNL     1      43.404  -8.015  13.079  1.00  0.00     0.009 A 
ENDBRANCH  25  26
ENDBRANCH  21  25
ENDBRANCH  15  18
ENDBRANCH  14  15
ENDBRANCH  12  14
BRANCH  11  32
HETATM   32  O   UNL     1      42.658 -10.341   4.430  1.00  0.00    -0.359 OA
HETATM   33  H   UNL     1      41.824 -10.326   3.908  1.00  0.00     0.217 HD
ENDBRANCH  11  32
BRANCH   3  34
HETATM   34  C   UNL     1      42.981 -18.233   4.879  1.00  0.00     0.156 C 
BRANCH  34  35
HETATM   35  C   UNL     1      44.160 -18.867   4.167  1.00  0.00     0.262 C 
HETATM   36  O   UNL     1      45.283 -18.383   4.107  1.00  0.00    -0.265 OA
BRANCH  35  37
HETATM   37  O   UNL     1      43.785 -20.073   3.660  1.00  0.00    -0.326 OA
HETATM   38  C   UNL     1      43.460 -20.059   2.268  1.00  0.00     0.213 C 
ENDBRANCH  35  37
ENDBRANCH  34  35
ENDBRANCH   3  34
TORSDOF 9
ENDMDL
MODEL 10
REMARK VINA RESULT:      -7.4      3.810      7.834
REMARK  9 active torsions:
REMARK  status: ('A' for Active; 'I' for Inactive)
REMARK    1  A    between atoms: C_3  and  C_4 
REMARK    2  A    between atoms: C_4  and  C_5 
REMARK    3  A    between atoms: C_5  and  O_6 
REMARK    4  A    between atoms: C_16  and  O_17 
REMARK    5  A    between atoms: C_18  and  C_19 
REMARK    6  A    between atoms: C_19  and  N_20 
REMARK    7  A    between atoms: N_20  and  C_23 
REMARK    8  A    between atoms: N_26  and  C_28 
REMARK    9  A    between atoms: C_28  and  C_29 
ROOT
HETATM    1  C   UNL     1      44.630 -11.904   7.474  1.00  0.00     0.050 C 
HETATM    2  C   UNL     1      43.803 -10.651   7.327  1.00  0.00    -0.036 C 
HETATM    3  C   UNL     1      43.931  -9.571   8.127  1.00  0.00     0.034 C 
HETATM    4  C   UNL     1      43.009  -8.409   8.009  1.00  0.00     0.295 C 
HETATM    5  O   UNL     1      43.205  -7.363   8.615  1.00  0.00    -0.259 OA
HETATM    6  O   UNL     1      41.906  -8.568   7.192  1.00  0.00    -0.274 OA
HETATM    7  C   UNL     1      41.834  -9.600   6.240  1.00  0.00     0.099 A 
HETATM    8  C   UNL     1      42.792 -10.618   6.249  1.00  0.00     0.006 A 
HETATM    9  C   UNL     1      40.822  -9.500   5.266  1.00  0.00     0.007 A 
HETATM   10  C   UNL     1      39.806  -8.390   5.325  1.00  0.00     0.054 C 
HETATM   11  C   UNL     1      40.841 -10.434   4.226  1.00  0.00     0.082 A 
HETATM   12  C   UNL     1      41.817 -11.444   4.168  1.00  0.00     0.002 A 
HETATM   13  C   UNL     1      42.767 -11.543   5.197  1.00  0.00     0.026 A 
ENDROOT
BRANCH  12  14
HETATM   14  C   UNL     1      41.899 -12.347   2.972  1.00  0.00     0.274 C 
BRANCH  14  15
HETATM   15  N   UNL     1      40.840 -13.407   3.097  1.00  0.00    -0.067 N 
HETATM   16  H   UNL     1      40.854 -13.700   4.084  1.00  0.00     0.277 HD
HETATM   17  H   UNL     1      39.945 -12.892   3.030  1.00  0.00     0.277 HD
BRANCH  15  18
HETATM   18  C   UNL     1      40.770 -14.565   2.141  1.00  0.00     0.189 C 
HETATM   19  C   UNL     1      42.058 -14.852   1.373  1.00  0.00     0.060 C 
HETATM   20  C   UNL     1      43.046 -15.791   2.058  1.00  0.00     0.237 C 
HETATM   21  N   UNL     1      42.768 -15.900   3.532  1.00  0.00    -0.067 N 
HETATM   22  H   UNL     1      42.876 -14.965   3.953  1.00  0.00     0.280 HD
HETATM   23  C   UNL     1      41.384 -16.423   3.828  1.00  0.00     0.237 C 
HETATM   24  C   UNL     1      40.322 -15.808   2.910  1.00  0.00     0.060 C 
BRANCH  21  25
HETATM   25  C   UNL     1      43.854 -16.696   4.291  1.00  0.00     0.273 C 
BRANCH  25  26
HETATM   26  C   UNL     1      43.879 -18.179   4.052  1.00  0.00    -0.033 A 
HETATM   27  C   UNL     1      43.722 -18.680   2.747  1.00  0.00     0.009 A 
HETATM   28  C   UNL     1      43.699 -20.053   2.513  1.00  0.00     0.001 A 
HETATM   29  C   UNL     1      43.836 -20.943   3.574  1.00  0.00     0.000 A 
HETATM   30  C   UNL     1      44.008 -20.461   4.870  1.00  0.00     0.001 A 
HETATM   31  C   UNL     1      44.035 -19.085   5.110  1.00  0.00     0.009 A 
ENDBRANCH  25  26
ENDBRANCH  21  25
ENDBRANCH  15  18
ENDBRANCH  14  15
ENDBRANCH  12  14
BRANCH  11  32
HETATM   32  O   UNL     1      39.949 -10.358   3.175  1.00  0.00    -0.359 OA
HETATM   33  H   UNL     1      39.655 -11.285   3.025  1.00  0.00     0.217 HD
ENDBRANCH  11  32
BRANCH   3  34
HETATM   34  C   UNL     1      44.975  -9.373   9.205  1.00  0.00     0.156 C 
BRANCH  34  35
HETATM   35  C   UNL     1      44.465  -9.858  10.548  1.00  0.00     0.262 C 
HETATM   36  O   UNL     1      44.290 -11.032  10.847  1.00  0.00    -0.265 OA
BRANCH  35  37
HETATM   37  O   UNL     1      44.288  -8.791  11.375  1.00  0.00    -0.326 OA
HETATM   38  C   UNL     1      43.003  -8.724  11.996  1.00  0.00     0.213 C 
ENDBRANCH  35  37
ENDBRANCH  34  35
ENDBRANCH   3  34
TORSDOF 9
ENDMDL
