MODEL 1
REMARK VINA RESULT:      -7.3      0.000      0.000
REMARK  11 active torsions:
REMARK  status: ('A' for Active; 'I' for Inactive)
REMARK    1  A    between atoms: C_2  and  N_3 
REMARK    2  A    between atoms: N_3  and  C_5 
REMARK    3  A    between atoms: N_3  and  C_32 
REMARK    4  A    between atoms: C_5  and  C_6 
REMARK    5  A    between atoms: N_7  and  C_8 
REMARK    6  A    between atoms: C_12  and  N_13 
REMARK    7  A    between atoms: C_16  and  C_17 
REMARK       I    between atoms: C_17  and  N_18 
REMARK    8  A    between atoms: N_18  and  N_19 
REMARK    9  A    between atoms: C_20  and  C_21 
REMARK   10  A    between atoms: C_25  and  O_26 
REMARK   11  A    between atoms: C_27  and  O_28 
ROOT
HETATM    1  C   UNL     1      43.371  -9.669   8.786  1.00  0.00     0.096 A 
HETATM    2  N   UNL     1      43.668  -9.130  10.034  1.00  0.00    -0.215 N 
HETATM    3  N   UNL     1      44.623  -9.897  10.625  1.00  0.00     0.012 NA
HETATM    4  N   UNL     1      45.017 -10.833   9.776  1.00  0.00    -0.152 NA
HETATM    5  C   UNL     1      44.274 -10.713   8.638  1.00  0.00     0.170 A 
ENDROOT
BRANCH   5   6
HETATM    6  C   UNL     1      44.437 -11.564   7.468  1.00  0.00     0.293 C 
HETATM    7  N   UNL     1      43.591 -12.656   7.438  1.00  0.00    -0.242 N 
HETATM    8  H   UNL     1      42.923 -12.812   8.190  1.00  0.00     0.192 HD
HETATM    9  O   UNL     1      45.292 -11.295   6.627  1.00  0.00    -0.264 OA
BRANCH   7  10
HETATM   10  N   UNL     1      43.638 -13.502   6.374  1.00  0.00    -0.184 NA
HETATM   11  C   UNL     1      43.548 -14.767   6.638  1.00  0.00     0.150 C 
BRANCH  11  12
HETATM   12  C   UNL     1      43.566 -15.771   5.554  1.00  0.00    -0.013 A 
HETATM   13  C   UNL     1      43.173 -15.417   4.259  1.00  0.00     0.035 A 
HETATM   14  C   UNL     1      43.185 -16.380   3.254  1.00  0.00     0.047 A 
HETATM   15 BR   UNL     1      42.639 -15.886   1.508  1.00  0.00    -0.048 Br
HETATM   16  C   UNL     1      43.591 -17.687   3.539  1.00  0.00     0.116 A 
HETATM   17  C   UNL     1      43.994 -18.045   4.836  1.00  0.00     0.103 A 
HETATM   18  C   UNL     1      43.975 -17.079   5.847  1.00  0.00     0.052 A 
BRANCH  16  19
HETATM   19  O   UNL     1      43.607 -18.647   2.559  1.00  0.00    -0.357 OA
HETATM   20  H   UNL     1      42.940 -18.412   1.889  1.00  0.00     0.218 HD
ENDBRANCH  16  19
BRANCH  17  21
HETATM   21  O   UNL     1      44.374 -19.350   5.007  1.00  0.00    -0.353 OA
HETATM   22  C   UNL     1      43.647 -20.142   5.934  1.00  0.00     0.210 C 
ENDBRANCH  17  21
ENDBRANCH  11  12
ENDBRANCH   7  10
ENDBRANCH   5   6
BRANCH   1  23
HETATM   23  C   UNL     1      42.256  -9.245   7.902  1.00  0.00     0.296 C 
BRANCH  23  24
HETATM   24  N   UNL     1      40.936  -9.973   8.093  1.00  0.00    -0.066 N 
HETATM   25  H   UNL     1      41.143 -10.808   8.660  1.00  0.00     0.280 HD
BRANCH  24  26
HETATM   26  C   UNL     1      40.383 -10.456   6.758  1.00  0.00     0.231 C 
HETATM   27  C   UNL     1      41.408 -10.312   5.647  1.00  0.00     0.034 C 
ENDBRANCH  24  26
BRANCH  24  28
HETATM   28  C   UNL     1      39.910  -9.130   8.837  1.00  0.00     0.231 C 
HETATM   29  C   UNL     1      39.796  -9.566  10.290  1.00  0.00     0.034 C 
ENDBRANCH  24  28
ENDBRANCH  23  24
ENDBRANCH   1  23
BRANCH   2  30
HETATM   30  C   UNL     1      43.155  -7.955  10.634  1.00  0.00     0.225 A 
HETATM   31  N   UNL     1      43.136  -6.810   9.945  1.00  0.00    -0.081 NA
HETATM   32  O   UNL     1      42.594  -5.892  10.850  1.00  0.00    -0.103 OA
HETATM   33  N   UNL     1      42.321  -6.491  12.070  1.00  0.00    -0.083 NA
HETATM   34  C   UNL     1      42.671  -7.769  11.939  1.00  0.00     0.201 A 
BRANCH  34  35
HETATM   35  N   UNL     1      42.558  -8.692  12.906  1.00  0.00    -0.379 N 
HETATM   36  H   UNL     1      42.968  -8.530  13.822  1.00  0.00     0.158 HD
HETATM   37  H   UNL     1      42.226  -9.642  12.751  1.00  0.00     0.158 HD
ENDBRANCH  34  35
ENDBRANCH   2  30
TORSDOF 11
ENDMDL
MODEL 2
REMARK VINA RESULT:      -7.2      3.752     10.085
REMARK  11 active torsions:
REMARK  status: ('A' for Active; 'I' for Inactive)
REMARK    1  A    between atoms: C_2  and  N_3 
REMARK    2  A    between atoms: N_3  and  C_5 
REMARK    3  A    between atoms: N_3  and  C_32 
REMARK    4  A    between atoms: C_5  and  C_6 
REMARK    5  A    between atoms: N_7  and  C_8 
REMARK    6  A    between atoms: C_12  and  N_13 
REMARK    7  A    between atoms: C_16  and  C_17 
REMARK       I    between atoms: C_17  and  N_18 
REMARK    8  A    between atoms: N_18  and  N_19 
REMARK    9  A    between atoms: C_20  and  C_21 
REMARK   10  A    between atoms: C_25  and  O_26 
REMARK   11  A    between atoms: C_27  and  O_28 
ROOT
HETATM    1  C   UNL     1      43.004 -16.697   4.512  1.00  0.00     0.096 A 
HETATM    2  N   UNL     1      43.848 -17.797   4.396  1.00  0.00    -0.215 N 
HETATM    3  N   UNL     1      44.863 -17.665   5.291  1.00  0.00     0.012 NA
HETATM    4  N   UNL     1      44.652 -16.591   6.035  1.00  0.00    -0.152 NA
HETATM    5  C   UNL     1      43.517 -15.982   5.587  1.00  0.00     0.170 A 
ENDROOT
BRANCH   5   6
HETATM    6  C   UNL     1      42.956 -14.774   6.175  1.00  0.00     0.293 C 
HETATM    7  N   UNL     1      43.738 -13.646   6.009  1.00  0.00    -0.242 N 
HETATM    8  H   UNL     1      44.622 -13.701   5.508  1.00  0.00     0.192 HD
HETATM    9  O   UNL     1      41.887 -14.824   6.780  1.00  0.00    -0.264 OA
BRANCH   7  10
HETATM   10  N   UNL     1      43.294 -12.455   6.494  1.00  0.00    -0.184 NA
HETATM   11  C   UNL     1      43.996 -11.922   7.443  1.00  0.00     0.150 C 
BRANCH  11  12
HETATM   12  C   UNL     1      43.615 -10.618   8.027  1.00  0.00    -0.013 A 
HETATM   13  C   UNL     1      42.953  -9.664   7.248  1.00  0.00     0.035 A 
HETATM   14  C   UNL     1      42.614  -8.438   7.812  1.00  0.00     0.047 A 
HETATM   15 BR   UNL     1      41.727  -7.152   6.739  1.00  0.00    -0.048 Br
HETATM   16  C   UNL     1      42.931  -8.167   9.146  1.00  0.00     0.116 A 
HETATM   17  C   UNL     1      43.589  -9.125   9.934  1.00  0.00     0.103 A 
HETATM   18  C   UNL     1      43.935 -10.355   9.365  1.00  0.00     0.052 A 
BRANCH  16  19
HETATM   19  O   UNL     1      42.603  -6.962   9.715  1.00  0.00    -0.357 OA
HETATM   20  H   UNL     1      43.356  -6.665  10.256  1.00  0.00     0.218 HD
ENDBRANCH  16  19
BRANCH  17  21
HETATM   21  O   UNL     1      43.850  -8.760  11.228  1.00  0.00    -0.353 OA
HETATM   22  C   UNL     1      43.038  -9.310  12.255  1.00  0.00     0.210 C 
ENDBRANCH  17  21
ENDBRANCH  11  12
ENDBRANCH   7  10
ENDBRANCH   5   6
BRANCH   1  23
HETATM   23  C   UNL     1      41.886 -16.361   3.595  1.00  0.00     0.296 C 
BRANCH  23  24
HETATM   24  N   UNL     1      42.274 -15.983   2.176  1.00  0.00    -0.066 N 
HETATM   25  H   UNL     1      42.611 -16.846   1.725  1.00  0.00     0.280 HD
BRANCH  24  26
HETATM   26  C   UNL     1      43.431 -14.990   2.174  1.00  0.00     0.231 C 
HETATM   27  C   UNL     1      42.951 -13.579   2.467  1.00  0.00     0.034 C 
ENDBRANCH  24  26
BRANCH  24  28
HETATM   28  C   UNL     1      41.096 -15.451   1.373  1.00  0.00     0.231 C 
HETATM   29  C   UNL     1      39.789 -15.649   2.125  1.00  0.00     0.034 C 
ENDBRANCH  24  28
ENDBRANCH  23  24
ENDBRANCH   1  23
BRANCH   2  30
HETATM   30  C   UNL     1      43.712 -18.931   3.560  1.00  0.00     0.225 A 
HETATM   31  N   UNL     1      43.228 -18.790   2.322  1.00  0.00    -0.081 NA
HETATM   32  O   UNL     1      43.221 -20.096   1.821  1.00  0.00    -0.103 OA
HETATM   33  N   UNL     1      43.674 -20.999   2.771  1.00  0.00    -0.083 NA
HETATM   34  C   UNL     1      43.976 -20.280   3.849  1.00  0.00     0.201 A 
BRANCH  34  35
HETATM   35  N   UNL     1      44.455 -20.788   4.995  1.00  0.00    -0.379 N 
HETATM   36  H   UNL     1      45.459 -20.865   5.143  1.00  0.00     0.158 HD
HETATM   37  H   UNL     1      43.885 -21.268   5.688  1.00  0.00     0.158 HD
ENDBRANCH  34  35
ENDBRANCH   2  30
TORSDOF 11
ENDMDL
MODEL 3
REMARK VINA RESULT:      -7.1      2.375      4.058
REMARK  11 active torsions:
REMARK  status: ('A' for Active; 'I' for Inactive)
REMARK    1  A    between atoms: C_2  and  N_3 
REMARK    2  A    between atoms: N_3  and  C_5 
REMARK    3  A    between atoms: N_3  and  C_32 
REMARK    4  A    between atoms: C_5  and  C_6 
REMARK    5  A    between atoms: N_7  and  C_8 
REMARK    6  A    between atoms: C_12  and  N_13 
REMARK    7  A    between atoms: C_16  and  C_17 
REMARK       I    between atoms: C_17  and  N_18 
REMARK    8  A    between atoms: N_18  and  N_19 
REMARK    9  A    between atoms: C_20  and  C_21 
REMARK   10  A    between atoms: C_25  and  O_26 
REMARK   11  A    between atoms: C_27  and  O_28 
ROOT
HETATM    1  C   UNL     1      40.908  -9.167   8.777  1.00  0.00     0.096 A 
HETATM    2  N   UNL     1      39.953  -8.576   9.599  1.00  0.00    -0.215 N 
HETATM    3  N   UNL     1      38.735  -8.697   9.008  1.00  0.00     0.012 NA
HETATM    4  N   UNL     1      38.854  -9.421   7.906  1.00  0.00    -0.152 NA
HETATM    5  C   UNL     1      40.172  -9.730   7.743  1.00  0.00     0.170 A 
ENDROOT
BRANCH   5   6
HETATM    6  C   UNL     1      40.689 -10.534   6.644  1.00  0.00     0.293 C 
HETATM    7  N   UNL     1      40.447 -11.889   6.770  1.00  0.00    -0.242 N 
HETATM    8  H   UNL     1      39.944 -12.250   7.577  1.00  0.00     0.192 HD
HETATM    9  O   UNL     1      41.303  -9.996   5.726  1.00  0.00    -0.264 OA
BRANCH   7  10
HETATM   10  N   UNL     1      40.861 -12.730   5.784  1.00  0.00    -0.184 NA
HETATM   11  C   UNL     1      40.896 -13.991   6.079  1.00  0.00     0.150 C 
BRANCH  11  12
HETATM   12  C   UNL     1      41.310 -14.993   5.075  1.00  0.00    -0.013 A 
HETATM   13  C   UNL     1      42.373 -15.861   5.344  1.00  0.00     0.035 A 
HETATM   14  C   UNL     1      42.757 -16.790   4.381  1.00  0.00     0.047 A 
HETATM   15 BR   UNL     1      44.207 -17.951   4.759  1.00  0.00    -0.048 Br
HETATM   16  C   UNL     1      42.081 -16.855   3.160  1.00  0.00     0.116 A 
HETATM   17  C   UNL     1      41.008 -15.992   2.888  1.00  0.00     0.103 A 
HETATM   18  C   UNL     1      40.627 -15.053   3.853  1.00  0.00     0.052 A 
BRANCH  16  19
HETATM   19  O   UNL     1      42.449 -17.766   2.201  1.00  0.00    -0.357 OA
HETATM   20  H   UNL     1      42.350 -18.660   2.575  1.00  0.00     0.218 HD
ENDBRANCH  16  19
BRANCH  17  21
HETATM   21  O   UNL     1      40.414 -16.140   1.663  1.00  0.00    -0.353 OA
HETATM   22  C   UNL     1      40.406 -15.025   0.784  1.00  0.00     0.210 C 
ENDBRANCH  17  21
ENDBRANCH  11  12
ENDBRANCH   7  10
ENDBRANCH   5   6
BRANCH   1  23
HETATM   23  C   UNL     1      42.379  -9.088   8.962  1.00  0.00     0.296 C 
BRANCH  23  24
HETATM   24  N   UNL     1      43.082 -10.390   9.309  1.00  0.00    -0.066 N 
HETATM   25  H   UNL     1      42.396 -11.142   9.151  1.00  0.00     0.280 HD
BRANCH  24  26
HETATM   26  C   UNL     1      43.463 -10.426  10.784  1.00  0.00     0.231 C 
HETATM   27  C   UNL     1      43.697  -9.029  11.332  1.00  0.00     0.034 C 
ENDBRANCH  24  26
BRANCH  24  28
HETATM   28  C   UNL     1      44.293 -10.651   8.425  1.00  0.00     0.231 C 
HETATM   29  C   UNL     1      44.041 -11.821   7.486  1.00  0.00     0.034 C 
ENDBRANCH  24  28
ENDBRANCH  23  24
ENDBRANCH   1  23
BRANCH   2  30
HETATM   30  C   UNL     1      40.127  -7.984  10.872  1.00  0.00     0.225 A 
HETATM   31  N   UNL     1      40.694  -6.777  10.972  1.00  0.00    -0.081 NA
HETATM   32  O   UNL     1      40.715  -6.538  12.350  1.00  0.00    -0.103 OA
HETATM   33  N   UNL     1      40.187  -7.610  13.053  1.00  0.00    -0.083 NA
HETATM   34  C   UNL     1      39.825  -8.507  12.139  1.00  0.00     0.201 A 
BRANCH  34  35
HETATM   35  N   UNL     1      39.264  -9.694  12.417  1.00  0.00    -0.379 N 
HETATM   36  H   UNL     1      39.102  -9.973  13.382  1.00  0.00     0.158 HD
HETATM   37  H   UNL     1      39.125 -10.434  11.732  1.00  0.00     0.158 HD
ENDBRANCH  34  35
ENDBRANCH   2  30
TORSDOF 11
ENDMDL
MODEL 4
REMARK VINA RESULT:      -7.1      1.266      2.088
REMARK  11 active torsions:
REMARK  status: ('A' for Active; 'I' for Inactive)
REMARK    1  A    between atoms: C_2  and  N_3 
REMARK    2  A    between atoms: N_3  and  C_5 
REMARK    3  A    between atoms: N_3  and  C_32 
REMARK    4  A    between atoms: C_5  and  C_6 
REMARK    5  A    between atoms: N_7  and  C_8 
REMARK    6  A    between atoms: C_12  and  N_13 
REMARK    7  A    between atoms: C_16  and  C_17 
REMARK       I    between atoms: C_17  and  N_18 
REMARK    8  A    between atoms: N_18  and  N_19 
REMARK    9  A    between atoms: C_20  and  C_21 
REMARK   10  A    between atoms: C_25  and  O_26 
REMARK   11  A    between atoms: C_27  and  O_28 
ROOT
HETATM    1  C   UNL     1      43.414  -9.686   8.620  1.00  0.00     0.096 A 
HETATM    2  N   UNL     1      43.625  -9.103   9.865  1.00  0.00    -0.215 N 
HETATM    3  N   UNL     1      44.563  -9.825  10.532  1.00  0.00     0.012 NA
HETATM    4  N   UNL     1      45.029 -10.775   9.737  1.00  0.00    -0.152 NA
HETATM    5  C   UNL     1      44.350 -10.709   8.556  1.00  0.00     0.170 A 
ENDROOT
BRANCH   5   6
HETATM    6  C   UNL     1      44.602 -11.590   7.423  1.00  0.00     0.293 C 
HETATM    7  N   UNL     1      43.741 -12.667   7.340  1.00  0.00    -0.242 N 
HETATM    8  H   UNL     1      43.005 -12.794   8.032  1.00  0.00     0.192 HD
HETATM    9  O   UNL     1      45.535 -11.355   6.658  1.00  0.00    -0.264 OA
BRANCH   7  10
HETATM   10  N   UNL     1      43.867 -13.538   6.303  1.00  0.00    -0.184 NA
HETATM   11  C   UNL     1      43.176 -14.631   6.379  1.00  0.00     0.150 C 
BRANCH  11  12
HETATM   12  C   UNL     1      43.224 -15.636   5.297  1.00  0.00    -0.013 A 
HETATM   13  C   UNL     1      43.597 -16.954   5.577  1.00  0.00     0.035 A 
HETATM   14  C   UNL     1      43.648 -17.884   4.542  1.00  0.00     0.047 A 
HETATM   15 BR   UNL     1      44.166 -19.663   4.937  1.00  0.00    -0.048 Br
HETATM   16  C   UNL     1      43.325 -17.501   3.237  1.00  0.00     0.116 A 
HETATM   17  C   UNL     1      42.942 -16.180   2.953  1.00  0.00     0.103 A 
HETATM   18  C   UNL     1      42.897 -15.244   3.992  1.00  0.00     0.052 A 
BRANCH  16  19
HETATM   19  O   UNL     1      43.371 -18.407   2.207  1.00  0.00    -0.357 OA
HETATM   20  H   UNL     1      44.175 -18.235   1.685  1.00  0.00     0.218 HD
ENDBRANCH  16  19
BRANCH  17  21
HETATM   21  O   UNL     1      42.644 -15.911   1.644  1.00  0.00    -0.353 OA
HETATM   22  C   UNL     1      41.618 -14.968   1.372  1.00  0.00     0.210 C 
ENDBRANCH  17  21
ENDBRANCH  11  12
ENDBRANCH   7  10
ENDBRANCH   5   6
BRANCH   1  23
HETATM   23  C   UNL     1      42.340  -9.320   7.661  1.00  0.00     0.296 C 
BRANCH  23  24
HETATM   24  N   UNL     1      41.019 -10.053   7.823  1.00  0.00    -0.066 N 
HETATM   25  H   UNL     1      41.190 -10.818   8.491  1.00  0.00     0.280 HD
BRANCH  24  26
HETATM   26  C   UNL     1      40.585 -10.689   6.507  1.00  0.00     0.231 C 
HETATM   27  C   UNL     1      39.089 -10.547   6.289  1.00  0.00     0.034 C 
ENDBRANCH  24  26
BRANCH  24  28
HETATM   28  C   UNL     1      39.923  -9.159   8.385  1.00  0.00     0.231 C 
HETATM   29  C   UNL     1      39.622  -9.511   9.834  1.00  0.00     0.034 C 
ENDBRANCH  24  28
ENDBRANCH  23  24
ENDBRANCH   1  23
BRANCH   2  30
HETATM   30  C   UNL     1      43.048  -7.925  10.399  1.00  0.00     0.225 A 
HETATM   31  N   UNL     1      43.171  -6.768   9.742  1.00  0.00    -0.081 NA
HETATM   32  O   UNL     1      42.509  -5.851  10.565  1.00  0.00    -0.103 OA
HETATM   33  N   UNL     1      42.024  -6.465  11.710  1.00  0.00    -0.083 NA
HETATM   34  C   UNL     1      42.359  -7.749  11.610  1.00  0.00     0.201 A 
BRANCH  34  35
HETATM   35  N   UNL     1      42.066  -8.687  12.524  1.00  0.00    -0.379 N 
HETATM   36  H   UNL     1      42.674  -8.830  13.327  1.00  0.00     0.158 HD
HETATM   37  H   UNL     1      41.351  -9.401  12.399  1.00  0.00     0.158 HD
ENDBRANCH  34  35
ENDBRANCH   2  30
TORSDOF 11
ENDMDL
MODEL 5
REMARK VINA RESULT:      -7.1      2.123      3.561
REMARK  11 active torsions:
REMARK  status: ('A' for Active; 'I' for Inactive)
REMARK    1  A    between atoms: C_2  and  N_3 
REMARK    2  A    between atoms: N_3  and  C_5 
REMARK    3  A    between atoms: N_3  and  C_32 
REMARK    4  A    between atoms: C_5  and  C_6 
REMARK    5  A    between atoms: N_7  and  C_8 
REMARK    6  A    between atoms: C_12  and  N_13 
REMARK    7  A    between atoms: C_16  and  C_17 
REMARK       I    between atoms: C_17  and  N_18 
REMARK    8  A    between atoms: N_18  and  N_19 
REMARK    9  A    between atoms: C_20  and  C_21 
REMARK   10  A    between atoms: C_25  and  O_26 
REMARK   11  A    between atoms: C_27  and  O_28 
ROOT
HETATM    1  C   UNL     1      40.897  -9.230   8.888  1.00  0.00     0.096 A 
HETATM    2  N   UNL     1      39.989  -8.648   9.768  1.00  0.00    -0.215 N 
HETATM    3  N   UNL     1      38.740  -8.757   9.243  1.00  0.00     0.012 NA
HETATM    4  N   UNL     1      38.797  -9.466   8.127  1.00  0.00    -0.152 NA
HETATM    5  C   UNL     1      40.103  -9.778   7.889  1.00  0.00     0.170 A 
ENDROOT
BRANCH   5   6
HETATM    6  C   UNL     1      40.557 -10.569   6.753  1.00  0.00     0.293 C 
HETATM    7  N   UNL     1      40.130 -11.883   6.771  1.00  0.00    -0.242 N 
HETATM    8  H   UNL     1      39.547 -12.226   7.532  1.00  0.00     0.192 HD
HETATM    9  O   UNL     1      41.278 -10.059   5.899  1.00  0.00    -0.264 OA
BRANCH   7  10
HETATM   10  N   UNL     1      40.472 -12.705   5.742  1.00  0.00    -0.184 NA
HETATM   11  C   UNL     1      40.945 -13.866   6.064  1.00  0.00     0.150 C 
BRANCH  11  12
HETATM   12  C   UNL     1      41.328 -14.845   5.025  1.00  0.00    -0.013 A 
HETATM   13  C   UNL     1      40.701 -14.825   3.775  1.00  0.00     0.035 A 
HETATM   14  C   UNL     1      41.066 -15.762   2.813  1.00  0.00     0.047 A 
HETATM   15 BR   UNL     1      40.199 -15.727   1.128  1.00  0.00    -0.048 Br
HETATM   16  C   UNL     1      42.052 -16.711   3.095  1.00  0.00     0.116 A 
HETATM   17  C   UNL     1      42.690 -16.730   4.346  1.00  0.00     0.103 A 
HETATM   18  C   UNL     1      42.318 -15.792   5.315  1.00  0.00     0.052 A 
BRANCH  16  19
HETATM   19  O   UNL     1      42.422 -17.641   2.156  1.00  0.00    -0.357 OA
HETATM   20  H   UNL     1      41.647 -18.194   1.952  1.00  0.00     0.218 HD
ENDBRANCH  16  19
BRANCH  17  21
HETATM   21  O   UNL     1      43.643 -17.698   4.519  1.00  0.00    -0.353 OA
HETATM   22  C   UNL     1      43.574 -18.503   5.687  1.00  0.00     0.210 C 
ENDBRANCH  17  21
ENDBRANCH  11  12
ENDBRANCH   7  10
ENDBRANCH   5   6
BRANCH   1  23
HETATM   23  C   UNL     1      42.376  -9.158   8.995  1.00  0.00     0.296 C 
BRANCH  23  24
HETATM   24  N   UNL     1      43.086 -10.455   9.343  1.00  0.00    -0.066 N 
HETATM   25  H   UNL     1      42.389 -11.207   9.240  1.00  0.00     0.280 HD
BRANCH  24  26
HETATM   26  C   UNL     1      43.539 -10.454  10.799  1.00  0.00     0.231 C 
HETATM   27  C   UNL     1      43.923  -9.059  11.260  1.00  0.00     0.034 C 
ENDBRANCH  24  26
BRANCH  24  28
HETATM   28  C   UNL     1      44.251 -10.750   8.409  1.00  0.00     0.231 C 
HETATM   29  C   UNL     1      43.949 -11.947   7.520  1.00  0.00     0.034 C 
ENDBRANCH  24  28
ENDBRANCH  23  24
ENDBRANCH   1  23
BRANCH   2  30
HETATM   30  C   UNL     1      40.235  -8.072  11.038  1.00  0.00     0.225 A 
HETATM   31  N   UNL     1      40.946  -6.945  11.131  1.00  0.00    -0.081 NA
HETATM   32  O   UNL     1      40.995  -6.700  12.507  1.00  0.00    -0.103 OA
HETATM   33  N   UNL     1      40.337  -7.693  13.216  1.00  0.00    -0.083 NA
HETATM   34  C   UNL     1      39.868  -8.545  12.308  1.00  0.00     0.201 A 
BRANCH  34  35
HETATM   35  N   UNL     1      39.164  -9.651  12.593  1.00  0.00    -0.379 N 
HETATM   36  H   UNL     1      38.337  -9.888  12.050  1.00  0.00     0.158 HD
HETATM   37  H   UNL     1      39.294 -10.209  13.435  1.00  0.00     0.158 HD
ENDBRANCH  34  35
ENDBRANCH   2  30
TORSDOF 11
ENDMDL
MODEL 6
REMARK VINA RESULT:      -6.9      6.749      9.134
REMARK  11 active torsions:
REMARK  status: ('A' for Active; 'I' for Inactive)
REMARK    1  A    between atoms: C_2  and  N_3 
REMARK    2  A    between atoms: N_3  and  C_5 
REMARK    3  A    between atoms: N_3  and  C_32 
REMARK    4  A    between atoms: C_5  and  C_6 
REMARK    5  A    between atoms: N_7  and  C_8 
REMARK    6  A    between atoms: C_12  and  N_13 
REMARK    7  A    between atoms: C_16  and  C_17 
REMARK       I    between atoms: C_17  and  N_18 
REMARK    8  A    between atoms: N_18  and  N_19 
REMARK    9  A    between atoms: C_20  and  C_21 
REMARK   10  A    between atoms: C_25  and  O_26 
REMARK   11  A    between atoms: C_27  and  O_28 
ROOT
HETATM    1  C   UNL     1      40.850 -11.255  -0.518  1.00  0.00     0.096 A 
HETATM    2  N   UNL     1      41.002  -9.884  -0.700  1.00  0.00    -0.215 N 
HETATM    3  N   UNL     1      41.039  -9.284   0.520  1.00  0.00     0.012 NA
HETATM    4  N   UNL     1      41.021 -10.212   1.463  1.00  0.00    -0.152 NA
HETATM    5  C   UNL     1      40.914 -11.429   0.858  1.00  0.00     0.170 A 
ENDROOT
BRANCH   5   6
HETATM    6  C   UNL     1      40.882 -12.695   1.578  1.00  0.00     0.293 C 
HETATM    7  N   UNL     1      42.128 -13.184   1.922  1.00  0.00    -0.242 N 
HETATM    8  H   UNL     1      42.970 -12.668   1.677  1.00  0.00     0.192 HD
HETATM    9  O   UNL     1      39.806 -13.245   1.804  1.00  0.00    -0.264 OA
BRANCH   7  10
HETATM   10  N   UNL     1      42.212 -14.346   2.623  1.00  0.00    -0.184 NA
HETATM   11  C   UNL     1      43.223 -15.110   2.355  1.00  0.00     0.150 C 
BRANCH  11  12
HETATM   12  C   UNL     1      43.423 -16.386   3.074  1.00  0.00    -0.013 A 
HETATM   13  C   UNL     1      43.457 -17.593   2.368  1.00  0.00     0.035 A 
HETATM   14  C   UNL     1      43.633 -18.786   3.063  1.00  0.00     0.047 A 
HETATM   15 BR   UNL     1      43.667 -20.413   2.093  1.00  0.00    -0.048 Br
HETATM   16  C   UNL     1      43.779 -18.773   4.453  1.00  0.00     0.116 A 
HETATM   17  C   UNL     1      43.753 -17.563   5.165  1.00  0.00     0.103 A 
HETATM   18  C   UNL     1      43.569 -16.365   4.467  1.00  0.00     0.052 A 
BRANCH  16  19
HETATM   19  O   UNL     1      43.953 -19.941   5.152  1.00  0.00    -0.357 OA
HETATM   20  H   UNL     1      44.906 -20.070   5.300  1.00  0.00     0.218 HD
ENDBRANCH  16  19
BRANCH  17  21
HETATM   21  O   UNL     1      43.906 -17.662   6.523  1.00  0.00    -0.353 OA
HETATM   22  C   UNL     1      43.448 -16.586   7.328  1.00  0.00     0.210 C 
ENDBRANCH  17  21
ENDBRANCH  11  12
ENDBRANCH   7  10
ENDBRANCH   5   6
BRANCH   1  23
HETATM   23  C   UNL     1      40.579 -12.247  -1.589  1.00  0.00     0.296 C 
BRANCH  23  24
HETATM   24  N   UNL     1      39.244 -12.968  -1.512  1.00  0.00    -0.066 N 
HETATM   25  H   UNL     1      38.832 -12.721  -0.600  1.00  0.00     0.280 HD
BRANCH  24  26
HETATM   26  C   UNL     1      39.441 -14.480  -1.525  1.00  0.00     0.231 C 
HETATM   27  C   UNL     1      38.734 -15.122  -2.706  1.00  0.00     0.034 C 
ENDBRANCH  24  26
BRANCH  24  28
HETATM   28  C   UNL     1      38.283 -12.532  -2.608  1.00  0.00     0.231 C 
HETATM   29  C   UNL     1      37.385 -11.402  -2.129  1.00  0.00     0.034 C 
ENDBRANCH  24  28
ENDBRANCH  23  24
ENDBRANCH   1  23
BRANCH   2  30
HETATM   30  C   UNL     1      41.157  -9.164  -1.908  1.00  0.00     0.225 A 
HETATM   31  N   UNL     1      40.297  -9.357  -2.913  1.00  0.00    -0.081 NA
HETATM   32  O   UNL     1      40.772  -8.511  -3.919  1.00  0.00    -0.103 OA
HETATM   33  N   UNL     1      41.920  -7.845  -3.514  1.00  0.00    -0.083 NA
HETATM   34  C   UNL     1      42.161  -8.251  -2.270  1.00  0.00     0.201 A 
BRANCH  34  35
HETATM   35  N   UNL     1      43.190  -7.832  -1.518  1.00  0.00    -0.379 N 
HETATM   36  H   UNL     1      43.574  -8.432  -0.792  1.00  0.00     0.158 HD
HETATM   37  H   UNL     1      43.532  -6.873  -1.502  1.00  0.00     0.158 HD
ENDBRANCH  34  35
ENDBRANCH   2  30
TORSDOF 11
ENDMDL
MODEL 7
REMARK VINA RESULT:      -6.8      3.119      4.547
REMARK  11 active torsions:
REMARK  status: ('A' for Active; 'I' for Inactive)
REMARK    1  A    between atoms: C_2  and  N_3 
REMARK    2  A    between atoms: N_3  and  C_5 
REMARK    3  A    between atoms: N_3  and  C_32 
REMARK    4  A    between atoms: C_5  and  C_6 
REMARK    5  A    between atoms: N_7  and  C_8 
REMARK    6  A    between atoms: C_12  and  N_13 
REMARK    7  A    between atoms: C_16  and  C_17 
REMARK       I    between atoms: C_17  and  N_18 
REMARK    8  A    between atoms: N_18  and  N_19 
REMARK    9  A    between atoms: C_20  and  C_21 
REMARK   10  A    between atoms: C_25  and  O_26 
REMARK   11  A    between atoms: C_27  and  O_28 
ROOT
HETATM    1  C   UNL     1      40.824  -9.346   8.801  1.00  0.00     0.096 A 
HETATM    2  N   UNL     1      40.644  -8.971  10.129  1.00  0.00    -0.215 N 
HETATM    3  N   UNL     1      39.326  -9.091  10.442  1.00  0.00     0.012 NA
HETATM    4  N   UNL     1      38.680  -9.618   9.414  1.00  0.00    -0.152 NA
HETATM    5  C   UNL     1      39.573  -9.792   8.397  1.00  0.00     0.170 A 
ENDROOT
BRANCH   5   6
HETATM    6  C   UNL     1      39.229 -10.368   7.104  1.00  0.00     0.293 C 
HETATM    7  N   UNL     1      39.765 -11.622   6.881  1.00  0.00    -0.242 N 
HETATM    8  H   UNL     1      40.343 -12.070   7.589  1.00  0.00     0.192 HD
HETATM    9  O   UNL     1      38.540  -9.730   6.311  1.00  0.00    -0.264 OA
BRANCH   7  10
HETATM   10  N   UNL     1      39.484 -12.265   5.716  1.00  0.00    -0.184 NA
HETATM   11  C   UNL     1      40.408 -12.248   4.809  1.00  0.00     0.150 C 
BRANCH  11  12
HETATM   12  C   UNL     1      40.214 -12.934   3.514  1.00  0.00    -0.013 A 
HETATM   13  C   UNL     1      39.693 -12.236   2.420  1.00  0.00     0.035 A 
HETATM   14  C   UNL     1      39.506 -12.902   1.212  1.00  0.00     0.047 A 
HETATM   15 BR   UNL     1      38.790 -11.945  -0.258  1.00  0.00    -0.048 Br
HETATM   16  C   UNL     1      39.840 -14.254   1.097  1.00  0.00     0.116 A 
HETATM   17  C   UNL     1      40.371 -14.956   2.191  1.00  0.00     0.103 A 
HETATM   18  C   UNL     1      40.552 -14.289   3.406  1.00  0.00     0.052 A 
BRANCH  16  19
HETATM   19  O   UNL     1      39.661 -14.924  -0.088  1.00  0.00    -0.357 OA
HETATM   20  H   UNL     1      39.077 -15.686   0.077  1.00  0.00     0.218 HD
ENDBRANCH  16  19
BRANCH  17  21
HETATM   21  O   UNL     1      40.666 -16.276   1.971  1.00  0.00    -0.353 OA
HETATM   22  C   UNL     1      41.827 -16.813   2.587  1.00  0.00     0.210 C 
ENDBRANCH  17  21
ENDBRANCH  11  12
ENDBRANCH   7  10
ENDBRANCH   5   6
BRANCH   1  23
HETATM   23  C   UNL     1      42.073  -9.182   8.015  1.00  0.00     0.296 C 
BRANCH  23  24
HETATM   24  N   UNL     1      43.086 -10.310   8.125  1.00  0.00    -0.066 N 
HETATM   25  H   UNL     1      42.706 -10.976   8.813  1.00  0.00     0.280 HD
BRANCH  24  26
HETATM   26  C   UNL     1      44.413  -9.798   8.673  1.00  0.00     0.231 C 
HETATM   27  C   UNL     1      44.449  -8.280   8.713  1.00  0.00     0.034 C 
ENDBRANCH  24  26
BRANCH  24  28
HETATM   28  C   UNL     1      43.285 -11.042   6.806  1.00  0.00     0.231 C 
HETATM   29  C   UNL     1      43.857 -12.433   7.035  1.00  0.00     0.034 C 
ENDBRANCH  24  28
ENDBRANCH  23  24
ENDBRANCH   1  23
BRANCH   2  30
HETATM   30  C   UNL     1      41.619  -8.577  11.076  1.00  0.00     0.225 A 
HETATM   31  N   UNL     1      41.786  -7.282  11.359  1.00  0.00    -0.081 NA
HETATM   32  O   UNL     1      42.824  -7.282  12.297  1.00  0.00    -0.103 OA
HETATM   33  N   UNL     1      43.279  -8.569  12.541  1.00  0.00    -0.083 NA
HETATM   34  C   UNL     1      42.536  -9.372  11.783  1.00  0.00     0.201 A 
BRANCH  34  35
HETATM   35  N   UNL     1      42.663 -10.707  11.735  1.00  0.00    -0.379 N 
HETATM   36  H   UNL     1      43.341 -11.180  12.327  1.00  0.00     0.158 HD
HETATM   37  H   UNL     1      42.240 -11.295  11.019  1.00  0.00     0.158 HD
ENDBRANCH  34  35
ENDBRANCH   2  30
TORSDOF 11
ENDMDL
MODEL 8
REMARK VINA RESULT:      -6.8      7.082      9.914
REMARK  11 active torsions:
REMARK  status: ('A' for Active; 'I' for Inactive)
REMARK    1  A    between atoms: C_2  and  N_3 
REMARK    2  A    between atoms: N_3  and  C_5 
REMARK    3  A    between atoms: N_3  and  C_32 
REMARK    4  A    between atoms: C_5  and  C_6 
REMARK    5  A    between atoms: N_7  and  C_8 
REMARK    6  A    between atoms: C_12  and  N_13 
REMARK    7  A    between atoms: C_16  and  C_17 
REMARK       I    between atoms: C_17  and  N_18 
REMARK    8  A    between atoms: N_18  and  N_19 
REMARK    9  A    between atoms: C_20  and  C_21 
REMARK   10  A    between atoms: C_25  and  O_26 
REMARK   11  A    between atoms: C_27  and  O_28 
ROOT
HETATM    1  C   UNL     1      39.725 -12.062  -1.408  1.00  0.00     0.096 A 
HETATM    2  N   UNL     1      39.712 -11.545  -2.700  1.00  0.00    -0.215 N 
HETATM    3  N   UNL     1      40.236 -12.470  -3.546  1.00  0.00     0.012 NA
HETATM    4  N   UNL     1      40.487 -13.583  -2.875  1.00  0.00    -0.152 NA
HETATM    5  C   UNL     1      40.176 -13.366  -1.565  1.00  0.00     0.170 A 
ENDROOT
BRANCH   5   6
HETATM    6  C   UNL     1      40.306 -14.374  -0.521  1.00  0.00     0.293 C 
HETATM    7  N   UNL     1      41.415 -14.214   0.288  1.00  0.00    -0.242 N 
HETATM    8  H   UNL     1      42.059 -13.442   0.133  1.00  0.00     0.192 HD
HETATM    9  O   UNL     1      39.479 -15.280  -0.437  1.00  0.00    -0.264 OA
BRANCH   7  10
HETATM   10  N   UNL     1      41.617 -15.083   1.314  1.00  0.00    -0.184 NA
HETATM   11  C   UNL     1      42.813 -15.566   1.435  1.00  0.00     0.150 C 
BRANCH  11  12
HETATM   12  C   UNL     1      43.147 -16.502   2.529  1.00  0.00    -0.013 A 
HETATM   13  C   UNL     1      43.292 -17.868   2.266  1.00  0.00     0.035 A 
HETATM   14  C   UNL     1      43.594 -18.736   3.311  1.00  0.00     0.047 A 
HETATM   15 BR   UNL     1      43.777 -20.585   2.938  1.00  0.00    -0.048 Br
HETATM   16  C   UNL     1      43.754 -18.244   4.609  1.00  0.00     0.116 A 
HETATM   17  C   UNL     1      43.617 -16.872   4.876  1.00  0.00     0.103 A 
HETATM   18  C   UNL     1      43.306 -16.001   3.827  1.00  0.00     0.052 A 
BRANCH  16  19
HETATM   19  O   UNL     1      44.051 -19.088   5.649  1.00  0.00    -0.357 OA
HETATM   20  H   UNL     1      43.770 -18.663   6.478  1.00  0.00     0.218 HD
ENDBRANCH  16  19
BRANCH  17  21
HETATM   21  O   UNL     1      43.795 -16.495   6.181  1.00  0.00    -0.353 OA
HETATM   22  C   UNL     1      43.721 -15.111   6.493  1.00  0.00     0.210 C 
ENDBRANCH  17  21
ENDBRANCH  11  12
ENDBRANCH   7  10
ENDBRANCH   5   6
BRANCH   1  23
HETATM   23  C   UNL     1      39.416 -11.307  -0.168  1.00  0.00     0.296 C 
BRANCH  23  24
HETATM   24  N   UNL     1      39.918  -9.874  -0.114  1.00  0.00    -0.066 N 
HETATM   25  H   UNL     1      39.746  -9.469  -1.046  1.00  0.00     0.280 HD
BRANCH  24  26
HETATM   26  C   UNL     1      41.423  -9.833   0.127  1.00  0.00     0.231 C 
HETATM   27  C   UNL     1      42.140  -9.069  -0.972  1.00  0.00     0.034 C 
ENDBRANCH  24  26
BRANCH  24  28
HETATM   28  C   UNL     1      39.176  -9.036   0.918  1.00  0.00     0.231 C 
HETATM   29  C   UNL     1      37.736  -9.503   1.067  1.00  0.00     0.034 C 
ENDBRANCH  24  28
ENDBRANCH  23  24
ENDBRANCH   1  23
BRANCH   2  30
HETATM   30  C   UNL     1      39.203 -10.303  -3.149  1.00  0.00     0.225 A 
HETATM   31  N   UNL     1      37.961  -9.935  -2.820  1.00  0.00    -0.081 NA
HETATM   32  O   UNL     1      37.809  -8.694  -3.446  1.00  0.00    -0.103 OA
HETATM   33  N   UNL     1      38.948  -8.349  -4.159  1.00  0.00    -0.083 NA
HETATM   34  C   UNL     1      39.811  -9.346  -3.978  1.00  0.00     0.201 A 
BRANCH  34  35
HETATM   35  N   UNL     1      41.043  -9.392  -4.506  1.00  0.00    -0.379 N 
HETATM   36  H   UNL     1      41.715 -10.084  -4.183  1.00  0.00     0.158 HD
HETATM   37  H   UNL     1      41.433  -8.670  -5.108  1.00  0.00     0.158 HD
ENDBRANCH  34  35
ENDBRANCH   2  30
TORSDOF 11
ENDMDL
MODEL 9
REMARK VINA RESULT:      -6.7      3.461      5.202
REMARK  11 active torsions:
REMARK  status: ('A' for Active; 'I' for Inactive)
REMARK    1  A    between atoms: C_2  and  N_3 
REMARK    2  A    between atoms: N_3  and  C_5 
REMARK    3  A    between atoms: N_3  and  C_32 
REMARK    4  A    between atoms: C_5  and  C_6 
REMARK    5  A    between atoms: N_7  and  C_8 
REMARK    6  A    between atoms: C_12  and  N_13 
REMARK    7  A    between atoms: C_16  and  C_17 
REMARK       I    between atoms: C_17  and  N_18 
REMARK    8  A    between atoms: N_18  and  N_19 
REMARK    9  A    between atoms: C_20  and  C_21 
REMARK   10  A    between atoms: C_25  and  O_26 
REMARK   11  A    between atoms: C_27  and  O_28 
ROOT
HETATM    1  C   UNL     1      40.871  -9.291   9.304  1.00  0.00     0.096 A 
HETATM    2  N   UNL     1      39.961  -9.042  10.327  1.00  0.00    -0.215 N 
HETATM    3  N   UNL     1      38.703  -9.082   9.811  1.00  0.00     0.012 NA
HETATM    4  N   UNL     1      38.765  -9.443   8.540  1.00  0.00    -0.152 NA
HETATM    5  C   UNL     1      40.079  -9.586   8.203  1.00  0.00     0.170 A 
ENDROOT
BRANCH   5   6
HETATM    6  C   UNL     1      40.540  -9.993   6.883  1.00  0.00     0.293 C 
HETATM    7  N   UNL     1      40.556 -11.360   6.684  1.00  0.00    -0.242 N 
HETATM    8  H   UNL     1      40.259 -11.993   7.424  1.00  0.00     0.192 HD
HETATM    9  O   UNL     1      40.898  -9.144   6.069  1.00  0.00    -0.264 OA
BRANCH   7  10
HETATM   10  N   UNL     1      40.942 -11.849   5.475  1.00  0.00    -0.184 NA
HETATM   11  C   UNL     1      40.024 -12.424   4.765  1.00  0.00     0.150 C 
BRANCH  11  12
HETATM   12  C   UNL     1      40.330 -12.971   3.427  1.00  0.00    -0.013 A 
HETATM   13  C   UNL     1      41.414 -13.838   3.252  1.00  0.00     0.035 A 
HETATM   14  C   UNL     1      41.695 -14.333   1.982  1.00  0.00     0.047 A 
HETATM   15 BR   UNL     1      43.173 -15.498   1.762  1.00  0.00    -0.048 Br
HETATM   16  C   UNL     1      40.896 -13.969   0.894  1.00  0.00     0.116 A 
HETATM   17  C   UNL     1      39.803 -13.106   1.066  1.00  0.00     0.103 A 
HETATM   18  C   UNL     1      39.525 -12.602   2.342  1.00  0.00     0.052 A 
BRANCH  16  19
HETATM   19  O   UNL     1      41.162 -14.450  -0.363  1.00  0.00    -0.357 OA
HETATM   20  H   UNL     1      41.895 -13.932  -0.740  1.00  0.00     0.218 HD
ENDBRANCH  16  19
BRANCH  17  21
HETATM   21  O   UNL     1      39.085 -12.815  -0.063  1.00  0.00    -0.353 OA
HETATM   22  C   UNL     1      38.287 -11.640  -0.065  1.00  0.00     0.210 C 
ENDBRANCH  17  21
ENDBRANCH  11  12
ENDBRANCH   7  10
ENDBRANCH   5   6
BRANCH   1  23
HETATM   23  C   UNL     1      42.346  -9.153   9.404  1.00  0.00     0.296 C 
BRANCH  23  24
HETATM   24  N   UNL     1      43.125 -10.436   9.640  1.00  0.00    -0.066 N 
HETATM   25  H   UNL     1      42.426 -11.178   9.789  1.00  0.00     0.280 HD
BRANCH  24  26
HETATM   26  C   UNL     1      43.961 -10.339  10.911  1.00  0.00     0.231 C 
HETATM   27  C   UNL     1      43.819  -8.976  11.567  1.00  0.00     0.034 C 
ENDBRANCH  24  26
BRANCH  24  28
HETATM   28  C   UNL     1      43.986 -10.821   8.446  1.00  0.00     0.231 C 
HETATM   29  C   UNL     1      45.445 -10.465   8.689  1.00  0.00     0.034 C 
ENDBRANCH  24  28
ENDBRANCH  23  24
ENDBRANCH   1  23
BRANCH   2  30
HETATM   30  C   UNL     1      40.213  -8.833  11.704  1.00  0.00     0.225 A 
HETATM   31  N   UNL     1      40.382  -9.881  12.516  1.00  0.00    -0.081 NA
HETATM   32  O   UNL     1      40.584  -9.296  13.770  1.00  0.00    -0.103 OA
HETATM   33  N   UNL     1      40.508  -7.913  13.696  1.00  0.00    -0.083 NA
HETATM   34  C   UNL     1      40.276  -7.625  12.417  1.00  0.00     0.201 A 
BRANCH  34  35
HETATM   35  N   UNL     1      40.139  -6.383  11.929  1.00  0.00    -0.379 N 
HETATM   36  H   UNL     1      40.959  -5.837  11.675  1.00  0.00     0.158 HD
HETATM   37  H   UNL     1      39.266  -5.859  11.939  1.00  0.00     0.158 HD
ENDBRANCH  34  35
ENDBRANCH   2  30
TORSDOF 11
ENDMDL
MODEL 10
REMARK VINA RESULT:      -6.5      7.713     10.355
REMARK  11 active torsions:
REMARK  status: ('A' for Active; 'I' for Inactive)
REMARK    1  A    between atoms: C_2  and  N_3 
REMARK    2  A    between atoms: N_3  and  C_5 
REMARK    3  A    between atoms: N_3  and  C_32 
REMARK    4  A    between atoms: C_5  and  C_6 
REMARK    5  A    between atoms: N_7  and  C_8 
REMARK    6  A    between atoms: C_12  and  N_13 
REMARK    7  A    between atoms: C_16  and  C_17 
REMARK       I    between atoms: C_17  and  N_18 
REMARK    8  A    between atoms: N_18  and  N_19 
REMARK    9  A    between atoms: C_20  and  C_21 
REMARK   10  A    between atoms: C_25  and  O_26 
REMARK   11  A    between atoms: C_27  and  O_28 
ROOT
HETATM    1  C   UNL     1      38.515 -11.212  -1.217  1.00  0.00     0.096 A 
HETATM    2  N   UNL     1      37.427 -11.347  -2.073  1.00  0.00    -0.215 N 
HETATM    3  N   UNL     1      37.304 -12.656  -2.421  1.00  0.00     0.012 NA
HETATM    4  N   UNL     1      38.194 -13.370  -1.751  1.00  0.00    -0.152 NA
HETATM    5  C   UNL     1      38.945 -12.515  -0.999  1.00  0.00     0.170 A 
ENDROOT
BRANCH   5   6
HETATM    6  C   UNL     1      40.019 -12.940  -0.112  1.00  0.00     0.293 C 
HETATM    7  N   UNL     1      39.622 -13.817   0.879  1.00  0.00    -0.242 N 
HETATM    8  H   UNL     1      38.652 -14.116   0.945  1.00  0.00     0.192 HD
HETATM    9  O   UNL     1      41.155 -12.498  -0.269  1.00  0.00    -0.264 OA
BRANCH   7  10
HETATM   10  N   UNL     1      40.552 -14.301   1.746  1.00  0.00    -0.184 NA
HETATM   11  C   UNL     1      40.742 -15.582   1.732  1.00  0.00     0.150 C 
BRANCH  11  12
HETATM   12  C   UNL     1      41.743 -16.211   2.618  1.00  0.00    -0.013 A 
HETATM   13  C   UNL     1      42.098 -15.600   3.824  1.00  0.00     0.035 A 
HETATM   14  C   UNL     1      43.053 -16.200   4.639  1.00  0.00     0.047 A 
HETATM   15 BR   UNL     1      43.530 -15.353   6.266  1.00  0.00    -0.048 Br
HETATM   16  C   UNL     1      43.647 -17.406   4.255  1.00  0.00     0.116 A 
HETATM   17  C   UNL     1      43.288 -18.027   3.048  1.00  0.00     0.103 A 
HETATM   18  C   UNL     1      42.333 -17.420   2.225  1.00  0.00     0.052 A 
BRANCH  16  19
HETATM   19  O   UNL     1      44.590 -18.009   5.048  1.00  0.00    -0.357 OA
HETATM   20  H   UNL     1      45.297 -18.353   4.475  1.00  0.00     0.218 HD
ENDBRANCH  16  19
BRANCH  17  21
HETATM   21  O   UNL     1      43.927 -19.206   2.767  1.00  0.00    -0.353 OA
HETATM   22  C   UNL     1      43.246 -20.163   1.970  1.00  0.00     0.210 C 
ENDBRANCH  17  21
ENDBRANCH  11  12
ENDBRANCH   7  10
ENDBRANCH   5   6
BRANCH   1  23
HETATM   23  C   UNL     1      39.104  -9.929  -0.758  1.00  0.00     0.296 C 
BRANCH  23  24
HETATM   24  N   UNL     1      40.477  -9.586  -1.310  1.00  0.00    -0.066 N 
HETATM   25  H   UNL     1      41.040 -10.447  -1.246  1.00  0.00     0.280 HD
BRANCH  24  26
HETATM   26  C   UNL     1      41.162  -8.531  -0.448  1.00  0.00     0.231 C 
HETATM   27  C   UNL     1      42.530  -8.168  -0.999  1.00  0.00     0.034 C 
ENDBRANCH  24  26
BRANCH  24  28
HETATM   28  C   UNL     1      40.427  -9.152  -2.768  1.00  0.00     0.231 C 
HETATM   29  C   UNL     1      40.844 -10.288  -3.690  1.00  0.00     0.034 C 
ENDBRANCH  24  28
ENDBRANCH  23  24
ENDBRANCH   1  23
BRANCH   2  30
HETATM   30  C   UNL     1      36.516 -10.354  -2.509  1.00  0.00     0.225 A 
HETATM   31  N   UNL     1      35.463 -10.040  -1.749  1.00  0.00    -0.081 NA
HETATM   32  O   UNL     1      34.799  -9.062  -2.498  1.00  0.00    -0.103 OA
HETATM   33  N   UNL     1      35.448  -8.825  -3.700  1.00  0.00    -0.083 NA
HETATM   34  C   UNL     1      36.510  -9.627  -3.710  1.00  0.00     0.201 A 
BRANCH  34  35
HETATM   35  N   UNL     1      37.404  -9.696  -4.708  1.00  0.00    -0.379 N 
HETATM   36  H   UNL     1      38.349 -10.027  -4.530  1.00  0.00     0.158 HD
HETATM   37  H   UNL     1      37.265  -9.281  -5.628  1.00  0.00     0.158 HD
ENDBRANCH  34  35
ENDBRANCH   2  30
TORSDOF 11
ENDMDL
