MODEL 1
REMARK VINA RESULT:      -9.0      0.000      0.000
REMARK  5 active torsions:
REMARK  status: ('A' for Active; 'I' for Inactive)
REMARK    1  A    between atoms: C_2  and  O_3 
REMARK    2  A    between atoms: O_3  and  C_4 
REMARK    3  A    between atoms: C_5  and  C_6 
REMARK    4  A    between atoms: C_7  and  C_8 
REMARK       I    between atoms: C_8  and  N_9 
REMARK    5  A    between atoms: N_9  and  C_10 
ROOT
HETATM    1  C   UNL     1      43.318 -13.994   5.461  1.00  0.00     0.041 C 
HETATM    2  C   UNL     1      43.084 -15.206   6.008  1.00  0.00     0.099 C 
HETATM    3  C   UNL     1      43.129 -15.428   7.511  1.00  0.00     0.025 C 
HETATM    4  N   UNL     1      43.167 -15.614   8.757  1.00  0.00    -0.096 N 
ENDROOT
BRANCH   2   5
HETATM    5  C   UNL     1      42.728 -16.347   5.092  1.00  0.00     0.265 C 
HETATM    6  N   UNL     1      43.791 -17.143   4.698  1.00  0.00    -0.321 N 
HETATM    7  H   UNL     1      44.656 -17.034   5.210  1.00  0.00     0.169 HD
HETATM    8  O   UNL     1      41.548 -16.556   4.817  1.00  0.00    -0.267 OA
BRANCH   6   9
HETATM    9  C   UNL     1      43.715 -18.337   3.928  1.00  0.00     0.047 A 
HETATM   10  C   UNL     1      43.807 -19.639   4.468  1.00  0.00    -0.035 A 
HETATM   11  C   UNL     1      43.848 -19.962   5.938  1.00  0.00     0.050 C 
HETATM   12  C   UNL     1      43.807 -20.746   3.596  1.00  0.00     0.009 A 
HETATM   13  C   UNL     1      43.646 -20.587   2.225  1.00  0.00     0.001 A 
HETATM   14  C   UNL     1      43.472 -19.314   1.699  1.00  0.00     0.009 A 
HETATM   15  C   UNL     1      43.500 -18.183   2.533  1.00  0.00    -0.035 A 
HETATM   16  C   UNL     1      43.335 -16.833   1.880  1.00  0.00     0.050 C 
ENDBRANCH   6   9
ENDBRANCH   2   5
BRANCH   1  17
HETATM   17  C   UNL     1      43.543 -12.692   6.139  1.00  0.00     0.002 A 
HETATM   18  C   UNL     1      42.551 -11.673   6.018  1.00  0.00     0.079 A 
HETATM   19  C   UNL     1      42.711 -10.430   6.650  1.00  0.00     0.047 A 
HETATM   20  C   UNL     1      43.822 -10.240   7.446  1.00  0.00    -0.020 A 
HETATM   21  C   UNL     1      44.787 -11.224   7.563  1.00  0.00     0.076 A 
HETATM   22  C   UNL     1      44.238  -9.055   8.230  1.00  0.00     0.073 C 
HETATM   23  C   UNL     1      44.696 -12.428   6.895  1.00  0.00     0.051 A 
HETATM   24  O   UNL     1      45.811 -10.887   8.414  1.00  0.00    -0.345 OA
HETATM   25  C   UNL     1      45.314  -9.712   9.108  1.00  0.00     0.129 C 
HETATM   26  C   UNL     1      44.777 -10.134  10.478  1.00  0.00     0.040 C 
BRANCH  18  27
HETATM   27  O   UNL     1      41.459 -11.977   5.240  1.00  0.00    -0.351 OA
BRANCH  27  28
HETATM   28  C   UNL     1      40.189 -11.998   5.890  1.00  0.00     0.171 C 
HETATM   29  C   UNL     1      39.830 -13.449   6.154  1.00  0.00     0.034 C 
ENDBRANCH  27  28
ENDBRANCH  18  27
ENDBRANCH   1  17
TORSDOF 5
ENDMDL
MODEL 2
REMARK VINA RESULT:      -8.5      4.769      8.152
REMARK  5 active torsions:
REMARK  status: ('A' for Active; 'I' for Inactive)
REMARK    1  A    between atoms: C_2  and  O_3 
REMARK    2  A    between atoms: O_3  and  C_4 
REMARK    3  A    between atoms: C_5  and  C_6 
REMARK    4  A    between atoms: C_7  and  C_8 
REMARK       I    between atoms: C_8  and  N_9 
REMARK    5  A    between atoms: N_9  and  C_10 
ROOT
HETATM    1  C   UNL     1      41.338 -15.081   1.697  1.00  0.00     0.041 C 
HETATM    2  C   UNL     1      41.546 -13.769   1.459  1.00  0.00     0.099 C 
HETATM    3  C   UNL     1      42.490 -12.940   2.314  1.00  0.00     0.025 C 
HETATM    4  N   UNL     1      43.272 -12.251   3.024  1.00  0.00    -0.096 N 
ENDROOT
BRANCH   2   5
HETATM    5  C   UNL     1      40.848 -13.136   0.284  1.00  0.00     0.265 C 
HETATM    6  N   UNL     1      39.524 -13.504   0.115  1.00  0.00    -0.321 N 
HETATM    7  H   UNL     1      39.080 -13.980   0.888  1.00  0.00     0.169 HD
HETATM    8  O   UNL     1      41.441 -12.296  -0.390  1.00  0.00    -0.267 OA
BRANCH   6   9
HETATM    9  C   UNL     1      38.614 -12.978  -0.845  1.00  0.00     0.047 A 
HETATM   10  C   UNL     1      38.321 -13.592  -2.083  1.00  0.00    -0.035 A 
HETATM   11  C   UNL     1      38.805 -14.953  -2.507  1.00  0.00     0.050 C 
HETATM   12  C   UNL     1      37.469 -12.932  -2.991  1.00  0.00     0.009 A 
HETATM   13  C   UNL     1      36.856 -11.729  -2.665  1.00  0.00     0.001 A 
HETATM   14  C   UNL     1      37.076 -11.164  -1.417  1.00  0.00     0.009 A 
HETATM   15  C   UNL     1      37.945 -11.775  -0.496  1.00  0.00    -0.035 A 
HETATM   16  C   UNL     1      38.155 -11.083   0.827  1.00  0.00     0.050 C 
ENDBRANCH   6   9
ENDBRANCH   2   5
BRANCH   1  17
HETATM   17  C   UNL     1      42.004 -15.968   2.686  1.00  0.00     0.002 A 
HETATM   18  C   UNL     1      41.544 -15.958   4.037  1.00  0.00     0.079 A 
HETATM   19  C   UNL     1      42.131 -16.785   5.006  1.00  0.00     0.047 A 
HETATM   20  C   UNL     1      43.122 -17.658   4.606  1.00  0.00    -0.020 A 
HETATM   21  C   UNL     1      43.572 -17.668   3.298  1.00  0.00     0.076 A 
HETATM   22  C   UNL     1      43.899 -18.641   5.396  1.00  0.00     0.073 C 
HETATM   23  C   UNL     1      43.068 -16.814   2.339  1.00  0.00     0.051 A 
HETATM   24  O   UNL     1      44.540 -18.613   3.061  1.00  0.00    -0.345 OA
HETATM   25  C   UNL     1      44.499 -19.459   4.242  1.00  0.00     0.129 C 
HETATM   26  C   UNL     1      43.683 -20.715   3.926  1.00  0.00     0.040 C 
BRANCH  18  27
HETATM   27  O   UNL     1      40.520 -15.086   4.324  1.00  0.00    -0.351 OA
BRANCH  27  28
HETATM   28  C   UNL     1      40.736 -14.167   5.394  1.00  0.00     0.171 C 
HETATM   29  C   UNL     1      39.924 -12.919   5.101  1.00  0.00     0.034 C 
ENDBRANCH  27  28
ENDBRANCH  18  27
ENDBRANCH   1  17
TORSDOF 5
ENDMDL
MODEL 3
REMARK VINA RESULT:      -8.2      1.424      1.870
REMARK  5 active torsions:
REMARK  status: ('A' for Active; 'I' for Inactive)
REMARK    1  A    between atoms: C_2  and  O_3 
REMARK    2  A    between atoms: O_3  and  C_4 
REMARK    3  A    between atoms: C_5  and  C_6 
REMARK    4  A    between atoms: C_7  and  C_8 
REMARK       I    between atoms: C_8  and  N_9 
REMARK    5  A    between atoms: N_9  and  C_10 
ROOT
HETATM    1  C   UNL     1      42.716 -13.394   6.188  1.00  0.00     0.041 C 
HETATM    2  C   UNL     1      42.770 -13.783   4.896  1.00  0.00     0.099 C 
HETATM    3  C   UNL     1      43.173 -12.823   3.788  1.00  0.00     0.025 C 
HETATM    4  N   UNL     1      43.507 -12.027   2.868  1.00  0.00    -0.096 N 
ENDROOT
BRANCH   2   5
HETATM    5  C   UNL     1      42.463 -15.220   4.568  1.00  0.00     0.265 C 
HETATM    6  N   UNL     1      43.536 -15.962   4.104  1.00  0.00    -0.321 N 
HETATM    7  H   UNL     1      44.456 -15.560   4.225  1.00  0.00     0.169 HD
HETATM    8  O   UNL     1      41.340 -15.666   4.797  1.00  0.00    -0.267 OA
BRANCH   6   9
HETATM    9  C   UNL     1      43.543 -17.358   3.825  1.00  0.00     0.047 A 
HETATM   10  C   UNL     1      43.717 -18.363   4.801  1.00  0.00    -0.035 A 
HETATM   11  C   UNL     1      43.772 -18.123   6.286  1.00  0.00     0.050 C 
HETATM   12  C   UNL     1      43.794 -19.710   4.394  1.00  0.00     0.009 A 
HETATM   13  C   UNL     1      43.630 -20.074   3.063  1.00  0.00     0.001 A 
HETATM   14  C   UNL     1      43.376 -19.096   2.111  1.00  0.00     0.009 A 
HETATM   15  C   UNL     1      43.326 -17.738   2.474  1.00  0.00    -0.035 A 
HETATM   16  C   UNL     1      43.075 -16.734   1.377  1.00  0.00     0.050 C 
ENDBRANCH   6   9
ENDBRANCH   2   5
BRANCH   1  17
HETATM   17  C   UNL     1      43.106 -12.093   6.789  1.00  0.00     0.002 A 
HETATM   18  C   UNL     1      42.288 -10.950   6.544  1.00  0.00     0.079 A 
HETATM   19  C   UNL     1      42.607  -9.701   7.099  1.00  0.00     0.047 A 
HETATM   20  C   UNL     1      43.696  -9.620   7.942  1.00  0.00    -0.020 A 
HETATM   21  C   UNL     1      44.493 -10.726   8.179  1.00  0.00     0.076 A 
HETATM   22  C   UNL     1      44.252  -8.455   8.668  1.00  0.00     0.073 C 
HETATM   23  C   UNL     1      44.250 -11.949   7.589  1.00  0.00     0.051 A 
HETATM   24  O   UNL     1      45.516 -10.482   9.062  1.00  0.00    -0.345 OA
HETATM   25  C   UNL     1      45.173  -9.198   9.648  1.00  0.00     0.129 C 
HETATM   26  C   UNL     1      44.516  -9.432  11.010  1.00  0.00     0.040 C 
BRANCH  18  27
HETATM   27  O   UNL     1      41.199 -11.145   5.727  1.00  0.00    -0.351 OA
BRANCH  27  28
HETATM   28  C   UNL     1      39.926 -11.254   6.363  1.00  0.00     0.171 C 
HETATM   29  C   UNL     1      39.178 -12.399   5.706  1.00  0.00     0.034 C 
ENDBRANCH  27  28
ENDBRANCH  18  27
ENDBRANCH   1  17
TORSDOF 5
ENDMDL
MODEL 4
REMARK VINA RESULT:      -8.0      2.499      4.357
REMARK  5 active torsions:
REMARK  status: ('A' for Active; 'I' for Inactive)
REMARK    1  A    between atoms: C_2  and  O_3 
REMARK    2  A    between atoms: O_3  and  C_4 
REMARK    3  A    between atoms: C_5  and  C_6 
REMARK    4  A    between atoms: C_7  and  C_8 
REMARK       I    between atoms: C_8  and  N_9 
REMARK    5  A    between atoms: N_9  and  C_10 
ROOT
HETATM    1  C   UNL     1      41.222 -13.301   5.603  1.00  0.00     0.041 C 
HETATM    2  C   UNL     1      40.703 -13.859   4.488  1.00  0.00     0.099 C 
HETATM    3  C   UNL     1      39.769 -13.089   3.569  1.00  0.00     0.025 C 
HETATM    4  N   UNL     1      38.993 -12.451   2.806  1.00  0.00    -0.096 N 
ENDROOT
BRANCH   2   5
HETATM    5  C   UNL     1      41.106 -15.267   4.139  1.00  0.00     0.265 C 
HETATM    6  N   UNL     1      42.430 -15.583   4.397  1.00  0.00    -0.321 N 
HETATM    7  H   UNL     1      42.948 -14.941   4.980  1.00  0.00     0.169 HD
HETATM    8  O   UNL     1      40.255 -16.057   3.736  1.00  0.00    -0.267 OA
BRANCH   6   9
HETATM    9  C   UNL     1      43.037 -16.863   4.259  1.00  0.00     0.047 A 
HETATM   10  C   UNL     1      43.400 -17.441   3.023  1.00  0.00    -0.035 A 
HETATM   11  C   UNL     1      43.339 -16.741   1.692  1.00  0.00     0.050 C 
HETATM   12  C   UNL     1      43.915 -18.753   3.003  1.00  0.00     0.009 A 
HETATM   13  C   UNL     1      44.140 -19.460   4.178  1.00  0.00     0.001 A 
HETATM   14  C   UNL     1      43.862 -18.863   5.401  1.00  0.00     0.009 A 
HETATM   15  C   UNL     1      43.316 -17.569   5.459  1.00  0.00    -0.035 A 
HETATM   16  C   UNL     1      43.014 -17.003   6.824  1.00  0.00     0.050 C 
ENDBRANCH   6   9
ENDBRANCH   2   5
BRANCH   1  17
HETATM   17  C   UNL     1      41.103 -11.903   6.090  1.00  0.00     0.002 A 
HETATM   18  C   UNL     1      42.284 -11.109   6.196  1.00  0.00     0.079 A 
HETATM   19  C   UNL     1      42.223  -9.779   6.638  1.00  0.00     0.047 A 
HETATM   20  C   UNL     1      40.983  -9.236   6.906  1.00  0.00    -0.020 A 
HETATM   21  C   UNL     1      39.837 -10.003   6.807  1.00  0.00     0.076 A 
HETATM   22  C   UNL     1      40.621  -7.876   7.370  1.00  0.00     0.073 C 
HETATM   23  C   UNL     1      39.870 -11.335   6.448  1.00  0.00     0.051 A 
HETATM   24  O   UNL     1      38.687  -9.304   7.080  1.00  0.00    -0.345 OA
HETATM   25  C   UNL     1      39.113  -7.915   7.077  1.00  0.00     0.129 C 
HETATM   26  C   UNL     1      38.761  -7.290   5.725  1.00  0.00     0.040 C 
BRANCH  18  27
HETATM   27  O   UNL     1      43.465 -11.729   5.861  1.00  0.00    -0.351 OA
BRANCH  27  28
HETATM   28  C   UNL     1      44.396 -11.957   6.917  1.00  0.00     0.171 C 
HETATM   29  C   UNL     1      45.707 -11.301   6.526  1.00  0.00     0.034 C 
ENDBRANCH  27  28
ENDBRANCH  18  27
ENDBRANCH   1  17
TORSDOF 5
ENDMDL
MODEL 5
REMARK VINA RESULT:      -8.0      2.984      8.971
REMARK  5 active torsions:
REMARK  status: ('A' for Active; 'I' for Inactive)
REMARK    1  A    between atoms: C_2  and  O_3 
REMARK    2  A    between atoms: O_3  and  C_4 
REMARK    3  A    between atoms: C_5  and  C_6 
REMARK    4  A    between atoms: C_7  and  C_8 
REMARK       I    between atoms: C_8  and  N_9 
REMARK    5  A    between atoms: N_9  and  C_10 
ROOT
HETATM    1  C   UNL     1      42.362 -11.928   6.249  1.00  0.00     0.041 C 
HETATM    2  C   UNL     1      43.329 -11.126   6.742  1.00  0.00     0.099 C 
HETATM    3  C   UNL     1      44.780 -11.260   6.307  1.00  0.00     0.025 C 
HETATM    4  N   UNL     1      45.983 -11.372   5.948  1.00  0.00    -0.096 N 
ENDROOT
BRANCH   2   5
HETATM    5  C   UNL     1      42.936 -10.046   7.715  1.00  0.00     0.265 C 
HETATM    6  N   UNL     1      42.881 -10.438   9.042  1.00  0.00    -0.321 N 
HETATM    7  H   UNL     1      43.305 -11.326   9.274  1.00  0.00     0.169 HD
HETATM    8  O   UNL     1      42.771  -8.897   7.309  1.00  0.00    -0.267 OA
BRANCH   6   9
HETATM    9  C   UNL     1      42.641  -9.597  10.164  1.00  0.00     0.047 A 
HETATM   10  C   UNL     1      41.368  -9.104  10.530  1.00  0.00    -0.035 A 
HETATM   11  C   UNL     1      40.069  -9.507   9.886  1.00  0.00     0.050 C 
HETATM   12  C   UNL     1      41.265  -8.206  11.612  1.00  0.00     0.009 A 
HETATM   13  C   UNL     1      42.375  -7.854  12.369  1.00  0.00     0.001 A 
HETATM   14  C   UNL     1      43.614  -8.402  12.064  1.00  0.00     0.009 A 
HETATM   15  C   UNL     1      43.763  -9.275  10.972  1.00  0.00    -0.035 A 
HETATM   16  C   UNL     1      45.147  -9.803  10.688  1.00  0.00     0.050 C 
ENDBRANCH   6   9
ENDBRANCH   2   5
BRANCH   1  17
HETATM   17  C   UNL     1      42.457 -12.959   5.184  1.00  0.00     0.002 A 
HETATM   18  C   UNL     1      42.855 -14.282   5.542  1.00  0.00     0.079 A 
HETATM   19  C   UNL     1      42.948 -15.295   4.575  1.00  0.00     0.047 A 
HETATM   20  C   UNL     1      42.582 -14.996   3.279  1.00  0.00    -0.020 A 
HETATM   21  C   UNL     1      42.199 -13.715   2.928  1.00  0.00     0.076 A 
HETATM   22  C   UNL     1      42.568 -15.856   2.073  1.00  0.00     0.073 C 
HETATM   23  C   UNL     1      42.170 -12.679   3.839  1.00  0.00     0.051 A 
HETATM   24  O   UNL     1      41.841 -13.594   1.608  1.00  0.00    -0.345 OA
HETATM   25  C   UNL     1      41.716 -14.968   1.153  1.00  0.00     0.129 C 
HETATM   26  C   UNL     1      40.237 -15.362   1.160  1.00  0.00     0.040 C 
BRANCH  18  27
HETATM   27  O   UNL     1      43.154 -14.489   6.868  1.00  0.00    -0.351 OA
BRANCH  27  28
HETATM   28  C   UNL     1      42.643 -15.679   7.467  1.00  0.00     0.171 C 
HETATM   29  C   UNL     1      43.812 -16.620   7.693  1.00  0.00     0.034 C 
ENDBRANCH  27  28
ENDBRANCH  18  27
ENDBRANCH   1  17
TORSDOF 5
ENDMDL
MODEL 6
REMARK VINA RESULT:      -8.0      1.525      2.443
REMARK  5 active torsions:
REMARK  status: ('A' for Active; 'I' for Inactive)
REMARK    1  A    between atoms: C_2  and  O_3 
REMARK    2  A    between atoms: O_3  and  C_4 
REMARK    3  A    between atoms: C_5  and  C_6 
REMARK    4  A    between atoms: C_7  and  C_8 
REMARK       I    between atoms: C_8  and  N_9 
REMARK    5  A    between atoms: N_9  and  C_10 
ROOT
HETATM    1  C   UNL     1      43.054 -13.730   5.728  1.00  0.00     0.041 C 
HETATM    2  C   UNL     1      41.878 -14.364   5.537  1.00  0.00     0.099 C 
HETATM    3  C   UNL     1      40.574 -13.820   6.100  1.00  0.00     0.025 C 
HETATM    4  N   UNL     1      39.493 -13.370   6.567  1.00  0.00    -0.096 N 
ENDROOT
BRANCH   2   5
HETATM    5  C   UNL     1      41.869 -15.620   4.706  1.00  0.00     0.265 C 
HETATM    6  N   UNL     1      43.099 -16.239   4.559  1.00  0.00    -0.321 N 
HETATM    7  H   UNL     1      43.840 -15.936   5.177  1.00  0.00     0.169 HD
HETATM    8  O   UNL     1      40.800 -16.060   4.286  1.00  0.00    -0.267 OA
BRANCH   6   9
HETATM    9  C   UNL     1      43.349 -17.485   3.918  1.00  0.00     0.047 A 
HETATM   10  C   UNL     1      43.347 -17.672   2.517  1.00  0.00    -0.035 A 
HETATM   11  C   UNL     1      43.230 -16.569   1.500  1.00  0.00     0.050 C 
HETATM   12  C   UNL     1      43.521 -18.971   1.998  1.00  0.00     0.009 A 
HETATM   13  C   UNL     1      43.766 -20.056   2.831  1.00  0.00     0.001 A 
HETATM   14  C   UNL     1      43.851 -19.862   4.203  1.00  0.00     0.009 A 
HETATM   15  C   UNL     1      43.650 -18.587   4.760  1.00  0.00    -0.035 A 
HETATM   16  C   UNL     1      43.729 -18.464   6.262  1.00  0.00     0.050 C 
ENDBRANCH   6   9
ENDBRANCH   2   5
BRANCH   1  17
HETATM   17  C   UNL     1      43.313 -12.418   6.374  1.00  0.00     0.002 A 
HETATM   18  C   UNL     1      42.767 -11.239   5.782  1.00  0.00     0.079 A 
HETATM   19  C   UNL     1      42.973  -9.978   6.361  1.00  0.00     0.047 A 
HETATM   20  C   UNL     1      43.662  -9.912   7.555  1.00  0.00    -0.020 A 
HETATM   21  C   UNL     1      44.194 -11.051   8.130  1.00  0.00     0.076 A 
HETATM   22  C   UNL     1      44.012  -8.737   8.386  1.00  0.00     0.073 C 
HETATM   23  C   UNL     1      44.074 -12.296   7.547  1.00  0.00     0.051 A 
HETATM   24  O   UNL     1      44.824 -10.815   9.328  1.00  0.00    -0.345 OA
HETATM   25  C   UNL     1      44.413  -9.467   9.678  1.00  0.00     0.129 C 
HETATM   26  C   UNL     1      43.267  -9.543  10.690  1.00  0.00     0.040 C 
BRANCH  18  27
HETATM   27  O   UNL     1      42.057 -11.417   4.618  1.00  0.00    -0.351 OA
BRANCH  27  28
HETATM   28  C   UNL     1      42.717 -11.073   3.400  1.00  0.00     0.171 C 
HETATM   29  C   UNL     1      42.567 -12.245   2.447  1.00  0.00     0.034 C 
ENDBRANCH  27  28
ENDBRANCH  18  27
ENDBRANCH   1  17
TORSDOF 5
ENDMDL
MODEL 7
REMARK VINA RESULT:      -7.9      2.273      8.376
REMARK  5 active torsions:
REMARK  status: ('A' for Active; 'I' for Inactive)
REMARK    1  A    between atoms: C_2  and  O_3 
REMARK    2  A    between atoms: O_3  and  C_4 
REMARK    3  A    between atoms: C_5  and  C_6 
REMARK    4  A    between atoms: C_7  and  C_8 
REMARK       I    between atoms: C_8  and  N_9 
REMARK    5  A    between atoms: N_9  and  C_10 
ROOT
HETATM    1  C   UNL     1      42.956 -13.202   4.284  1.00  0.00     0.041 C 
HETATM    2  C   UNL     1      42.176 -12.628   5.225  1.00  0.00     0.099 C 
HETATM    3  C   UNL     1      40.964 -13.341   5.804  1.00  0.00     0.025 C 
HETATM    4  N   UNL     1      39.959 -13.931   6.283  1.00  0.00    -0.096 N 
ENDROOT
BRANCH   2   5
HETATM    5  C   UNL     1      42.556 -11.263   5.734  1.00  0.00     0.265 C 
HETATM    6  N   UNL     1      42.998 -11.224   7.046  1.00  0.00    -0.321 N 
HETATM    7  H   UNL     1      43.231 -12.109   7.476  1.00  0.00     0.169 HD
HETATM    8  O   UNL     1      42.536 -10.304   4.965  1.00  0.00    -0.267 OA
BRANCH   6   9
HETATM    9  C   UNL     1      43.513 -10.089   7.733  1.00  0.00     0.047 A 
HETATM   10  C   UNL     1      42.712  -9.096   8.340  1.00  0.00    -0.035 A 
HETATM   11  C   UNL     1      41.215  -9.162   8.480  1.00  0.00     0.050 C 
HETATM   12  C   UNL     1      43.334  -7.971   8.917  1.00  0.00     0.009 A 
HETATM   13  C   UNL     1      44.718  -7.854   8.965  1.00  0.00     0.001 A 
HETATM   14  C   UNL     1      45.510  -8.868   8.444  1.00  0.00     0.009 A 
HETATM   15  C   UNL     1      44.926  -9.990   7.831  1.00  0.00    -0.035 A 
HETATM   16  C   UNL     1      45.855 -11.034   7.262  1.00  0.00     0.050 C 
ENDBRANCH   6   9
ENDBRANCH   2   5
BRANCH   1  17
HETATM   17  C   UNL     1      42.888 -14.577   3.726  1.00  0.00     0.002 A 
HETATM   18  C   UNL     1      42.559 -14.743   2.347  1.00  0.00     0.079 A 
HETATM   19  C   UNL     1      42.494 -16.020   1.769  1.00  0.00     0.047 A 
HETATM   20  C   UNL     1      42.821 -17.109   2.552  1.00  0.00    -0.020 A 
HETATM   21  C   UNL     1      43.137 -16.951   3.889  1.00  0.00     0.076 A 
HETATM   22  C   UNL     1      42.851 -18.550   2.211  1.00  0.00     0.073 C 
HETATM   23  C   UNL     1      43.136 -15.717   4.506  1.00  0.00     0.051 A 
HETATM   24  O   UNL     1      43.464 -18.129   4.516  1.00  0.00    -0.345 OA
HETATM   25  C   UNL     1      43.642 -19.068   3.422  1.00  0.00     0.129 C 
HETATM   26  C   UNL     1      45.138 -19.211   3.129  1.00  0.00     0.040 C 
BRANCH  18  27
HETATM   27  O   UNL     1      42.296 -13.593   1.642  1.00  0.00    -0.351 OA
BRANCH  27  28
HETATM   28  C   UNL     1      41.055 -13.535   0.941  1.00  0.00     0.171 C 
HETATM   29  C   UNL     1      39.954 -13.341   1.968  1.00  0.00     0.034 C 
ENDBRANCH  27  28
ENDBRANCH  18  27
ENDBRANCH   1  17
TORSDOF 5
ENDMDL
MODEL 8
REMARK VINA RESULT:      -7.7      5.891      7.919
REMARK  5 active torsions:
REMARK  status: ('A' for Active; 'I' for Inactive)
REMARK    1  A    between atoms: C_2  and  O_3 
REMARK    2  A    between atoms: O_3  and  C_4 
REMARK    3  A    between atoms: C_5  and  C_6 
REMARK    4  A    between atoms: C_7  and  C_8 
REMARK       I    between atoms: C_8  and  N_9 
REMARK    5  A    between atoms: N_9  and  C_10 
ROOT
HETATM    1  C   UNL     1      41.027 -13.229   0.441  1.00  0.00     0.041 C 
HETATM    2  C   UNL     1      40.176 -13.411   1.473  1.00  0.00     0.099 C 
HETATM    3  C   UNL     1      39.002 -12.476   1.717  1.00  0.00     0.025 C 
HETATM    4  N   UNL     1      38.029 -11.700   1.920  1.00  0.00    -0.096 N 
ENDROOT
BRANCH   2   5
HETATM    5  C   UNL     1      40.385 -14.601   2.372  1.00  0.00     0.265 C 
HETATM    6  N   UNL     1      41.568 -14.599   3.090  1.00  0.00    -0.321 N 
HETATM    7  H   UNL     1      42.081 -13.728   3.123  1.00  0.00     0.169 HD
HETATM    8  O   UNL     1      39.492 -15.440   2.480  1.00  0.00    -0.267 OA
BRANCH   6   9
HETATM    9  C   UNL     1      41.960 -15.542   4.081  1.00  0.00     0.047 A 
HETATM   10  C   UNL     1      41.557 -15.489   5.434  1.00  0.00    -0.035 A 
HETATM   11  C   UNL     1      40.546 -14.525   5.995  1.00  0.00     0.050 C 
HETATM   12  C   UNL     1      42.080 -16.430   6.343  1.00  0.00     0.009 A 
HETATM   13  C   UNL     1      42.924 -17.450   5.924  1.00  0.00     0.001 A 
HETATM   14  C   UNL     1      43.256 -17.556   4.580  1.00  0.00     0.009 A 
HETATM   15  C   UNL     1      42.782 -16.617   3.648  1.00  0.00    -0.035 A 
HETATM   16  C   UNL     1      43.212 -16.783   2.212  1.00  0.00     0.050 C 
ENDBRANCH   6   9
ENDBRANCH   2   5
BRANCH   1  17
HETATM   17  C   UNL     1      40.960 -12.235  -0.660  1.00  0.00     0.002 A 
HETATM   18  C   UNL     1      40.459 -12.648  -1.930  1.00  0.00     0.079 A 
HETATM   19  C   UNL     1      40.364 -11.744  -2.999  1.00  0.00     0.047 A 
HETATM   20  C   UNL     1      40.707 -10.426  -2.772  1.00  0.00    -0.020 A 
HETATM   21  C   UNL     1      41.196 -10.023  -1.543  1.00  0.00     0.076 A 
HETATM   22  C   UNL     1      40.695  -9.269  -3.696  1.00  0.00     0.073 C 
HETATM   23  C   UNL     1      41.372 -10.903  -0.495  1.00  0.00     0.051 A 
HETATM   24  O   UNL     1      41.462  -8.677  -1.476  1.00  0.00    -0.345 OA
HETATM   25  C   UNL     1      40.826  -8.137  -2.665  1.00  0.00     0.129 C 
HETATM   26  C   UNL     1      39.473  -7.537  -2.275  1.00  0.00     0.040 C 
BRANCH  18  27
HETATM   27  O   UNL     1      40.100 -13.971  -2.041  1.00  0.00    -0.351 OA
BRANCH  27  28
HETATM   28  C   UNL     1      38.704 -14.265  -2.028  1.00  0.00     0.171 C 
HETATM   29  C   UNL     1      38.343 -14.845  -3.383  1.00  0.00     0.034 C 
ENDBRANCH  27  28
ENDBRANCH  18  27
ENDBRANCH   1  17
TORSDOF 5
ENDMDL
MODEL 9
REMARK VINA RESULT:      -7.6      2.716      4.127
REMARK  5 active torsions:
REMARK  status: ('A' for Active; 'I' for Inactive)
REMARK    1  A    between atoms: C_2  and  O_3 
REMARK    2  A    between atoms: O_3  and  C_4 
REMARK    3  A    between atoms: C_5  and  C_6 
REMARK    4  A    between atoms: C_7  and  C_8 
REMARK       I    between atoms: C_8  and  N_9 
REMARK    5  A    between atoms: N_9  and  C_10 
ROOT
HETATM    1  C   UNL     1      42.874 -11.597   5.094  1.00  0.00     0.041 C 
HETATM    2  C   UNL     1      42.148 -12.706   4.838  1.00  0.00     0.099 C 
HETATM    3  C   UNL     1      40.674 -12.798   5.197  1.00  0.00     0.025 C 
HETATM    4  N   UNL     1      39.451 -12.875   5.495  1.00  0.00    -0.096 N 
ENDROOT
BRANCH   2   5
HETATM    5  C   UNL     1      42.822 -13.856   4.138  1.00  0.00     0.265 C 
HETATM    6  N   UNL     1      42.452 -15.115   4.580  1.00  0.00    -0.321 N 
HETATM    7  H   UNL     1      41.629 -15.170   5.164  1.00  0.00     0.169 HD
HETATM    8  O   UNL     1      43.574 -13.631   3.191  1.00  0.00    -0.267 OA
BRANCH   6   9
HETATM    9  C   UNL     1      42.855 -16.361   4.023  1.00  0.00     0.047 A 
HETATM   10  C   UNL     1      43.911 -17.153   4.527  1.00  0.00    -0.035 A 
HETATM   11  C   UNL     1      44.663 -16.877   5.802  1.00  0.00     0.050 C 
HETATM   12  C   UNL     1      44.278 -18.327   3.839  1.00  0.00     0.009 A 
HETATM   13  C   UNL     1      43.577 -18.758   2.720  1.00  0.00     0.001 A 
HETATM   14  C   UNL     1      42.486 -18.027   2.270  1.00  0.00     0.009 A 
HETATM   15  C   UNL     1      42.111 -16.833   2.910  1.00  0.00    -0.035 A 
HETATM   16  C   UNL     1      40.933 -16.080   2.342  1.00  0.00     0.050 C 
ENDBRANCH   6   9
ENDBRANCH   2   5
BRANCH   1  17
HETATM   17  C   UNL     1      42.422 -10.289   5.634  1.00  0.00     0.002 A 
HETATM   18  C   UNL     1      42.771  -9.941   6.974  1.00  0.00     0.079 A 
HETATM   19  C   UNL     1      42.379  -8.712   7.526  1.00  0.00     0.047 A 
HETATM   20  C   UNL     1      41.703  -7.819   6.720  1.00  0.00    -0.020 A 
HETATM   21  C   UNL     1      41.361  -8.155   5.422  1.00  0.00     0.076 A 
HETATM   22  C   UNL     1      41.185  -6.466   7.026  1.00  0.00     0.073 C 
HETATM   23  C   UNL     1      41.666  -9.384   4.874  1.00  0.00     0.051 A 
HETATM   24  O   UNL     1      40.718  -7.146   4.749  1.00  0.00    -0.345 OA
HETATM   25  C   UNL     1      40.918  -5.980   5.592  1.00  0.00     0.129 C 
HETATM   26  C   UNL     1      42.074  -5.151   5.028  1.00  0.00     0.040 C 
BRANCH  18  27
HETATM   27  O   UNL     1      43.486 -10.880   7.679  1.00  0.00    -0.351 OA
BRANCH  27  28
HETATM   28  C   UNL     1      44.524 -10.396   8.531  1.00  0.00     0.171 C 
HETATM   29  C   UNL     1      45.827 -10.470   7.756  1.00  0.00     0.034 C 
ENDBRANCH  27  28
ENDBRANCH  18  27
ENDBRANCH   1  17
TORSDOF 5
ENDMDL
MODEL 10
REMARK VINA RESULT:      -7.4      3.488      9.169
REMARK  5 active torsions:
REMARK  status: ('A' for Active; 'I' for Inactive)
REMARK    1  A    between atoms: C_2  and  O_3 
REMARK    2  A    between atoms: O_3  and  C_4 
REMARK    3  A    between atoms: C_5  and  C_6 
REMARK    4  A    between atoms: C_7  and  C_8 
REMARK       I    between atoms: C_8  and  N_9 
REMARK    5  A    between atoms: N_9  and  C_10 
ROOT
HETATM    1  C   UNL     1      42.095 -10.863   6.635  1.00  0.00     0.041 C 
HETATM    2  C   UNL     1      41.719  -9.571   6.748  1.00  0.00     0.099 C 
HETATM    3  C   UNL     1      41.444  -8.708   5.527  1.00  0.00     0.025 C 
HETATM    4  N   UNL     1      41.217  -7.992   4.514  1.00  0.00    -0.096 N 
ENDROOT
BRANCH   2   5
HETATM    5  C   UNL     1      41.529  -8.999   8.128  1.00  0.00     0.265 C 
HETATM    6  N   UNL     1      42.032  -9.771   9.161  1.00  0.00    -0.321 N 
HETATM    7  H   UNL     1      42.658 -10.523   8.907  1.00  0.00     0.169 HD
HETATM    8  O   UNL     1      41.031  -7.882   8.256  1.00  0.00    -0.267 OA
BRANCH   6   9
HETATM    9  C   UNL     1      42.078  -9.417  10.539  1.00  0.00     0.047 A 
HETATM   10  C   UNL     1      40.961  -9.441  11.404  1.00  0.00    -0.035 A 
HETATM   11  C   UNL     1      39.603  -9.981  11.044  1.00  0.00     0.050 C 
HETATM   12  C   UNL     1      41.109  -8.984  12.729  1.00  0.00     0.009 A 
HETATM   13  C   UNL     1      42.343  -8.579  13.221  1.00  0.00     0.001 A 
HETATM   14  C   UNL     1      43.460  -8.632  12.398  1.00  0.00     0.009 A 
HETATM   15  C   UNL     1      43.347  -9.051  11.061  1.00  0.00    -0.035 A 
HETATM   16  C   UNL     1      44.601  -9.052  10.224  1.00  0.00     0.050 C 
ENDBRANCH   6   9
ENDBRANCH   2   5
BRANCH   1  17
HETATM   17  C   UNL     1      42.211 -11.698   5.412  1.00  0.00     0.002 A 
HETATM   18  C   UNL     1      43.452 -11.717   4.708  1.00  0.00     0.079 A 
HETATM   19  C   UNL     1      43.616 -12.500   3.555  1.00  0.00     0.047 A 
HETATM   20  C   UNL     1      42.567 -13.303   3.155  1.00  0.00    -0.020 A 
HETATM   21  C   UNL     1      41.362 -13.285   3.834  1.00  0.00     0.076 A 
HETATM   22  C   UNL     1      42.463 -14.227   2.003  1.00  0.00     0.073 C 
HETATM   23  C   UNL     1      41.144 -12.470   4.927  1.00  0.00     0.051 A 
HETATM   24  O   UNL     1      40.436 -14.161   3.326  1.00  0.00    -0.345 OA
HETATM   25  C   UNL     1      41.208 -15.004   2.430  1.00  0.00     0.129 C 
HETATM   26  C   UNL     1      41.543 -16.315   3.146  1.00  0.00     0.040 C 
BRANCH  18  27
HETATM   27  O   UNL     1      44.450 -10.917   5.213  1.00  0.00    -0.351 OA
BRANCH  27  28
HETATM   28  C   UNL     1      45.553 -11.577   5.833  1.00  0.00     0.171 C 
HETATM   29  C   UNL     1      45.753 -10.953   7.202  1.00  0.00     0.034 C 
ENDBRANCH  27  28
ENDBRANCH  18  27
ENDBRANCH   1  17
TORSDOF 5
ENDMDL
