MODEL 1
REMARK VINA RESULT:      -7.9      0.000      0.000
REMARK  6 active torsions:
REMARK  status: ('A' for Active; 'I' for Inactive)
REMARK    1  A    between atoms: C_2  and  C_3 
REMARK    2  A    between atoms: C_3  and  C_4 
REMARK    3  A    between atoms: C_4  and  N_5 
REMARK       I    between atoms: N_5  and  C_6 
REMARK       I    between atoms: C_6  and  N_7 
REMARK    4  A    between atoms: N_7  and  C_8 
REMARK    5  A    between atoms: N_11  and  C_12 
REMARK    6  A    between atoms: C_15  and  O_16 
ROOT
HETATM    1  C   UNL     1      41.936 -12.006   5.508  1.00  0.00     0.123 C 
HETATM    2  C   UNL     1      42.586 -13.330   5.707  1.00  0.00     0.009 A 
HETATM    3  C   UNL     1      42.360 -14.438   4.908  1.00  0.00     0.047 A 
HETATM    4  N   UNL     1      43.243 -15.428   5.330  1.00  0.00    -0.238 N 
HETATM    5  N   UNL     1      43.985 -14.977   6.385  1.00  0.00    -0.179 NA
HETATM    6  C   UNL     1      43.596 -13.722   6.589  1.00  0.00     0.150 A 
HETATM    7  C   UNL     1      41.385 -14.474   3.774  1.00  0.00     0.069 C 
HETATM    8  C   UNL     1      40.867 -13.050   3.393  1.00  0.00    -0.040 C 
HETATM    9  C   UNL     1      39.515 -13.196   2.666  1.00  0.00     0.015 C 
HETATM   10  C   UNL     1      41.857 -12.372   2.424  1.00  0.00     0.015 C 
HETATM   11  C   UNL     1      40.657 -12.165   4.656  1.00  0.00     0.039 C 
ENDROOT
BRANCH   1  12
HETATM   12  N   UNL     1      41.630 -11.415   6.793  1.00  0.00    -0.334 N 
HETATM   13  C   UNL     1      42.450 -10.441   7.301  1.00  0.00     0.316 C 
HETATM   14  N   UNL     1      41.938  -9.900   8.453  1.00  0.00    -0.343 N 
HETATM   15  O   UNL     1      43.510 -10.107   6.790  1.00  0.00    -0.247 OA
HETATM   16  H   UNL     1      41.347 -10.532   8.973  1.00  0.00     0.164 HD
HETATM   17  H   UNL     1      40.660 -11.377   7.065  1.00  0.00     0.165 HD
BRANCH  14  18
HETATM   18  C   UNL     1      42.722  -8.973   9.249  1.00  0.00     0.124 C 
BRANCH  18  19
HETATM   19  C   UNL     1      42.950  -9.400  10.700  1.00  0.00     0.019 C 
BRANCH  19  20
HETATM   20  C   UNL     1      44.221 -10.229  10.889  1.00  0.00    -0.003 C 
HETATM   21  C   UNL     1      45.356  -9.696  10.028  1.00  0.00     0.005 C 
ENDBRANCH  19  20
ENDBRANCH  18  19
ENDBRANCH  14  18
ENDBRANCH   1  12
BRANCH   4  22
HETATM   22  C   UNL     1      43.503 -16.741   4.821  1.00  0.00     0.058 A 
HETATM   23  C   UNL     1      43.414 -16.954   3.435  1.00  0.00     0.034 A 
HETATM   24  C   UNL     1      43.586 -18.232   2.893  1.00  0.00     0.039 A 
HETATM   25  C   UNL     1      43.852 -19.322   3.718  1.00  0.00     0.068 A 
HETATM   26  C   UNL     1      43.991 -19.113   5.089  1.00  0.00     0.039 A 
HETATM   27  C   UNL     1      43.824 -17.830   5.637  1.00  0.00     0.034 A 
BRANCH  25  28
HETATM   28  O   UNL     1      43.970 -20.521   3.073  1.00  0.00    -0.356 OA
HETATM   29  C   UNL     1      43.580 -20.549   1.704  1.00  0.00     0.210 C 
ENDBRANCH  25  28
ENDBRANCH   4  22
TORSDOF 6
ENDMDL
MODEL 2
REMARK VINA RESULT:      -7.8      2.820      4.696
REMARK  6 active torsions:
REMARK  status: ('A' for Active; 'I' for Inactive)
REMARK    1  A    between atoms: C_2  and  C_3 
REMARK    2  A    between atoms: C_3  and  C_4 
REMARK    3  A    between atoms: C_4  and  N_5 
REMARK       I    between atoms: N_5  and  C_6 
REMARK       I    between atoms: C_6  and  N_7 
REMARK    4  A    between atoms: N_7  and  C_8 
REMARK    5  A    between atoms: N_11  and  C_12 
REMARK    6  A    between atoms: C_15  and  O_16 
ROOT
HETATM    1  C   UNL     1      43.563 -13.538   6.459  1.00  0.00     0.123 C 
HETATM    2  C   UNL     1      42.987 -13.225   5.123  1.00  0.00     0.009 A 
HETATM    3  C   UNL     1      42.550 -14.178   4.219  1.00  0.00     0.047 A 
HETATM    4  N   UNL     1      41.965 -13.493   3.158  1.00  0.00    -0.238 N 
HETATM    5  N   UNL     1      42.056 -12.144   3.363  1.00  0.00    -0.179 NA
HETATM    6  C   UNL     1      42.651 -11.999   4.543  1.00  0.00     0.150 A 
HETATM    7  C   UNL     1      42.654 -15.654   4.435  1.00  0.00     0.069 C 
HETATM    8  C   UNL     1      43.030 -16.012   5.910  1.00  0.00    -0.040 C 
HETATM    9  C   UNL     1      43.658 -17.420   5.930  1.00  0.00     0.015 C 
HETATM   10  C   UNL     1      41.759 -16.047   6.783  1.00  0.00     0.015 C 
HETATM   11  C   UNL     1      44.059 -15.001   6.495  1.00  0.00     0.039 C 
ENDROOT
BRANCH   1  12
HETATM   12  N   UNL     1      44.642 -12.620   6.752  1.00  0.00    -0.334 N 
HETATM   13  C   UNL     1      44.398 -11.516   7.528  1.00  0.00     0.316 C 
HETATM   14  N   UNL     1      45.555 -10.837   7.817  1.00  0.00    -0.343 N 
HETATM   15  O   UNL     1      43.284 -11.181   7.906  1.00  0.00    -0.247 OA
HETATM   16  H   UNL     1      46.276 -10.945   7.119  1.00  0.00     0.164 HD
HETATM   17  H   UNL     1      45.575 -13.000   6.786  1.00  0.00     0.165 HD
BRANCH  14  18
HETATM   18  C   UNL     1      45.509  -9.547   8.483  1.00  0.00     0.124 C 
BRANCH  18  19
HETATM   19  C   UNL     1      45.696  -9.598  10.000  1.00  0.00     0.019 C 
BRANCH  19  20
HETATM   20  C   UNL     1      44.400  -9.351  10.773  1.00  0.00    -0.003 C 
HETATM   21  C   UNL     1      43.832 -10.652  11.321  1.00  0.00     0.005 C 
ENDBRANCH  19  20
ENDBRANCH  18  19
ENDBRANCH  14  18
ENDBRANCH   1  12
BRANCH   4  22
HETATM   22  C   UNL     1      41.285 -13.963   1.989  1.00  0.00     0.058 A 
HETATM   23  C   UNL     1      41.286 -13.153   0.840  1.00  0.00     0.034 A 
HETATM   24  C   UNL     1      40.575 -13.530  -0.304  1.00  0.00     0.039 A 
HETATM   25  C   UNL     1      39.851 -14.720  -0.329  1.00  0.00     0.068 A 
HETATM   26  C   UNL     1      39.884 -15.553   0.787  1.00  0.00     0.039 A 
HETATM   27  C   UNL     1      40.601 -15.181   1.937  1.00  0.00     0.034 A 
BRANCH  25  28
HETATM   28  O   UNL     1      39.176 -14.962  -1.492  1.00  0.00    -0.356 OA
HETATM   29  C   UNL     1      39.582 -14.213  -2.632  1.00  0.00     0.210 C 
ENDBRANCH  25  28
ENDBRANCH   4  22
TORSDOF 6
ENDMDL
MODEL 3
REMARK VINA RESULT:      -7.8      3.730      8.568
REMARK  6 active torsions:
REMARK  status: ('A' for Active; 'I' for Inactive)
REMARK    1  A    between atoms: C_2  and  C_3 
REMARK    2  A    between atoms: C_3  and  C_4 
REMARK    3  A    between atoms: C_4  and  N_5 
REMARK       I    between atoms: N_5  and  C_6 
REMARK       I    between atoms: C_6  and  N_7 
REMARK    4  A    between atoms: N_7  and  C_8 
REMARK    5  A    between atoms: N_11  and  C_12 
REMARK    6  A    between atoms: C_15  and  O_16 
ROOT
HETATM    1  C   UNL     1      40.722 -13.715   2.123  1.00  0.00     0.123 C 
HETATM    2  C   UNL     1      41.348 -12.648   2.949  1.00  0.00     0.009 A 
HETATM    3  C   UNL     1      41.903 -12.855   4.201  1.00  0.00     0.047 A 
HETATM    4  N   UNL     1      42.496 -11.655   4.584  1.00  0.00    -0.238 N 
HETATM    5  N   UNL     1      42.298 -10.705   3.622  1.00  0.00    -0.179 NA
HETATM    6  C   UNL     1      41.628 -11.313   2.648  1.00  0.00     0.150 A 
HETATM    7  C   UNL     1      41.894 -14.166   4.920  1.00  0.00     0.069 C 
HETATM    8  C   UNL     1      41.461 -15.348   3.993  1.00  0.00    -0.040 C 
HETATM    9  C   UNL     1      40.935 -16.498   4.873  1.00  0.00     0.015 C 
HETATM   10  C   UNL     1      42.680 -15.871   3.206  1.00  0.00     0.015 C 
HETATM   11  C   UNL     1      40.331 -14.916   3.013  1.00  0.00     0.039 C 
ENDROOT
BRANCH   1  12
HETATM   12  N   UNL     1      39.565 -13.184   1.436  1.00  0.00    -0.334 N 
HETATM   13  C   UNL     1      39.585 -13.066   0.070  1.00  0.00     0.316 C 
HETATM   14  N   UNL     1      38.364 -12.677  -0.422  1.00  0.00    -0.343 N 
HETATM   15  O   UNL     1      40.575 -13.274  -0.618  1.00  0.00    -0.247 OA
HETATM   16  H   UNL     1      37.817 -12.135   0.229  1.00  0.00     0.164 HD
HETATM   17  H   UNL     1      38.665 -13.334   1.863  1.00  0.00     0.165 HD
BRANCH  14  18
HETATM   18  C   UNL     1      38.207 -12.329  -1.822  1.00  0.00     0.124 C 
BRANCH  18  19
HETATM   19  C   UNL     1      37.407 -13.336  -2.651  1.00  0.00     0.019 C 
BRANCH  19  20
HETATM   20  C   UNL     1      38.293 -14.297  -3.445  1.00  0.00    -0.003 C 
HETATM   21  C   UNL     1      38.676 -15.508  -2.607  1.00  0.00     0.005 C 
ENDBRANCH  19  20
ENDBRANCH  18  19
ENDBRANCH  14  18
ENDBRANCH   1  12
BRANCH   4  22
HETATM   22  C   UNL     1      43.274 -11.311   5.737  1.00  0.00     0.058 A 
HETATM   23  C   UNL     1      44.644 -11.626   5.741  1.00  0.00     0.034 A 
HETATM   24  C   UNL     1      45.433 -11.380   6.869  1.00  0.00     0.039 A 
HETATM   25  C   UNL     1      44.877 -10.813   8.014  1.00  0.00     0.068 A 
HETATM   26  C   UNL     1      43.531 -10.452   8.002  1.00  0.00     0.039 A 
HETATM   27  C   UNL     1      42.735 -10.693   6.869  1.00  0.00     0.034 A 
BRANCH  25  28
HETATM   28  O   UNL     1      45.743 -10.650   9.057  1.00  0.00    -0.356 OA
HETATM   29  C   UNL     1      45.249  -9.946  10.191  1.00  0.00     0.210 C 
ENDBRANCH  25  28
ENDBRANCH   4  22
TORSDOF 6
ENDMDL
MODEL 4
REMARK VINA RESULT:      -7.7      2.010      8.537
REMARK  6 active torsions:
REMARK  status: ('A' for Active; 'I' for Inactive)
REMARK    1  A    between atoms: C_2  and  C_3 
REMARK    2  A    between atoms: C_3  and  C_4 
REMARK    3  A    between atoms: C_4  and  N_5 
REMARK       I    between atoms: N_5  and  C_6 
REMARK       I    between atoms: C_6  and  N_7 
REMARK    4  A    between atoms: N_7  and  C_8 
REMARK    5  A    between atoms: N_11  and  C_12 
REMARK    6  A    between atoms: C_15  and  O_16 
ROOT
HETATM    1  C   UNL     1      42.474 -14.385   4.040  1.00  0.00     0.123 C 
HETATM    2  C   UNL     1      43.092 -13.686   5.199  1.00  0.00     0.009 A 
HETATM    3  C   UNL     1      43.195 -12.310   5.316  1.00  0.00     0.047 A 
HETATM    4  N   UNL     1      43.705 -12.047   6.584  1.00  0.00    -0.238 N 
HETATM    5  N   UNL     1      43.951 -13.220   7.242  1.00  0.00    -0.179 NA
HETATM    6  C   UNL     1      43.567 -14.186   6.414  1.00  0.00     0.150 A 
HETATM    7  C   UNL     1      42.754 -11.340   4.265  1.00  0.00     0.069 C 
HETATM    8  C   UNL     1      41.895 -12.022   3.152  1.00  0.00    -0.040 C 
HETATM    9  C   UNL     1      41.962 -11.157   1.878  1.00  0.00     0.015 C 
HETATM   10  C   UNL     1      40.420 -12.096   3.598  1.00  0.00     0.015 C 
HETATM   11  C   UNL     1      42.428 -13.445   2.814  1.00  0.00     0.039 C 
ENDROOT
BRANCH   1  12
HETATM   12  N   UNL     1      43.222 -15.587   3.740  1.00  0.00    -0.334 N 
HETATM   13  C   UNL     1      42.589 -16.645   3.140  1.00  0.00     0.316 C 
HETATM   14  N   UNL     1      43.474 -17.639   2.807  1.00  0.00    -0.343 N 
HETATM   15  O   UNL     1      41.384 -16.692   2.937  1.00  0.00    -0.247 OA
HETATM   16  H   UNL     1      44.291 -17.673   3.398  1.00  0.00     0.164 HD
HETATM   17  H   UNL     1      44.207 -15.483   3.553  1.00  0.00     0.165 HD
BRANCH  14  18
HETATM   18  C   UNL     1      42.998 -18.920   2.315  1.00  0.00     0.124 C 
BRANCH  18  19
HETATM   19  C   UNL     1      43.990 -20.075   2.459  1.00  0.00     0.019 C 
BRANCH  19  20
HETATM   20  C   UNL     1      43.708 -20.960   3.674  1.00  0.00    -0.003 C 
HETATM   21  C   UNL     1      44.354 -20.391   4.929  1.00  0.00     0.005 C 
ENDBRANCH  19  20
ENDBRANCH  18  19
ENDBRANCH  14  18
ENDBRANCH   1  12
BRANCH   4  22
HETATM   22  C   UNL     1      43.945 -10.814   7.269  1.00  0.00     0.058 A 
HETATM   23  C   UNL     1      42.855  -9.965   7.526  1.00  0.00     0.034 A 
HETATM   24  C   UNL     1      43.044  -8.716   8.126  1.00  0.00     0.039 A 
HETATM   25  C   UNL     1      44.320  -8.287   8.484  1.00  0.00     0.068 A 
HETATM   26  C   UNL     1      45.401  -9.141   8.279  1.00  0.00     0.039 A 
HETATM   27  C   UNL     1      45.216 -10.400   7.681  1.00  0.00     0.034 A 
BRANCH  25  28
HETATM   28  O   UNL     1      44.377  -7.037   9.034  1.00  0.00    -0.356 OA
HETATM   29  C   UNL     1      43.138  -6.456   9.425  1.00  0.00     0.210 C 
ENDBRANCH  25  28
ENDBRANCH   4  22
TORSDOF 6
ENDMDL
MODEL 5
REMARK VINA RESULT:      -7.3      3.769      6.877
REMARK  6 active torsions:
REMARK  status: ('A' for Active; 'I' for Inactive)
REMARK    1  A    between atoms: C_2  and  C_3 
REMARK    2  A    between atoms: C_3  and  C_4 
REMARK    3  A    between atoms: C_4  and  N_5 
REMARK       I    between atoms: N_5  and  C_6 
REMARK       I    between atoms: C_6  and  N_7 
REMARK    4  A    between atoms: N_7  and  C_8 
REMARK    5  A    between atoms: N_11  and  C_12 
REMARK    6  A    between atoms: C_15  and  O_16 
ROOT
HETATM    1  C   UNL     1      40.733 -12.360   2.073  1.00  0.00     0.123 C 
HETATM    2  C   UNL     1      41.095 -13.803   2.083  1.00  0.00     0.009 A 
HETATM    3  C   UNL     1      42.077 -14.356   2.887  1.00  0.00     0.047 A 
HETATM    4  N   UNL     1      42.024 -15.735   2.704  1.00  0.00    -0.238 N 
HETATM    5  N   UNL     1      41.061 -16.049   1.786  1.00  0.00    -0.179 NA
HETATM    6  C   UNL     1      40.505 -14.893   1.437  1.00  0.00     0.150 A 
HETATM    7  C   UNL     1      42.950 -13.568   3.812  1.00  0.00     0.069 C 
HETATM    8  C   UNL     1      42.442 -12.102   4.001  1.00  0.00    -0.040 C 
HETATM    9  C   UNL     1      43.625 -11.226   4.461  1.00  0.00     0.015 C 
HETATM   10  C   UNL     1      41.362 -12.057   5.100  1.00  0.00     0.015 C 
HETATM   11  C   UNL     1      41.883 -11.519   2.670  1.00  0.00     0.039 C 
ENDROOT
BRANCH   1  12
HETATM   12  N   UNL     1      40.435 -11.941   0.720  1.00  0.00    -0.334 N 
HETATM   13  C   UNL     1      39.132 -11.733   0.348  1.00  0.00     0.316 C 
HETATM   14  N   UNL     1      39.046 -11.211  -0.918  1.00  0.00    -0.343 N 
HETATM   15  O   UNL     1      38.171 -11.992   1.059  1.00  0.00    -0.247 OA
HETATM   16  H   UNL     1      39.819 -11.462  -1.516  1.00  0.00     0.164 HD
HETATM   17  H   UNL     1      41.135 -11.396   0.241  1.00  0.00     0.165 HD
BRANCH  14  18
HETATM   18  C   UNL     1      37.759 -11.071  -1.575  1.00  0.00     0.124 C 
BRANCH  18  19
HETATM   19  C   UNL     1      37.426 -12.171  -2.584  1.00  0.00     0.019 C 
BRANCH  19  20
HETATM   20  C   UNL     1      38.642 -13.009  -2.979  1.00  0.00    -0.003 C 
HETATM   21  C   UNL     1      38.315 -14.495  -2.961  1.00  0.00     0.005 C 
ENDBRANCH  19  20
ENDBRANCH  18  19
ENDBRANCH  14  18
ENDBRANCH   1  12
BRANCH   4  22
HETATM   22  C   UNL     1      42.746 -16.800   3.330  1.00  0.00     0.058 A 
HETATM   23  C   UNL     1      43.301 -17.804   2.518  1.00  0.00     0.034 A 
HETATM   24  C   UNL     1      43.952 -18.905   3.082  1.00  0.00     0.039 A 
HETATM   25  C   UNL     1      44.067 -19.029   4.465  1.00  0.00     0.068 A 
HETATM   26  C   UNL     1      43.563 -18.015   5.278  1.00  0.00     0.039 A 
HETATM   27  C   UNL     1      42.913 -16.904   4.714  1.00  0.00     0.034 A 
BRANCH  25  28
HETATM   28  O   UNL     1      44.697 -20.163   4.894  1.00  0.00    -0.356 OA
HETATM   29  C   UNL     1      43.863 -21.250   5.277  1.00  0.00     0.210 C 
ENDBRANCH  25  28
ENDBRANCH   4  22
TORSDOF 6
ENDMDL
MODEL 6
REMARK VINA RESULT:      -6.9      5.551      8.359
REMARK  6 active torsions:
REMARK  status: ('A' for Active; 'I' for Inactive)
REMARK    1  A    between atoms: C_2  and  C_3 
REMARK    2  A    between atoms: C_3  and  C_4 
REMARK    3  A    between atoms: C_4  and  N_5 
REMARK       I    between atoms: N_5  and  C_6 
REMARK       I    between atoms: C_6  and  N_7 
REMARK    4  A    between atoms: N_7  and  C_8 
REMARK    5  A    between atoms: N_11  and  C_12 
REMARK    6  A    between atoms: C_15  and  O_16 
ROOT
HETATM    1  C   UNL     1      38.642 -11.878  -0.879  1.00  0.00     0.123 C 
HETATM    2  C   UNL     1      39.344 -12.436   0.309  1.00  0.00     0.009 A 
HETATM    3  C   UNL     1      39.859 -13.719   0.379  1.00  0.00     0.047 A 
HETATM    4  N   UNL     1      40.546 -13.815   1.586  1.00  0.00    -0.238 N 
HETATM    5  N   UNL     1      40.445 -12.641   2.278  1.00  0.00    -0.179 NA
HETATM    6  C   UNL     1      39.742 -11.824   1.500  1.00  0.00     0.150 A 
HETATM    7  C   UNL     1      39.726 -14.740  -0.706  1.00  0.00     0.069 C 
HETATM    8  C   UNL     1      39.210 -14.120  -2.044  1.00  0.00    -0.040 C 
HETATM    9  C   UNL     1      38.573 -15.238  -2.893  1.00  0.00     0.015 C 
HETATM   10  C   UNL     1      40.392 -13.532  -2.842  1.00  0.00     0.015 C 
HETATM   11  C   UNL     1      38.136 -13.022  -1.784  1.00  0.00     0.039 C 
ENDROOT
BRANCH   1  12
HETATM   12  N   UNL     1      37.546 -11.038  -0.446  1.00  0.00    -0.334 N 
HETATM   13  C   UNL     1      37.132 -10.003  -1.245  1.00  0.00     0.316 C 
HETATM   14  N   UNL     1      36.002  -9.404  -0.749  1.00  0.00    -0.343 N 
HETATM   15  O   UNL     1      37.708  -9.658  -2.267  1.00  0.00    -0.247 OA
HETATM   16  H   UNL     1      35.908  -9.476   0.253  1.00  0.00     0.164 HD
HETATM   17  H   UNL     1      36.848 -11.459   0.147  1.00  0.00     0.165 HD
BRANCH  14  18
HETATM   18  C   UNL     1      35.490  -8.182  -1.344  1.00  0.00     0.124 C 
BRANCH  18  19
HETATM   19  C   UNL     1      34.484  -8.390  -2.478  1.00  0.00     0.019 C 
BRANCH  19  20
HETATM   20  C   UNL     1      33.553  -9.580  -2.243  1.00  0.00    -0.003 C 
HETATM   21  C   UNL     1      32.182  -9.119  -1.770  1.00  0.00     0.005 C 
ENDBRANCH  19  20
ENDBRANCH  18  19
ENDBRANCH  14  18
ENDBRANCH   1  12
BRANCH   4  22
HETATM   22  C   UNL     1      41.332 -14.874   2.145  1.00  0.00     0.058 A 
HETATM   23  C   UNL     1      42.506 -15.263   1.477  1.00  0.00     0.034 A 
HETATM   24  C   UNL     1      43.270 -16.339   1.939  1.00  0.00     0.039 A 
HETATM   25  C   UNL     1      42.883 -17.049   3.074  1.00  0.00     0.068 A 
HETATM   26  C   UNL     1      41.748 -16.640   3.770  1.00  0.00     0.039 A 
HETATM   27  C   UNL     1      40.979 -15.556   3.313  1.00  0.00     0.034 A 
BRANCH  25  28
HETATM   28  O   UNL     1      43.695 -18.096   3.406  1.00  0.00    -0.356 OA
HETATM   29  C   UNL     1      43.632 -19.243   2.567  1.00  0.00     0.210 C 
ENDBRANCH  25  28
ENDBRANCH   4  22
TORSDOF 6
ENDMDL
MODEL 7
REMARK VINA RESULT:      -6.9     16.390     18.879
REMARK  6 active torsions:
REMARK  status: ('A' for Active; 'I' for Inactive)
REMARK    1  A    between atoms: C_2  and  C_3 
REMARK    2  A    between atoms: C_3  and  C_4 
REMARK    3  A    between atoms: C_4  and  N_5 
REMARK       I    between atoms: N_5  and  C_6 
REMARK       I    between atoms: C_6  and  N_7 
REMARK    4  A    between atoms: N_7  and  C_8 
REMARK    5  A    between atoms: N_11  and  C_12 
REMARK    6  A    between atoms: C_15  and  O_16 
ROOT
HETATM    1  C   UNL     1      50.079 -31.407   4.049  1.00  0.00     0.123 C 
HETATM    2  C   UNL     1      49.365 -30.304   3.349  1.00  0.00     0.009 A 
HETATM    3  C   UNL     1      48.874 -30.389   2.058  1.00  0.00     0.047 A 
HETATM    4  N   UNL     1      48.165 -29.216   1.816  1.00  0.00    -0.238 N 
HETATM    5  N   UNL     1      48.230 -28.395   2.907  1.00  0.00    -0.179 NA
HETATM    6  C   UNL     1      48.932 -29.061   3.817  1.00  0.00     0.150 A 
HETATM    7  C   UNL     1      49.048 -31.578   1.167  1.00  0.00     0.069 C 
HETATM    8  C   UNL     1      49.579 -32.827   1.942  1.00  0.00    -0.040 C 
HETATM    9  C   UNL     1      50.254 -33.781   0.936  1.00  0.00     0.015 C 
HETATM   10  C   UNL     1      48.402 -33.580   2.594  1.00  0.00     0.015 C 
HETATM   11  C   UNL     1      50.626 -32.423   3.022  1.00  0.00     0.039 C 
ENDROOT
BRANCH   1  12
HETATM   12  N   UNL     1      51.151 -30.860   4.854  1.00  0.00    -0.334 N 
HETATM   13  C   UNL     1      51.624 -31.574   5.924  1.00  0.00     0.316 C 
HETATM   14  N   UNL     1      52.722 -30.974   6.486  1.00  0.00    -0.343 N 
HETATM   15  O   UNL     1      51.119 -32.612   6.328  1.00  0.00    -0.247 OA
HETATM   16  H   UNL     1      52.748 -29.972   6.361  1.00  0.00     0.164 HD
HETATM   17  H   UNL     1      51.804 -30.245   4.396  1.00  0.00     0.165 HD
BRANCH  14  18
HETATM   18  C   UNL     1      53.281 -31.468   7.731  1.00  0.00     0.124 C 
BRANCH  18  19
HETATM   19  C   UNL     1      54.363 -30.581   8.350  1.00  0.00     0.019 C 
BRANCH  19  20
HETATM   20  C   UNL     1      54.270 -30.497   9.874  1.00  0.00    -0.003 C 
HETATM   21  C   UNL     1      53.655 -31.760  10.456  1.00  0.00     0.005 C 
ENDBRANCH  19  20
ENDBRANCH  18  19
ENDBRANCH  14  18
ENDBRANCH   1  12
BRANCH   4  22
HETATM   22  C   UNL     1      47.389 -28.796   0.688  1.00  0.00     0.058 A 
HETATM   23  C   UNL     1      45.997 -28.983   0.723  1.00  0.00     0.034 A 
HETATM   24  C   UNL     1      45.201 -28.659  -0.380  1.00  0.00     0.039 A 
HETATM   25  C   UNL     1      45.774 -28.140  -1.540  1.00  0.00     0.068 A 
HETATM   26  C   UNL     1      47.147 -27.905  -1.567  1.00  0.00     0.039 A 
HETATM   27  C   UNL     1      47.950 -28.224  -0.459  1.00  0.00     0.034 A 
BRANCH  25  28
HETATM   28  O   UNL     1      44.896 -27.892  -2.557  1.00  0.00    -0.356 OA
HETATM   29  C   UNL     1      45.202 -28.476  -3.819  1.00  0.00     0.210 C 
ENDBRANCH  25  28
ENDBRANCH   4  22
TORSDOF 6
ENDMDL
MODEL 8
REMARK VINA RESULT:      -6.8      3.695      6.141
REMARK  6 active torsions:
REMARK  status: ('A' for Active; 'I' for Inactive)
REMARK    1  A    between atoms: C_2  and  C_3 
REMARK    2  A    between atoms: C_3  and  C_4 
REMARK    3  A    between atoms: C_4  and  N_5 
REMARK       I    between atoms: N_5  and  C_6 
REMARK       I    between atoms: C_6  and  N_7 
REMARK    4  A    between atoms: N_7  and  C_8 
REMARK    5  A    between atoms: N_11  and  C_12 
REMARK    6  A    between atoms: C_15  and  O_16 
ROOT
HETATM    1  C   UNL     1      41.689 -11.398   2.570  1.00  0.00     0.123 C 
HETATM    2  C   UNL     1      42.040 -12.823   2.323  1.00  0.00     0.009 A 
HETATM    3  C   UNL     1      42.698 -13.633   3.232  1.00  0.00     0.047 A 
HETATM    4  N   UNL     1      42.722 -14.915   2.690  1.00  0.00    -0.238 N 
HETATM    5  N   UNL     1      42.126 -14.915   1.459  1.00  0.00    -0.179 NA
HETATM    6  C   UNL     1      41.710 -13.669   1.261  1.00  0.00     0.150 A 
HETATM    7  C   UNL     1      43.203 -13.170   4.561  1.00  0.00     0.069 C 
HETATM    8  C   UNL     1      42.649 -11.761   4.947  1.00  0.00    -0.040 C 
HETATM    9  C   UNL     1      43.600 -11.123   5.979  1.00  0.00     0.015 C 
HETATM   10  C   UNL     1      41.261 -11.903   5.605  1.00  0.00     0.015 C 
HETATM   11  C   UNL     1      42.564 -10.825   3.706  1.00  0.00     0.039 C 
ENDROOT
BRANCH   1  12
HETATM   12  N   UNL     1      41.861 -10.636   1.351  1.00  0.00    -0.334 N 
HETATM   13  C   UNL     1      40.970  -9.639   1.047  1.00  0.00     0.316 C 
HETATM   14  N   UNL     1      41.360  -8.935  -0.064  1.00  0.00    -0.343 N 
HETATM   15  O   UNL     1      39.951  -9.416   1.687  1.00  0.00    -0.247 OA
HETATM   16  H   UNL     1      41.921  -9.471  -0.710  1.00  0.00     0.164 HD
HETATM   17  H   UNL     1      42.800 -10.524   1.005  1.00  0.00     0.165 HD
BRANCH  14  18
HETATM   18  C   UNL     1      40.481  -7.946  -0.661  1.00  0.00     0.124 C 
BRANCH  18  19
HETATM   19  C   UNL     1      40.939  -7.412  -2.020  1.00  0.00     0.019 C 
BRANCH  19  20
HETATM   20  C   UNL     1      42.347  -7.870  -2.400  1.00  0.00    -0.003 C 
HETATM   21  C   UNL     1      42.776  -7.276  -3.733  1.00  0.00     0.005 C 
ENDBRANCH  19  20
ENDBRANCH  18  19
ENDBRANCH  14  18
ENDBRANCH   1  12
BRANCH   4  22
HETATM   22  C   UNL     1      43.200 -16.157   3.219  1.00  0.00     0.058 A 
HETATM   23  C   UNL     1      43.245 -17.276   2.370  1.00  0.00     0.034 A 
HETATM   24  C   UNL     1      43.633 -18.529   2.854  1.00  0.00     0.039 A 
HETATM   25  C   UNL     1      43.988 -18.693   4.192  1.00  0.00     0.068 A 
HETATM   26  C   UNL     1      43.995 -17.580   5.030  1.00  0.00     0.039 A 
HETATM   27  C   UNL     1      43.610 -16.318   4.546  1.00  0.00     0.034 A 
BRANCH  25  28
HETATM   28  O   UNL     1      44.320 -19.970   4.549  1.00  0.00    -0.356 OA
HETATM   29  C   UNL     1      43.891 -21.008   3.676  1.00  0.00     0.210 C 
ENDBRANCH  25  28
ENDBRANCH   4  22
TORSDOF 6
ENDMDL
MODEL 9
REMARK VINA RESULT:      -6.7     16.258     18.136
REMARK  6 active torsions:
REMARK  status: ('A' for Active; 'I' for Inactive)
REMARK    1  A    between atoms: C_2  and  C_3 
REMARK    2  A    between atoms: C_3  and  C_4 
REMARK    3  A    between atoms: C_4  and  N_5 
REMARK       I    between atoms: N_5  and  C_6 
REMARK       I    between atoms: C_6  and  N_7 
REMARK    4  A    between atoms: N_7  and  C_8 
REMARK    5  A    between atoms: N_11  and  C_12 
REMARK    6  A    between atoms: C_15  and  O_16 
ROOT
HETATM    1  C   UNL     1      45.950 -28.653   1.603  1.00  0.00     0.123 C 
HETATM    2  C   UNL     1      46.131 -28.749   0.129  1.00  0.00     0.009 A 
HETATM    3  C   UNL     1      45.422 -29.611  -0.690  1.00  0.00     0.047 A 
HETATM    4  N   UNL     1      45.779 -29.311  -2.001  1.00  0.00    -0.238 N 
HETATM    5  N   UNL     1      46.711 -28.311  -2.016  1.00  0.00    -0.179 NA
HETATM    6  C   UNL     1      46.899 -27.975  -0.744  1.00  0.00     0.150 A 
HETATM    7  C   UNL     1      44.421 -30.607  -0.197  1.00  0.00     0.069 C 
HETATM    8  C   UNL     1      44.038 -30.372   1.300  1.00  0.00    -0.040 C 
HETATM    9  C   UNL     1      43.491 -31.691   1.882  1.00  0.00     0.015 C 
HETATM   10  C   UNL     1      42.921 -29.312   1.396  1.00  0.00     0.015 C 
HETATM   11  C   UNL     1      45.272 -29.933   2.140  1.00  0.00     0.039 C 
ENDROOT
BRANCH   1  12
HETATM   12  N   UNL     1      47.233 -28.443   2.239  1.00  0.00    -0.334 N 
HETATM   13  C   UNL     1      48.143 -29.468   2.281  1.00  0.00     0.316 C 
HETATM   14  N   UNL     1      49.346 -29.054   2.793  1.00  0.00    -0.343 N 
HETATM   15  O   UNL     1      47.901 -30.609   1.913  1.00  0.00    -0.247 OA
HETATM   16  H   UNL     1      49.272 -28.278   3.434  1.00  0.00     0.164 HD
HETATM   17  H   UNL     1      47.607 -27.507   2.226  1.00  0.00     0.165 HD
BRANCH  14  18
HETATM   18  C   UNL     1      50.397 -30.013   3.084  1.00  0.00     0.124 C 
BRANCH  18  19
HETATM   19  C   UNL     1      50.587 -30.330   4.568  1.00  0.00     0.019 C 
BRANCH  19  20
HETATM   20  C   UNL     1      51.354 -31.631   4.809  1.00  0.00    -0.003 C 
HETATM   21  C   UNL     1      52.120 -31.581   6.123  1.00  0.00     0.005 C 
ENDBRANCH  19  20
ENDBRANCH  18  19
ENDBRANCH  14  18
ENDBRANCH   1  12
BRANCH   4  22
HETATM   22  C   UNL     1      45.306 -29.825  -3.251  1.00  0.00     0.058 A 
HETATM   23  C   UNL     1      44.005 -29.493  -3.665  1.00  0.00     0.034 A 
HETATM   24  C   UNL     1      43.468 -30.029  -4.840  1.00  0.00     0.039 A 
HETATM   25  C   UNL     1      44.214 -30.903  -5.628  1.00  0.00     0.068 A 
HETATM   26  C   UNL     1      45.523 -31.199  -5.251  1.00  0.00     0.039 A 
HETATM   27  C   UNL     1      46.069 -30.660  -4.074  1.00  0.00     0.034 A 
BRANCH  25  28
HETATM   28  O   UNL     1      43.569 -31.380  -6.733  1.00  0.00    -0.356 OA
HETATM   29  C   UNL     1      44.339 -31.483  -7.925  1.00  0.00     0.210 C 
ENDBRANCH  25  28
ENDBRANCH   4  22
TORSDOF 6
ENDMDL
MODEL 10
REMARK VINA RESULT:      -6.7      3.676      5.821
REMARK  6 active torsions:
REMARK  status: ('A' for Active; 'I' for Inactive)
REMARK    1  A    between atoms: C_2  and  C_3 
REMARK    2  A    between atoms: C_3  and  C_4 
REMARK    3  A    between atoms: C_4  and  N_5 
REMARK       I    between atoms: N_5  and  C_6 
REMARK       I    between atoms: C_6  and  N_7 
REMARK    4  A    between atoms: N_7  and  C_8 
REMARK    5  A    between atoms: N_11  and  C_12 
REMARK    6  A    between atoms: C_15  and  O_16 
ROOT
HETATM    1  C   UNL     1      42.585 -13.622   4.480  1.00  0.00     0.123 C 
HETATM    2  C   UNL     1      41.845 -12.999   3.349  1.00  0.00     0.009 A 
HETATM    3  C   UNL     1      41.270 -13.707   2.308  1.00  0.00     0.047 A 
HETATM    4  N   UNL     1      40.566 -12.790   1.533  1.00  0.00    -0.238 N 
HETATM    5  N   UNL     1      40.714 -11.531   2.046  1.00  0.00    -0.179 NA
HETATM    6  C   UNL     1      41.463 -11.672   3.135  1.00  0.00     0.150 A 
HETATM    7  C   UNL     1      41.367 -15.191   2.144  1.00  0.00     0.069 C 
HETATM    8  C   UNL     1      41.927 -15.893   3.423  1.00  0.00    -0.040 C 
HETATM    9  C   UNL     1      42.520 -17.257   3.017  1.00  0.00     0.015 C 
HETATM   10  C   UNL     1      40.782 -16.152   4.424  1.00  0.00     0.015 C 
HETATM   11  C   UNL     1      43.047 -15.044   4.093  1.00  0.00     0.039 C 
ENDROOT
BRANCH   1  12
HETATM   12  N   UNL     1      43.714 -12.792   4.840  1.00  0.00    -0.334 N 
HETATM   13  C   UNL     1      43.609 -11.932   5.903  1.00  0.00     0.316 C 
HETATM   14  N   UNL     1      44.809 -11.330   6.185  1.00  0.00    -0.343 N 
HETATM   15  O   UNL     1      42.569 -11.726   6.513  1.00  0.00    -0.247 OA
HETATM   16  H   UNL     1      45.419 -11.241   5.386  1.00  0.00     0.164 HD
HETATM   17  H   UNL     1      44.634 -13.151   4.638  1.00  0.00     0.165 HD
BRANCH  14  18
HETATM   18  C   UNL     1      44.888 -10.259   7.161  1.00  0.00     0.124 C 
BRANCH  18  19
HETATM   19  C   UNL     1      44.925 -10.717   8.620  1.00  0.00     0.019 C 
BRANCH  19  20
HETATM   20  C   UNL     1      43.975  -9.927   9.521  1.00  0.00    -0.003 C 
HETATM   21  C   UNL     1      44.558  -9.755  10.916  1.00  0.00     0.005 C 
ENDBRANCH  19  20
ENDBRANCH  18  19
ENDBRANCH  14  18
ENDBRANCH   1  12
BRANCH   4  22
HETATM   22  C   UNL     1      39.726 -12.968   0.387  1.00  0.00     0.058 A 
HETATM   23  C   UNL     1      40.024 -14.009  -0.508  1.00  0.00     0.034 A 
HETATM   24  C   UNL     1      39.282 -14.181  -1.681  1.00  0.00     0.039 A 
HETATM   25  C   UNL     1      38.227 -13.323  -1.985  1.00  0.00     0.068 A 
HETATM   26  C   UNL     1      37.893 -12.318  -1.080  1.00  0.00     0.039 A 
HETATM   27  C   UNL     1      38.632 -12.145   0.102  1.00  0.00     0.034 A 
BRANCH  25  28
HETATM   28  O   UNL     1      37.599 -13.577  -3.172  1.00  0.00    -0.356 OA
HETATM   29  C   UNL     1      38.014 -14.742  -3.876  1.00  0.00     0.210 C 
ENDBRANCH  25  28
ENDBRANCH   4  22
TORSDOF 6
ENDMDL
