MODEL 1
REMARK VINA RESULT:      -9.6      0.000      0.000
REMARK  9 active torsions:
REMARK  status: ('A' for Active; 'I' for Inactive)
REMARK    1  A    between atoms: C_2  and  C_3 
REMARK    2  A    between atoms: C_3  and  O_4 
REMARK    3  A    between atoms: O_4  and  C_5 
REMARK    4  A    between atoms: C_8  and  C_9 
REMARK       I    between atoms: C_9  and  N_10 
REMARK    5  A    between atoms: N_10  and  C_11 
REMARK    6  A    between atoms: C_11  and  N_12 
REMARK    7  A    between atoms: N_12  and  C_13 
REMARK    8  A    between atoms: C_15  and  C_16 
REMARK    9  A    between atoms: C_27  and  O_28 
ROOT
HETATM    1  C   UNL     1      43.725 -11.785   7.038  1.00  0.00     0.035 A 
HETATM    2  C   UNL     1      43.929 -13.066   6.512  1.00  0.00     0.048 A 
HETATM    3  C   UNL     1      43.055 -13.600   5.543  1.00  0.00     0.052 A 
HETATM    4  C   UNL     1      41.970 -12.817   5.117  1.00  0.00     0.080 A 
HETATM    5  C   UNL     1      41.759 -11.544   5.632  1.00  0.00     0.040 A 
HETATM    6  C   UNL     1      42.629 -11.035   6.594  1.00  0.00     0.032 A 
ENDROOT
BRANCH   1   7
HETATM    7  N   UNL     1      44.496 -11.212   8.070  1.00  0.00    -0.333 N 
HETATM    8  H   UNL     1      45.476 -11.482   8.076  1.00  0.00     0.168 HD
BRANCH   7   9
HETATM    9  C   UNL     1      44.240 -10.185   8.937  1.00  0.00     0.179 C 
HETATM   10  S   UNL     1      45.073  -8.756   8.669  1.00  0.00    -0.040 SA
BRANCH   9  11
HETATM   11  N   UNL     1      43.411 -10.454  10.000  1.00  0.00    -0.299 N 
HETATM   12  C   UNL     1      42.385  -9.612  10.395  1.00  0.00     0.257 C 
HETATM   13  O   UNL     1      41.446  -9.335   9.652  1.00  0.00    -0.267 OA
HETATM   14  H   UNL     1      43.888 -10.979  10.714  1.00  0.00     0.171 HD
BRANCH  12  15
HETATM   15  C   UNL     1      42.371  -9.111  11.805  1.00  0.00     0.032 A 
HETATM   16  C   UNL     1      41.374  -9.623  12.651  1.00  0.00     0.020 A 
HETATM   17  C   UNL     1      41.239  -9.172  13.968  1.00  0.00     0.038 A 
HETATM   18  C   UNL     1      42.104  -8.203  14.465  1.00  0.00     0.068 A 
HETATM   19  C   UNL     1      43.105  -7.695  13.632  1.00  0.00     0.038 A 
HETATM   20  C   UNL     1      43.240  -8.137  12.307  1.00  0.00     0.020 A 
BRANCH  18  21
HETATM   21  O   UNL     1      42.074  -7.673  15.727  1.00  0.00    -0.351 OA
BRANCH  21  22
HETATM   22  C   UNL     1      41.509  -6.366  15.863  1.00  0.00     0.175 C 
BRANCH  22  23
HETATM   23  C   UNL     1      40.115  -6.506  16.466  1.00  0.00     0.022 C 
HETATM   24  C   UNL     1      40.152  -7.237  17.798  1.00  0.00     0.007 C 
ENDBRANCH  22  23
ENDBRANCH  21  22
ENDBRANCH  18  21
ENDBRANCH  12  15
ENDBRANCH   9  11
ENDBRANCH   7   9
ENDBRANCH   1   7
BRANCH   3  25
HETATM   25  C   UNL     1      43.237 -14.949   5.014  1.00  0.00     0.183 A 
HETATM   26  O   UNL     1      43.580 -15.940   5.897  1.00  0.00    -0.289 OA
HETATM   27  C   UNL     1      43.658 -17.058   5.119  1.00  0.00     0.107 A 
HETATM   28  C   UNL     1      43.370 -16.692   3.818  1.00  0.00     0.094 A 
HETATM   29  C   UNL     1      43.961 -18.350   5.527  1.00  0.00     0.047 A 
HETATM   30  N   UNL     1      43.118 -15.344   3.756  1.00  0.00    -0.221 NA
HETATM   31  C   UNL     1      43.370 -17.674   2.821  1.00  0.00     0.041 A 
HETATM   32  C   UNL     1      43.673 -19.008   3.177  1.00  0.00    -0.054 A 
HETATM   33  C   UNL     1      43.957 -19.342   4.525  1.00  0.00    -0.053 A 
HETATM   34  C   UNL     1      43.630 -20.060   2.100  1.00  0.00     0.049 C 
HETATM   35  C   UNL     1      44.274 -20.761   4.922  1.00  0.00     0.049 C 
ENDBRANCH   3  25
BRANCH   4  36
HETATM   36  O   UNL     1      41.052 -13.249   4.195  1.00  0.00    -0.360 OA
HETATM   37  H   UNL     1      41.335 -12.950   3.304  1.00  0.00     0.217 HD
ENDBRANCH   4  36
TORSDOF 9
ENDMDL
MODEL 2
REMARK VINA RESULT:      -9.6      1.303      1.555
REMARK  9 active torsions:
REMARK  status: ('A' for Active; 'I' for Inactive)
REMARK    1  A    between atoms: C_2  and  C_3 
REMARK    2  A    between atoms: C_3  and  O_4 
REMARK    3  A    between atoms: O_4  and  C_5 
REMARK    4  A    between atoms: C_8  and  C_9 
REMARK       I    between atoms: C_9  and  N_10 
REMARK    5  A    between atoms: N_10  and  C_11 
REMARK    6  A    between atoms: C_11  and  N_12 
REMARK    7  A    between atoms: N_12  and  C_13 
REMARK    8  A    between atoms: C_15  and  C_16 
REMARK    9  A    between atoms: C_27  and  O_28 
ROOT
HETATM    1  C   UNL     1      43.385 -11.977   6.985  1.00  0.00     0.035 A 
HETATM    2  C   UNL     1      43.611 -13.273   6.507  1.00  0.00     0.048 A 
HETATM    3  C   UNL     1      43.023 -13.715   5.305  1.00  0.00     0.052 A 
HETATM    4  C   UNL     1      42.201 -12.826   4.595  1.00  0.00     0.080 A 
HETATM    5  C   UNL     1      41.969 -11.537   5.060  1.00  0.00     0.040 A 
HETATM    6  C   UNL     1      42.553 -11.118   6.254  1.00  0.00     0.032 A 
ENDROOT
BRANCH   1   7
HETATM    7  N   UNL     1      43.860 -11.485   8.217  1.00  0.00    -0.333 N 
HETATM    8  H   UNL     1      43.460 -11.928   9.041  1.00  0.00     0.168 HD
BRANCH   7   9
HETATM    9  C   UNL     1      44.921 -10.680   8.531  1.00  0.00     0.179 C 
HETATM   10  S   UNL     1      46.195 -10.666   7.442  1.00  0.00    -0.040 SA
BRANCH   9  11
HETATM   11  N   UNL     1      44.887 -10.045   9.749  1.00  0.00    -0.299 N 
HETATM   12  C   UNL     1      44.036 -10.418  10.777  1.00  0.00     0.257 C 
HETATM   13  O   UNL     1      44.084 -11.534  11.289  1.00  0.00    -0.267 OA
HETATM   14  H   UNL     1      45.116  -9.069   9.661  1.00  0.00     0.171 HD
BRANCH  12  15
HETATM   15  C   UNL     1      43.107  -9.393  11.346  1.00  0.00     0.032 A 
HETATM   16  C   UNL     1      43.645  -8.499  12.286  1.00  0.00     0.020 A 
HETATM   17  C   UNL     1      42.844  -7.545  12.921  1.00  0.00     0.038 A 
HETATM   18  C   UNL     1      41.487  -7.464  12.623  1.00  0.00     0.068 A 
HETATM   19  C   UNL     1      40.946  -8.344  11.681  1.00  0.00     0.038 A 
HETATM   20  C   UNL     1      41.743  -9.310  11.047  1.00  0.00     0.020 A 
BRANCH  18  21
HETATM   21  O   UNL     1      40.595  -6.586  13.177  1.00  0.00    -0.351 OA
BRANCH  21  22
HETATM   22  C   UNL     1      39.867  -7.043  14.319  1.00  0.00     0.175 C 
BRANCH  22  23
HETATM   23  C   UNL     1      40.592  -6.563  15.574  1.00  0.00     0.022 C 
HETATM   24  C   UNL     1      41.056  -7.727  16.432  1.00  0.00     0.007 C 
ENDBRANCH  22  23
ENDBRANCH  21  22
ENDBRANCH  18  21
ENDBRANCH  12  15
ENDBRANCH   9  11
ENDBRANCH   7   9
ENDBRANCH   1   7
BRANCH   3  25
HETATM   25  C   UNL     1      43.222 -15.077   4.815  1.00  0.00     0.183 A 
HETATM   26  O   UNL     1      43.528 -16.047   5.734  1.00  0.00    -0.289 OA
HETATM   27  C   UNL     1      43.634 -17.183   4.986  1.00  0.00     0.107 A 
HETATM   28  C   UNL     1      43.399 -16.847   3.666  1.00  0.00     0.094 A 
HETATM   29  C   UNL     1      43.918 -18.465   5.436  1.00  0.00     0.047 A 
HETATM   30  N   UNL     1      43.153 -15.501   3.562  1.00  0.00    -0.221 NA
HETATM   31  C   UNL     1      43.437 -17.853   2.693  1.00  0.00     0.041 A 
HETATM   32  C   UNL     1      43.722 -19.178   3.092  1.00  0.00    -0.054 A 
HETATM   33  C   UNL     1      43.952 -19.481   4.457  1.00  0.00    -0.053 A 
HETATM   34  C   UNL     1      43.720 -20.256   2.039  1.00  0.00     0.049 C 
HETATM   35  C   UNL     1      44.250 -20.891   4.900  1.00  0.00     0.049 C 
ENDBRANCH   3  25
BRANCH   4  36
HETATM   36  O   UNL     1      41.566 -13.162   3.427  1.00  0.00    -0.360 OA
HETATM   37  H   UNL     1      40.598 -13.187   3.591  1.00  0.00     0.217 HD
ENDBRANCH   4  36
TORSDOF 9
ENDMDL
MODEL 3
REMARK VINA RESULT:      -9.5      1.652      1.898
REMARK  9 active torsions:
REMARK  status: ('A' for Active; 'I' for Inactive)
REMARK    1  A    between atoms: C_2  and  C_3 
REMARK    2  A    between atoms: C_3  and  O_4 
REMARK    3  A    between atoms: O_4  and  C_5 
REMARK    4  A    between atoms: C_8  and  C_9 
REMARK       I    between atoms: C_9  and  N_10 
REMARK    5  A    between atoms: N_10  and  C_11 
REMARK    6  A    between atoms: C_11  and  N_12 
REMARK    7  A    between atoms: N_12  and  C_13 
REMARK    8  A    between atoms: C_15  and  C_16 
REMARK    9  A    between atoms: C_27  and  O_28 
ROOT
HETATM    1  C   UNL     1      43.343 -11.950   6.945  1.00  0.00     0.035 A 
HETATM    2  C   UNL     1      43.589 -13.240   6.463  1.00  0.00     0.048 A 
HETATM    3  C   UNL     1      42.922 -13.727   5.320  1.00  0.00     0.052 A 
HETATM    4  C   UNL     1      42.000 -12.887   4.675  1.00  0.00     0.080 A 
HETATM    5  C   UNL     1      41.748 -11.604   5.145  1.00  0.00     0.040 A 
HETATM    6  C   UNL     1      42.411 -11.142   6.280  1.00  0.00     0.032 A 
ENDROOT
BRANCH   1   7
HETATM    7  N   UNL     1      43.898 -11.418   8.126  1.00  0.00    -0.333 N 
HETATM    8  H   UNL     1      43.494 -11.773   8.989  1.00  0.00     0.168 HD
BRANCH   7   9
HETATM    9  C   UNL     1      45.029 -10.682   8.353  1.00  0.00     0.179 C 
HETATM   10  S   UNL     1      46.213 -10.749   7.169  1.00  0.00    -0.040 SA
BRANCH   9  11
HETATM   11  N   UNL     1      45.130 -10.047   9.568  1.00  0.00    -0.299 N 
HETATM   12  C   UNL     1      44.174 -10.157  10.564  1.00  0.00     0.257 C 
HETATM   13  O   UNL     1      43.893 -11.236  11.082  1.00  0.00    -0.267 OA
HETATM   14  H   UNL     1      45.624  -9.174   9.486  1.00  0.00     0.171 HD
BRANCH  12  15
HETATM   15  C   UNL     1      43.546  -8.908  11.096  1.00  0.00     0.032 A 
HETATM   16  C   UNL     1      43.234  -8.886  12.465  1.00  0.00     0.020 A 
HETATM   17  C   UNL     1      42.589  -7.789  13.045  1.00  0.00     0.038 A 
HETATM   18  C   UNL     1      42.247  -6.689  12.264  1.00  0.00     0.068 A 
HETATM   19  C   UNL     1      42.562  -6.699  10.902  1.00  0.00     0.038 A 
HETATM   20  C   UNL     1      43.202  -7.801  10.313  1.00  0.00     0.020 A 
BRANCH  18  21
HETATM   21  O   UNL     1      41.609  -5.561  12.705  1.00  0.00    -0.351 OA
BRANCH  21  22
HETATM   22  C   UNL     1      40.441  -5.753  13.506  1.00  0.00     0.175 C 
BRANCH  22  23
HETATM   23  C   UNL     1      39.272  -6.076  12.580  1.00  0.00     0.022 C 
HETATM   24  C   UNL     1      38.556  -7.347  13.005  1.00  0.00     0.007 C 
ENDBRANCH  22  23
ENDBRANCH  21  22
ENDBRANCH  18  21
ENDBRANCH  12  15
ENDBRANCH   9  11
ENDBRANCH   7   9
ENDBRANCH   1   7
BRANCH   3  25
HETATM   25  C   UNL     1      43.144 -15.085   4.828  1.00  0.00     0.183 A 
HETATM   26  O   UNL     1      43.460 -16.051   5.747  1.00  0.00    -0.289 OA
HETATM   27  C   UNL     1      43.586 -17.185   4.998  1.00  0.00     0.107 A 
HETATM   28  C   UNL     1      43.352 -16.850   3.677  1.00  0.00     0.094 A 
HETATM   29  C   UNL     1      43.887 -18.464   5.446  1.00  0.00     0.047 A 
HETATM   30  N   UNL     1      43.086 -15.507   3.575  1.00  0.00    -0.221 NA
HETATM   31  C   UNL     1      43.408 -17.853   2.703  1.00  0.00     0.041 A 
HETATM   32  C   UNL     1      43.712 -19.175   3.101  1.00  0.00    -0.054 A 
HETATM   33  C   UNL     1      43.940 -19.476   4.466  1.00  0.00    -0.053 A 
HETATM   34  C   UNL     1      43.730 -20.250   2.046  1.00  0.00     0.049 C 
HETATM   35  C   UNL     1      44.257 -20.883   4.908  1.00  0.00     0.049 C 
ENDBRANCH   3  25
BRANCH   4  36
HETATM   36  O   UNL     1      41.284 -13.270   3.570  1.00  0.00    -0.360 OA
HETATM   37  H   UNL     1      41.881 -13.756   2.961  1.00  0.00     0.217 HD
ENDBRANCH   4  36
TORSDOF 9
ENDMDL
MODEL 4
REMARK VINA RESULT:      -9.1      1.334      1.800
REMARK  9 active torsions:
REMARK  status: ('A' for Active; 'I' for Inactive)
REMARK    1  A    between atoms: C_2  and  C_3 
REMARK    2  A    between atoms: C_3  and  O_4 
REMARK    3  A    between atoms: O_4  and  C_5 
REMARK    4  A    between atoms: C_8  and  C_9 
REMARK       I    between atoms: C_9  and  N_10 
REMARK    5  A    between atoms: N_10  and  C_11 
REMARK    6  A    between atoms: C_11  and  N_12 
REMARK    7  A    between atoms: N_12  and  C_13 
REMARK    8  A    between atoms: C_15  and  C_16 
REMARK    9  A    between atoms: C_27  and  O_28 
ROOT
HETATM    1  C   UNL     1      42.670 -11.656   5.415  1.00  0.00     0.035 A 
HETATM    2  C   UNL     1      43.077 -12.953   5.083  1.00  0.00     0.048 A 
HETATM    3  C   UNL     1      42.180 -13.865   4.490  1.00  0.00     0.052 A 
HETATM    4  C   UNL     1      40.864 -13.443   4.240  1.00  0.00     0.080 A 
HETATM    5  C   UNL     1      40.449 -12.158   4.566  1.00  0.00     0.040 A 
HETATM    6  C   UNL     1      41.347 -11.272   5.158  1.00  0.00     0.032 A 
ENDROOT
BRANCH   1   7
HETATM    7  N   UNL     1      43.472 -10.714   6.089  1.00  0.00    -0.333 N 
HETATM    8  H   UNL     1      43.766  -9.919   5.527  1.00  0.00     0.168 HD
BRANCH   7   9
HETATM    9  C   UNL     1      43.755 -10.538   7.416  1.00  0.00     0.179 C 
HETATM   10  S   UNL     1      45.364 -10.678   7.863  1.00  0.00    -0.040 SA
BRANCH   9  11
HETATM   11  N   UNL     1      42.688 -10.370   8.267  1.00  0.00    -0.299 N 
HETATM   12  C   UNL     1      42.382  -9.161   8.870  1.00  0.00     0.257 C 
HETATM   13  O   UNL     1      42.098  -8.160   8.216  1.00  0.00    -0.267 OA
HETATM   14  H   UNL     1      42.491 -11.213   8.779  1.00  0.00     0.171 HD
BRANCH  12  15
HETATM   15  C   UNL     1      42.291  -9.108  10.362  1.00  0.00     0.032 A 
HETATM   16  C   UNL     1      43.399  -8.584  11.047  1.00  0.00     0.020 A 
HETATM   17  C   UNL     1      43.438  -8.547  12.445  1.00  0.00     0.038 A 
HETATM   18  C   UNL     1      42.363  -9.032  13.184  1.00  0.00     0.068 A 
HETATM   19  C   UNL     1      41.252  -9.546  12.510  1.00  0.00     0.038 A 
HETATM   20  C   UNL     1      41.212  -9.593  11.107  1.00  0.00     0.020 A 
BRANCH  18  21
HETATM   21  O   UNL     1      42.278  -9.061  14.550  1.00  0.00    -0.351 OA
BRANCH  21  22
HETATM   22  C   UNL     1      41.326  -8.183  15.154  1.00  0.00     0.175 C 
BRANCH  22  23
HETATM   23  C   UNL     1      42.027  -6.868  15.485  1.00  0.00     0.022 C 
HETATM   24  C   UNL     1      41.564  -5.743  14.575  1.00  0.00     0.007 C 
ENDBRANCH  22  23
ENDBRANCH  21  22
ENDBRANCH  18  21
ENDBRANCH  12  15
ENDBRANCH   9  11
ENDBRANCH   7   9
ENDBRANCH   1   7
BRANCH   3  25
HETATM   25  C   UNL     1      42.583 -15.233   4.172  1.00  0.00     0.183 A 
HETATM   26  O   UNL     1      43.063 -16.010   5.194  1.00  0.00    -0.289 OA
HETATM   27  C   UNL     1      43.331 -17.207   4.596  1.00  0.00     0.107 A 
HETATM   28  C   UNL     1      43.012 -17.093   3.256  1.00  0.00     0.094 A 
HETATM   29  C   UNL     1      43.828 -18.356   5.194  1.00  0.00     0.047 A 
HETATM   30  N   UNL     1      42.551 -15.828   2.990  1.00  0.00    -0.221 NA
HETATM   31  C   UNL     1      43.186 -18.203   2.421  1.00  0.00     0.041 A 
HETATM   32  C   UNL     1      43.690 -19.401   2.975  1.00  0.00    -0.054 A 
HETATM   33  C   UNL     1      43.999 -19.477   4.356  1.00  0.00    -0.053 A 
HETATM   34  C   UNL     1      43.834 -20.599   2.072  1.00  0.00     0.049 C 
HETATM   35  C   UNL     1      44.530 -20.750   4.963  1.00  0.00     0.049 C 
ENDBRANCH   3  25
BRANCH   4  36
HETATM   36  O   UNL     1      39.910 -14.257   3.686  1.00  0.00    -0.360 OA
HETATM   37  H   UNL     1      39.085 -14.179   4.213  1.00  0.00     0.217 HD
ENDBRANCH   4  36
TORSDOF 9
ENDMDL
MODEL 5
REMARK VINA RESULT:      -9.1      4.788      8.369
REMARK  9 active torsions:
REMARK  status: ('A' for Active; 'I' for Inactive)
REMARK    1  A    between atoms: C_2  and  C_3 
REMARK    2  A    between atoms: C_3  and  O_4 
REMARK    3  A    between atoms: O_4  and  C_5 
REMARK    4  A    between atoms: C_8  and  C_9 
REMARK       I    between atoms: C_9  and  N_10 
REMARK    5  A    between atoms: N_10  and  C_11 
REMARK    6  A    between atoms: C_11  and  N_12 
REMARK    7  A    between atoms: N_12  and  C_13 
REMARK    8  A    between atoms: C_15  and  C_16 
REMARK    9  A    between atoms: C_27  and  O_28 
ROOT
HETATM    1  C   UNL     1      42.254 -11.485   6.043  1.00  0.00     0.035 A 
HETATM    2  C   UNL     1      42.475 -12.864   5.947  1.00  0.00     0.048 A 
HETATM    3  C   UNL     1      43.000 -13.434   4.769  1.00  0.00     0.052 A 
HETATM    4  C   UNL     1      43.295 -12.586   3.689  1.00  0.00     0.080 A 
HETATM    5  C   UNL     1      43.079 -11.216   3.774  1.00  0.00     0.040 A 
HETATM    6  C   UNL     1      42.553 -10.671   4.943  1.00  0.00     0.032 A 
ENDROOT
BRANCH   1   7
HETATM    7  N   UNL     1      41.652 -10.847   7.146  1.00  0.00    -0.333 N 
HETATM    8  H   UNL     1      42.114 -11.003   8.038  1.00  0.00     0.168 HD
BRANCH   7   9
HETATM    9  C   UNL     1      40.695  -9.872   7.226  1.00  0.00     0.179 C 
HETATM   10  S   UNL     1      40.761  -8.869   8.567  1.00  0.00    -0.040 SA
BRANCH   9  11
HETATM   11  N   UNL     1      39.716  -9.875   6.262  1.00  0.00    -0.299 N 
HETATM   12  C   UNL     1      39.052 -11.021   5.857  1.00  0.00     0.257 C 
HETATM   13  O   UNL     1      38.376 -11.692   6.634  1.00  0.00    -0.267 OA
HETATM   14  H   UNL     1      39.876  -9.158   5.574  1.00  0.00     0.171 HD
BRANCH  12  15
HETATM   15  C   UNL     1      39.076 -11.389   4.407  1.00  0.00     0.032 A 
HETATM   16  C   UNL     1      38.658 -10.406   3.495  1.00  0.00     0.020 A 
HETATM   17  C   UNL     1      38.585 -10.673   2.124  1.00  0.00     0.038 A 
HETATM   18  C   UNL     1      38.935 -11.929   1.639  1.00  0.00     0.068 A 
HETATM   19  C   UNL     1      39.362 -12.909   2.539  1.00  0.00     0.038 A 
HETATM   20  C   UNL     1      39.428 -12.650   3.917  1.00  0.00     0.020 A 
BRANCH  18  21
HETATM   21  O   UNL     1      38.902 -12.319   0.327  1.00  0.00    -0.351 OA
BRANCH  21  22
HETATM   22  C   UNL     1      39.712 -13.442  -0.030  1.00  0.00     0.175 C 
BRANCH  22  23
HETATM   23  C   UNL     1      39.740 -13.548  -1.552  1.00  0.00     0.022 C 
HETATM   24  C   UNL     1      39.023 -14.796  -2.039  1.00  0.00     0.007 C 
ENDBRANCH  22  23
ENDBRANCH  21  22
ENDBRANCH  18  21
ENDBRANCH  12  15
ENDBRANCH   9  11
ENDBRANCH   7   9
ENDBRANCH   1   7
BRANCH   3  25
HETATM   25  C   UNL     1      43.201 -14.875   4.644  1.00  0.00     0.183 A 
HETATM   26  O   UNL     1      43.012 -15.440   3.409  1.00  0.00    -0.289 OA
HETATM   27  C   UNL     1      43.285 -16.762   3.610  1.00  0.00     0.107 A 
HETATM   28  C   UNL     1      43.613 -16.931   4.942  1.00  0.00     0.094 A 
HETATM   29  C   UNL     1      43.256 -17.782   2.669  1.00  0.00     0.047 A 
HETATM   30  N   UNL     1      43.542 -15.727   5.598  1.00  0.00    -0.221 NA
HETATM   31  C   UNL     1      43.952 -18.210   5.400  1.00  0.00     0.041 A 
HETATM   32  C   UNL     1      43.939 -19.288   4.487  1.00  0.00    -0.054 A 
HETATM   33  C   UNL     1      43.602 -19.070   3.128  1.00  0.00    -0.053 A 
HETATM   34  C   UNL     1      44.344 -20.650   4.986  1.00  0.00     0.049 C 
HETATM   35  C   UNL     1      43.591 -20.208   2.139  1.00  0.00     0.049 C 
ENDBRANCH   3  25
BRANCH   4  36
HETATM   36  O   UNL     1      43.788 -13.041   2.494  1.00  0.00    -0.360 OA
HETATM   37  H   UNL     1      43.969 -12.270   1.914  1.00  0.00     0.217 HD
ENDBRANCH   4  36
TORSDOF 9
ENDMDL
MODEL 6
REMARK VINA RESULT:      -8.9      2.130      3.041
REMARK  9 active torsions:
REMARK  status: ('A' for Active; 'I' for Inactive)
REMARK    1  A    between atoms: C_2  and  C_3 
REMARK    2  A    between atoms: C_3  and  O_4 
REMARK    3  A    between atoms: O_4  and  C_5 
REMARK    4  A    between atoms: C_8  and  C_9 
REMARK       I    between atoms: C_9  and  N_10 
REMARK    5  A    between atoms: N_10  and  C_11 
REMARK    6  A    between atoms: C_11  and  N_12 
REMARK    7  A    between atoms: N_12  and  C_13 
REMARK    8  A    between atoms: C_15  and  C_16 
REMARK    9  A    between atoms: C_27  and  O_28 
ROOT
HETATM    1  C   UNL     1      42.807 -11.322   4.081  1.00  0.00     0.035 A 
HETATM    2  C   UNL     1      43.096 -12.680   4.260  1.00  0.00     0.048 A 
HETATM    3  C   UNL     1      42.792 -13.623   3.257  1.00  0.00     0.052 A 
HETATM    4  C   UNL     1      42.190 -13.170   2.072  1.00  0.00     0.080 A 
HETATM    5  C   UNL     1      41.899 -11.824   1.885  1.00  0.00     0.040 A 
HETATM    6  C   UNL     1      42.200 -10.906   2.889  1.00  0.00     0.032 A 
ENDROOT
BRANCH   1   7
HETATM    7  N   UNL     1      42.995 -10.329   5.064  1.00  0.00    -0.333 N 
HETATM    8  H   UNL     1      43.450  -9.480   4.737  1.00  0.00     0.168 HD
BRANCH   7   9
HETATM    9  C   UNL     1      42.486 -10.185   6.326  1.00  0.00     0.179 C 
HETATM   10  S   UNL     1      40.848 -10.489   6.509  1.00  0.00    -0.040 SA
BRANCH   9  11
HETATM   11  N   UNL     1      43.337  -9.709   7.294  1.00  0.00    -0.299 N 
HETATM   12  C   UNL     1      43.752 -10.464   8.379  1.00  0.00     0.257 C 
HETATM   13  O   UNL     1      44.392 -11.505   8.241  1.00  0.00    -0.267 OA
HETATM   14  H   UNL     1      43.220  -8.718   7.430  1.00  0.00     0.171 HD
BRANCH  12  15
HETATM   15  C   UNL     1      43.504  -9.937   9.756  1.00  0.00     0.032 A 
HETATM   16  C   UNL     1      43.330  -8.550   9.885  1.00  0.00     0.020 A 
HETATM   17  C   UNL     1      43.154  -7.953  11.137  1.00  0.00     0.038 A 
HETATM   18  C   UNL     1      43.145  -8.736  12.287  1.00  0.00     0.068 A 
HETATM   19  C   UNL     1      43.309 -10.119  12.167  1.00  0.00     0.038 A 
HETATM   20  C   UNL     1      43.495 -10.722  10.913  1.00  0.00     0.020 A 
BRANCH  18  21
HETATM   21  O   UNL     1      42.991  -8.278  13.568  1.00  0.00    -0.351 OA
BRANCH  21  22
HETATM   22  C   UNL     1      41.880  -8.793  14.305  1.00  0.00     0.175 C 
BRANCH  22  23
HETATM   23  C   UNL     1      40.598  -8.230  13.699  1.00  0.00     0.022 C 
HETATM   24  C   UNL     1      39.757  -9.319  13.056  1.00  0.00     0.007 C 
ENDBRANCH  22  23
ENDBRANCH  21  22
ENDBRANCH  18  21
ENDBRANCH  12  15
ENDBRANCH   9  11
ENDBRANCH   7   9
ENDBRANCH   1   7
BRANCH   3  25
HETATM   25  C   UNL     1      43.055 -15.047   3.446  1.00  0.00     0.183 A 
HETATM   26  O   UNL     1      42.962 -15.863   2.349  1.00  0.00    -0.289 OA
HETATM   27  C   UNL     1      43.272 -17.100   2.835  1.00  0.00     0.107 A 
HETATM   28  C   UNL     1      43.526 -16.974   4.187  1.00  0.00     0.094 A 
HETATM   29  C   UNL     1      43.339 -18.292   2.126  1.00  0.00     0.047 A 
HETATM   30  N   UNL     1      43.370 -15.666   4.573  1.00  0.00    -0.221 NA
HETATM   31  C   UNL     1      43.884 -18.113   4.919  1.00  0.00     0.041 A 
HETATM   32  C   UNL     1      43.967 -19.355   4.251  1.00  0.00    -0.054 A 
HETATM   33  C   UNL     1      43.704 -19.439   2.861  1.00  0.00    -0.053 A 
HETATM   34  C   UNL     1      44.393 -20.564   5.044  1.00  0.00     0.049 C 
HETATM   35  C   UNL     1      43.796 -20.756   2.133  1.00  0.00     0.049 C 
ENDBRANCH   3  25
BRANCH   4  36
HETATM   36  O   UNL     1      41.836 -14.007   1.045  1.00  0.00    -0.360 OA
HETATM   37  H   UNL     1      41.708 -14.911   1.405  1.00  0.00     0.217 HD
ENDBRANCH   4  36
TORSDOF 9
ENDMDL
MODEL 7
REMARK VINA RESULT:      -8.6      2.286     11.379
REMARK  9 active torsions:
REMARK  status: ('A' for Active; 'I' for Inactive)
REMARK    1  A    between atoms: C_2  and  C_3 
REMARK    2  A    between atoms: C_3  and  O_4 
REMARK    3  A    between atoms: O_4  and  C_5 
REMARK    4  A    between atoms: C_8  and  C_9 
REMARK       I    between atoms: C_9  and  N_10 
REMARK    5  A    between atoms: N_10  and  C_11 
REMARK    6  A    between atoms: C_11  and  N_12 
REMARK    7  A    between atoms: N_12  and  C_13 
REMARK    8  A    between atoms: C_15  and  C_16 
REMARK    9  A    between atoms: C_27  and  O_28 
ROOT
HETATM    1  C   UNL     1      43.707 -10.936   5.931  1.00  0.00     0.035 A 
HETATM    2  C   UNL     1      43.096 -10.467   7.100  1.00  0.00     0.048 A 
HETATM    3  C   UNL     1      43.823 -10.354   8.303  1.00  0.00     0.052 A 
HETATM    4  C   UNL     1      45.177 -10.725   8.304  1.00  0.00     0.080 A 
HETATM    5  C   UNL     1      45.793 -11.191   7.149  1.00  0.00     0.040 A 
HETATM    6  C   UNL     1      45.058 -11.303   5.970  1.00  0.00     0.032 A 
ENDROOT
BRANCH   1   7
HETATM    7  N   UNL     1      43.035 -11.163   4.713  1.00  0.00    -0.333 N 
HETATM    8  H   UNL     1      43.634 -11.416   3.932  1.00  0.00     0.168 HD
BRANCH   7   9
HETATM    9  C   UNL     1      41.709 -11.331   4.420  1.00  0.00     0.179 C 
HETATM   10  S   UNL     1      40.766  -9.945   4.405  1.00  0.00    -0.040 SA
BRANCH   9  11
HETATM   11  N   UNL     1      41.258 -12.620   4.271  1.00  0.00    -0.299 N 
HETATM   12  C   UNL     1      41.709 -13.677   5.044  1.00  0.00     0.257 C 
HETATM   13  O   UNL     1      41.562 -13.701   6.264  1.00  0.00    -0.267 OA
HETATM   14  H   UNL     1      41.006 -12.813   3.315  1.00  0.00     0.171 HD
BRANCH  12  15
HETATM   15  C   UNL     1      42.297 -14.869   4.357  1.00  0.00     0.032 A 
HETATM   16  C   UNL     1      42.733 -14.689   3.035  1.00  0.00     0.020 A 
HETATM   17  C   UNL     1      43.240 -15.756   2.286  1.00  0.00     0.038 A 
HETATM   18  C   UNL     1      43.324 -17.025   2.850  1.00  0.00     0.068 A 
HETATM   19  C   UNL     1      42.901 -17.210   4.169  1.00  0.00     0.038 A 
HETATM   20  C   UNL     1      42.383 -16.145   4.922  1.00  0.00     0.020 A 
BRANCH  18  21
HETATM   21  O   UNL     1      43.791 -18.150   2.226  1.00  0.00    -0.351 OA
BRANCH  21  22
HETATM   22  C   UNL     1      42.918 -19.282   2.203  1.00  0.00     0.175 C 
BRANCH  22  23
HETATM   23  C   UNL     1      43.760 -20.542   2.386  1.00  0.00     0.022 C 
HETATM   24  C   UNL     1      43.859 -20.943   3.848  1.00  0.00     0.007 C 
ENDBRANCH  22  23
ENDBRANCH  21  22
ENDBRANCH  18  21
ENDBRANCH  12  15
ENDBRANCH   9  11
ENDBRANCH   7   9
ENDBRANCH   1   7
BRANCH   3  25
HETATM   25  C   UNL     1      43.187  -9.901   9.537  1.00  0.00     0.183 A 
HETATM   26  O   UNL     1      41.993  -9.237   9.433  1.00  0.00    -0.289 OA
HETATM   27  C   UNL     1      41.656  -8.965  10.727  1.00  0.00     0.107 A 
HETATM   28  C   UNL     1      42.656  -9.465  11.540  1.00  0.00     0.094 A 
HETATM   29  C   UNL     1      40.519  -8.313  11.184  1.00  0.00     0.047 A 
HETATM   30  N   UNL     1      43.636 -10.046  10.775  1.00  0.00    -0.221 NA
HETATM   31  C   UNL     1      42.535  -9.324  12.928  1.00  0.00     0.041 A 
HETATM   32  C   UNL     1      41.398  -8.667  13.451  1.00  0.00    -0.054 A 
HETATM   33  C   UNL     1      40.394  -8.174  12.581  1.00  0.00    -0.053 A 
HETATM   34  C   UNL     1      41.264  -8.559  14.947  1.00  0.00     0.049 C 
HETATM   35  C   UNL     1      39.171  -7.479  13.124  1.00  0.00     0.049 C 
ENDBRANCH   3  25
BRANCH   4  36
HETATM   36  O   UNL     1      45.967 -10.672   9.423  1.00  0.00    -0.360 OA
HETATM   37  H   UNL     1      46.638 -11.386   9.369  1.00  0.00     0.217 HD
ENDBRANCH   4  36
TORSDOF 9
ENDMDL
MODEL 8
REMARK VINA RESULT:      -8.6      2.495     11.288
REMARK  9 active torsions:
REMARK  status: ('A' for Active; 'I' for Inactive)
REMARK    1  A    between atoms: C_2  and  C_3 
REMARK    2  A    between atoms: C_3  and  O_4 
REMARK    3  A    between atoms: O_4  and  C_5 
REMARK    4  A    between atoms: C_8  and  C_9 
REMARK       I    between atoms: C_9  and  N_10 
REMARK    5  A    between atoms: N_10  and  C_11 
REMARK    6  A    between atoms: C_11  and  N_12 
REMARK    7  A    between atoms: N_12  and  C_13 
REMARK    8  A    between atoms: C_15  and  C_16 
REMARK    9  A    between atoms: C_27  and  O_28 
ROOT
HETATM    1  C   UNL     1      42.981 -10.753   5.292  1.00  0.00     0.035 A 
HETATM    2  C   UNL     1      42.698 -10.025   6.454  1.00  0.00     0.048 A 
HETATM    3  C   UNL     1      43.541 -10.101   7.581  1.00  0.00     0.052 A 
HETATM    4  C   UNL     1      44.674 -10.928   7.515  1.00  0.00     0.080 A 
HETATM    5  C   UNL     1      44.965 -11.656   6.367  1.00  0.00     0.040 A 
HETATM    6  C   UNL     1      44.116 -11.574   5.264  1.00  0.00     0.032 A 
ENDROOT
BRANCH   1   7
HETATM    7  N   UNL     1      42.148 -10.804   4.157  1.00  0.00    -0.333 N 
HETATM    8  H   UNL     1      42.362 -10.121   3.435  1.00  0.00     0.168 HD
BRANCH   7   9
HETATM    9  C   UNL     1      41.243 -11.738   3.730  1.00  0.00     0.179 C 
HETATM   10  S   UNL     1      39.655 -11.518   4.218  1.00  0.00    -0.040 SA
BRANCH   9  11
HETATM   11  N   UNL     1      41.737 -12.816   3.034  1.00  0.00    -0.299 N 
HETATM   12  C   UNL     1      41.217 -14.095   3.147  1.00  0.00     0.257 C 
HETATM   13  O   UNL     1      40.053 -14.353   2.846  1.00  0.00    -0.267 OA
HETATM   14  H   UNL     1      42.725 -12.725   2.869  1.00  0.00     0.171 HD
BRANCH  12  15
HETATM   15  C   UNL     1      42.132 -15.208   3.546  1.00  0.00     0.032 A 
HETATM   16  C   UNL     1      42.074 -16.384   2.779  1.00  0.00     0.020 A 
HETATM   17  C   UNL     1      42.844 -17.503   3.109  1.00  0.00     0.038 A 
HETATM   18  C   UNL     1      43.692 -17.466   4.211  1.00  0.00     0.068 A 
HETATM   19  C   UNL     1      43.763 -16.297   4.973  1.00  0.00     0.038 A 
HETATM   20  C   UNL     1      42.985 -15.173   4.653  1.00  0.00     0.020 A 
BRANCH  18  21
HETATM   21  O   UNL     1      44.490 -18.491   4.644  1.00  0.00    -0.351 OA
BRANCH  21  22
HETATM   22  C   UNL     1      43.889 -19.447   5.520  1.00  0.00     0.175 C 
BRANCH  22  23
HETATM   23  C   UNL     1      44.248 -20.845   5.024  1.00  0.00     0.022 C 
HETATM   24  C   UNL     1      43.827 -21.052   3.579  1.00  0.00     0.007 C 
ENDBRANCH  22  23
ENDBRANCH  21  22
ENDBRANCH  18  21
ENDBRANCH  12  15
ENDBRANCH   9  11
ENDBRANCH   7   9
ENDBRANCH   1   7
BRANCH   3  25
HETATM   25  C   UNL     1      43.237  -9.374   8.811  1.00  0.00     0.183 A 
HETATM   26  O   UNL     1      43.171 -10.093   9.976  1.00  0.00    -0.289 OA
HETATM   27  C   UNL     1      42.893  -9.152  10.924  1.00  0.00     0.107 A 
HETATM   28  C   UNL     1      42.797  -7.927  10.292  1.00  0.00     0.094 A 
HETATM   29  C   UNL     1      42.735  -9.351  12.289  1.00  0.00     0.047 A 
HETATM   30  N   UNL     1      43.002  -8.078   8.944  1.00  0.00    -0.221 NA
HETATM   31  C   UNL     1      42.530  -6.787  11.060  1.00  0.00     0.041 A 
HETATM   32  C   UNL     1      42.358  -6.928  12.455  1.00  0.00    -0.054 A 
HETATM   33  C   UNL     1      42.470  -8.203  13.064  1.00  0.00    -0.053 A 
HETATM   34  C   UNL     1      42.111  -5.687  13.272  1.00  0.00     0.049 C 
HETATM   35  C   UNL     1      42.298  -8.369  14.553  1.00  0.00     0.049 C 
ENDBRANCH   3  25
BRANCH   4  36
HETATM   36  O   UNL     1      45.546 -11.088   8.561  1.00  0.00    -0.360 OA
HETATM   37  H   UNL     1      46.270 -11.688   8.278  1.00  0.00     0.217 HD
ENDBRANCH   4  36
TORSDOF 9
ENDMDL
MODEL 9
REMARK VINA RESULT:      -8.5      5.936      9.693
REMARK  9 active torsions:
REMARK  status: ('A' for Active; 'I' for Inactive)
REMARK    1  A    between atoms: C_2  and  C_3 
REMARK    2  A    between atoms: C_3  and  O_4 
REMARK    3  A    between atoms: O_4  and  C_5 
REMARK    4  A    between atoms: C_8  and  C_9 
REMARK       I    between atoms: C_9  and  N_10 
REMARK    5  A    between atoms: N_10  and  C_11 
REMARK    6  A    between atoms: C_11  and  N_12 
REMARK    7  A    between atoms: N_12  and  C_13 
REMARK    8  A    between atoms: C_15  and  C_16 
REMARK    9  A    between atoms: C_27  and  O_28 
ROOT
HETATM    1  C   UNL     1      41.430 -11.228   4.903  1.00  0.00     0.035 A 
HETATM    2  C   UNL     1      41.973 -12.490   4.637  1.00  0.00     0.048 A 
HETATM    3  C   UNL     1      41.365 -13.661   5.134  1.00  0.00     0.052 A 
HETATM    4  C   UNL     1      40.199 -13.533   5.906  1.00  0.00     0.080 A 
HETATM    5  C   UNL     1      39.652 -12.285   6.176  1.00  0.00     0.040 A 
HETATM    6  C   UNL     1      40.270 -11.137   5.683  1.00  0.00     0.032 A 
ENDROOT
BRANCH   1   7
HETATM    7  N   UNL     1      42.021 -10.007   4.521  1.00  0.00    -0.333 N 
HETATM    8  H   UNL     1      43.038 -10.007   4.504  1.00  0.00     0.168 HD
BRANCH   7   9
HETATM    9  C   UNL     1      41.498  -8.878   3.951  1.00  0.00     0.179 C 
HETATM   10  S   UNL     1      41.331  -7.544   4.951  1.00  0.00    -0.040 SA
BRANCH   9  11
HETATM   11  N   UNL     1      41.064  -8.977   2.650  1.00  0.00    -0.299 N 
HETATM   12  C   UNL     1      39.934  -9.686   2.278  1.00  0.00     0.257 C 
HETATM   13  O   UNL     1      38.815  -9.394   2.695  1.00  0.00    -0.267 OA
HETATM   14  H   UNL     1      41.834  -8.950   2.003  1.00  0.00     0.171 HD
BRANCH  12  15
HETATM   15  C   UNL     1      40.071 -10.770   1.257  1.00  0.00     0.032 A 
HETATM   16  C   UNL     1      40.690 -10.427   0.044  1.00  0.00     0.020 A 
HETATM   17  C   UNL     1      40.811 -11.352  -0.997  1.00  0.00     0.038 A 
HETATM   18  C   UNL     1      40.318 -12.644  -0.841  1.00  0.00     0.068 A 
HETATM   19  C   UNL     1      39.709 -12.997   0.367  1.00  0.00     0.038 A 
HETATM   20  C   UNL     1      39.577 -12.069   1.411  1.00  0.00     0.020 A 
BRANCH  18  21
HETATM   21  O   UNL     1      40.365 -13.639  -1.780  1.00  0.00    -0.351 OA
BRANCH  21  22
HETATM   22  C   UNL     1      39.822 -13.334  -3.067  1.00  0.00     0.175 C 
BRANCH  22  23
HETATM   23  C   UNL     1      38.597 -14.216  -3.292  1.00  0.00     0.022 C 
HETATM   24  C   UNL     1      38.669 -15.495  -2.475  1.00  0.00     0.007 C 
ENDBRANCH  22  23
ENDBRANCH  21  22
ENDBRANCH  18  21
ENDBRANCH  12  15
ENDBRANCH   9  11
ENDBRANCH   7   9
ENDBRANCH   1   7
BRANCH   3  25
HETATM   25  C   UNL     1      41.942 -14.981   4.894  1.00  0.00     0.183 A 
HETATM   26  O   UNL     1      41.899 -15.472   3.615  1.00  0.00    -0.289 OA
HETATM   27  C   UNL     1      42.516 -16.685   3.711  1.00  0.00     0.107 A 
HETATM   28  C   UNL     1      42.889 -16.870   5.029  1.00  0.00     0.094 A 
HETATM   29  C   UNL     1      42.751 -17.595   2.689  1.00  0.00     0.047 A 
HETATM   30  N   UNL     1      42.507 -15.787   5.780  1.00  0.00    -0.221 NA
HETATM   31  C   UNL     1      43.561 -18.045   5.385  1.00  0.00     0.041 A 
HETATM   32  C   UNL     1      43.827 -19.009   4.386  1.00  0.00    -0.054 A 
HETATM   33  C   UNL     1      43.432 -18.778   3.045  1.00  0.00    -0.053 A 
HETATM   34  C   UNL     1      44.585 -20.251   4.778  1.00  0.00     0.049 C 
HETATM   35  C   UNL     1      43.715 -19.792   1.967  1.00  0.00     0.049 C 
ENDBRANCH   3  25
BRANCH   4  36
HETATM   36  O   UNL     1      39.542 -14.605   6.453  1.00  0.00    -0.360 OA
HETATM   37  H   UNL     1      39.221 -15.182   5.727  1.00  0.00     0.217 HD
ENDBRANCH   4  36
TORSDOF 9
ENDMDL
MODEL 10
REMARK VINA RESULT:      -8.3      2.297      2.545
REMARK  9 active torsions:
REMARK  status: ('A' for Active; 'I' for Inactive)
REMARK    1  A    between atoms: C_2  and  C_3 
REMARK    2  A    between atoms: C_3  and  O_4 
REMARK    3  A    between atoms: O_4  and  C_5 
REMARK    4  A    between atoms: C_8  and  C_9 
REMARK       I    between atoms: C_9  and  N_10 
REMARK    5  A    between atoms: N_10  and  C_11 
REMARK    6  A    between atoms: C_11  and  N_12 
REMARK    7  A    between atoms: N_12  and  C_13 
REMARK    8  A    between atoms: C_15  and  C_16 
REMARK    9  A    between atoms: C_27  and  O_28 
ROOT
HETATM    1  C   UNL     1      41.779 -11.712   5.919  1.00  0.00     0.035 A 
HETATM    2  C   UNL     1      42.031 -13.060   5.640  1.00  0.00     0.048 A 
HETATM    3  C   UNL     1      42.806 -13.437   4.525  1.00  0.00     0.052 A 
HETATM    4  C   UNL     1      43.320 -12.428   3.695  1.00  0.00     0.080 A 
HETATM    5  C   UNL     1      43.076 -11.086   3.962  1.00  0.00     0.040 A 
HETATM    6  C   UNL     1      42.302 -10.732   5.065  1.00  0.00     0.032 A 
ENDROOT
BRANCH   1   7
HETATM    7  N   UNL     1      40.945 -11.253   6.958  1.00  0.00    -0.333 N 
HETATM    8  H   UNL     1      41.193 -11.583   7.887  1.00  0.00     0.168 HD
BRANCH   7   9
HETATM    9  C   UNL     1      39.995 -10.268   6.998  1.00  0.00     0.179 C 
HETATM   10  S   UNL     1      38.619 -10.519   6.075  1.00  0.00    -0.040 SA
BRANCH   9  11
HETATM   11  N   UNL     1      40.303  -9.129   7.703  1.00  0.00    -0.299 N 
HETATM   12  C   UNL     1      41.214  -9.104   8.746  1.00  0.00     0.257 C 
HETATM   13  O   UNL     1      42.397  -9.400   8.586  1.00  0.00    -0.267 OA
HETATM   14  H   UNL     1      39.516  -8.504   7.753  1.00  0.00     0.171 HD
BRANCH  12  15
HETATM   15  C   UNL     1      40.763  -8.601  10.080  1.00  0.00     0.032 A 
HETATM   16  C   UNL     1      40.215  -9.545  10.964  1.00  0.00     0.020 A 
HETATM   17  C   UNL     1      39.707  -9.164  12.210  1.00  0.00     0.038 A 
HETATM   18  C   UNL     1      39.744  -7.828  12.598  1.00  0.00     0.068 A 
HETATM   19  C   UNL     1      40.296  -6.883  11.728  1.00  0.00     0.038 A 
HETATM   20  C   UNL     1      40.799  -7.259  10.473  1.00  0.00     0.020 A 
BRANCH  18  21
HETATM   21  O   UNL     1      39.276  -7.324  13.782  1.00  0.00    -0.351 OA
BRANCH  21  22
HETATM   22  C   UNL     1      40.202  -6.575  14.572  1.00  0.00     0.175 C 
BRANCH  22  23
HETATM   23  C   UNL     1      41.196  -7.549  15.199  1.00  0.00     0.022 C 
HETATM   24  C   UNL     1      42.200  -6.831  16.085  1.00  0.00     0.007 C 
ENDBRANCH  22  23
ENDBRANCH  21  22
ENDBRANCH  18  21
ENDBRANCH  12  15
ENDBRANCH   9  11
ENDBRANCH   7   9
ENDBRANCH   1   7
BRANCH   3  25
HETATM   25  C   UNL     1      43.046 -14.842   4.203  1.00  0.00     0.183 A 
HETATM   26  O   UNL     1      43.439 -15.671   5.221  1.00  0.00    -0.289 OA
HETATM   27  C   UNL     1      43.564 -16.889   4.620  1.00  0.00     0.107 A 
HETATM   28  C   UNL     1      43.253 -16.737   3.282  1.00  0.00     0.094 A 
HETATM   29  C   UNL     1      43.929 -18.090   5.214  1.00  0.00     0.047 A 
HETATM   30  N   UNL     1      42.938 -15.427   3.020  1.00  0.00    -0.221 NA
HETATM   31  C   UNL     1      43.292 -17.859   2.445  1.00  0.00     0.041 A 
HETATM   32  C   UNL     1      43.658 -19.108   2.994  1.00  0.00    -0.054 A 
HETATM   33  C   UNL     1      43.965 -19.221   4.373  1.00  0.00    -0.053 A 
HETATM   34  C   UNL     1      43.657 -20.313   2.089  1.00  0.00     0.049 C 
HETATM   35  C   UNL     1      44.349 -20.548   4.976  1.00  0.00     0.049 C 
ENDBRANCH   3  25
BRANCH   4  36
HETATM   36  O   UNL     1      44.067 -12.687   2.575  1.00  0.00    -0.360 OA
HETATM   37  H   UNL     1      43.510 -12.534   1.782  1.00  0.00     0.217 HD
ENDBRANCH   4  36
TORSDOF 9
ENDMDL
