MODEL 1
REMARK VINA RESULT:      -8.9      0.000      0.000
REMARK  12 active torsions:
REMARK  status: ('A' for Active; 'I' for Inactive)
REMARK    1  A    between atoms: C_3  and  O_4 
REMARK    2  A    between atoms: C_8  and  C_9 
REMARK       I    between atoms: C_9  and  N_10 
REMARK    3  A    between atoms: N_10  and  C_11 
REMARK    4  A    between atoms: C_11  and  C_33 
REMARK    5  A    between atoms: C_11  and  C_12 
REMARK    6  A    between atoms: C_12  and  O_13 
REMARK    7  A    between atoms: C_12  and  C_14 
REMARK    8  A    between atoms: C_14  and  N_15 
REMARK    9  A    between atoms: C_17  and  C_18 
REMARK       I    between atoms: C_18  and  N_19 
REMARK   10  A    between atoms: N_19  and  C_20 
REMARK   11  A    between atoms: C_33  and  S_34 
REMARK   12  A    between atoms: S_34  and  C_35 
ROOT
HETATM    1  C   UNL     1      40.851 -13.749   5.678  1.00  0.00     0.167 C 
ENDROOT
BRANCH   1   2
HETATM    2  C   UNL     1      42.298 -14.264   5.973  1.00  0.00     0.124 C 
BRANCH   2   3
HETATM    3  N   UNL     1      43.010 -13.321   6.856  1.00  0.00    -0.349 N 
HETATM    4  C   UNL     1      43.307 -12.039   6.446  1.00  0.00     0.252 C 
HETATM    5  O   UNL     1      42.906 -11.581   5.382  1.00  0.00    -0.268 OA
HETATM    6  H   UNL     1      43.481 -13.676   7.684  1.00  0.00     0.163 HD
BRANCH   4   7
HETATM    7  C   UNL     1      44.148 -11.241   7.377  1.00  0.00     0.040 A 
HETATM    8  C   UNL     1      45.486 -10.914   7.059  1.00  0.00    -0.013 A 
HETATM    9  C   UNL     1      46.129 -11.402   5.790  1.00  0.00     0.052 C 
HETATM   10  C   UNL     1      46.184 -10.105   7.967  1.00  0.00     0.072 A 
HETATM   11  C   UNL     1      45.608  -9.683   9.165  1.00  0.00     0.037 A 
HETATM   12  C   UNL     1      44.296 -10.030   9.473  1.00  0.00     0.004 A 
HETATM   13  C   UNL     1      43.562 -10.798   8.576  1.00  0.00     0.018 A 
BRANCH  10  14
HETATM   14  O   UNL     1      47.463  -9.674   7.753  1.00  0.00    -0.360 OA
HETATM   15  H   UNL     1      47.928 -10.288   7.163  1.00  0.00     0.217 HD
ENDBRANCH  10  14
ENDBRANCH   4   7
ENDBRANCH   2   3
BRANCH   2  16
HETATM   16  C   UNL     1      42.376 -15.674   6.581  1.00  0.00     0.107 C 
BRANCH  16  17
HETATM   17  S   UNL     1      44.072 -16.349   6.533  1.00  0.00    -0.128 SA
BRANCH  17  18
HETATM   18  C   UNL     1      43.896 -17.389   5.093  1.00  0.00     0.000 A 
HETATM   19  C   UNL     1      44.119 -18.764   5.197  1.00  0.00     0.018 A 
HETATM   20  C   UNL     1      44.006 -19.579   4.070  1.00  0.00     0.001 A 
HETATM   21  C   UNL     1      43.665 -19.025   2.836  1.00  0.00     0.000 A 
HETATM   22  C   UNL     1      43.429 -17.655   2.730  1.00  0.00     0.001 A 
HETATM   23  C   UNL     1      43.541 -16.839   3.858  1.00  0.00     0.018 A 
ENDBRANCH  17  18
ENDBRANCH  16  17
ENDBRANCH   2  16
ENDBRANCH   1   2
BRANCH   1  24
HETATM   24  O   UNL     1      39.797 -14.413   6.400  1.00  0.00    -0.392 OA
HETATM   25  H   UNL     1      39.032 -13.800   6.472  1.00  0.00     0.210 HD
ENDBRANCH   1  24
BRANCH   1  26
HETATM   26  C   UNL     1      40.494 -13.818   4.176  1.00  0.00     0.269 C 
BRANCH  26  27
HETATM   27  N   UNL     1      41.356 -12.790   3.429  1.00  0.00    -0.055 N 
HETATM   28  H   UNL     1      41.833 -12.325   4.227  1.00  0.00     0.281 HD
HETATM   29  C   UNL     1      40.603 -11.650   2.730  1.00  0.00     0.279 C 
HETATM   30  C   UNL     1      39.915 -12.228   1.497  1.00  0.00     0.048 C 
HETATM   31  C   UNL     1      40.956 -12.812   0.526  1.00  0.00    -0.006 C 
HETATM   32  C   UNL     1      41.924 -13.817   1.179  1.00  0.00     0.016 C 
HETATM   33  C   UNL     1      40.313 -13.423  -0.723  1.00  0.00     0.005 C 
HETATM   34  C   UNL     1      42.433 -13.368   2.560  1.00  0.00     0.241 C 
HETATM   35  C   UNL     1      41.442 -15.283   1.124  1.00  0.00     0.007 C 
HETATM   36  C   UNL     1      39.968 -15.472   0.780  1.00  0.00     0.000 C 
HETATM   37  C   UNL     1      39.520 -14.698  -0.455  1.00  0.00     0.000 C 
BRANCH  29  38
HETATM   38  C   UNL     1      39.717 -10.848   3.716  1.00  0.00     0.249 C 
HETATM   39  N   UNL     1      40.349 -10.307   4.813  1.00  0.00    -0.351 N 
HETATM   40  H   UNL     1      41.284 -10.627   5.034  1.00  0.00     0.163 HD
HETATM   41  O   UNL     1      38.506 -10.774   3.506  1.00  0.00    -0.271 OA
BRANCH  39  42
HETATM   42  C   UNL     1      39.672  -9.620   5.934  1.00  0.00     0.022 C 
HETATM   43  C   UNL     1      38.933 -10.644   6.806  1.00  0.00     0.037 C 
HETATM   44  C   UNL     1      40.758  -8.935   6.785  1.00  0.00     0.037 C 
HETATM   45  C   UNL     1      38.698  -8.537   5.444  1.00  0.00     0.037 C 
ENDBRANCH  39  42
ENDBRANCH  29  38
ENDBRANCH  26  27
ENDBRANCH   1  26
TORSDOF 12
ENDMDL
MODEL 2
REMARK VINA RESULT:      -8.4      1.953      5.821
REMARK  12 active torsions:
REMARK  status: ('A' for Active; 'I' for Inactive)
REMARK    1  A    between atoms: C_3  and  O_4 
REMARK    2  A    between atoms: C_8  and  C_9 
REMARK       I    between atoms: C_9  and  N_10 
REMARK    3  A    between atoms: N_10  and  C_11 
REMARK    4  A    between atoms: C_11  and  C_33 
REMARK    5  A    between atoms: C_11  and  C_12 
REMARK    6  A    between atoms: C_12  and  O_13 
REMARK    7  A    between atoms: C_12  and  C_14 
REMARK    8  A    between atoms: C_14  and  N_15 
REMARK    9  A    between atoms: C_17  and  C_18 
REMARK       I    between atoms: C_18  and  N_19 
REMARK   10  A    between atoms: N_19  and  C_20 
REMARK   11  A    between atoms: C_33  and  S_34 
REMARK   12  A    between atoms: S_34  and  C_35 
ROOT
HETATM    1  C   UNL     1      40.514 -13.112   5.465  1.00  0.00     0.167 C 
ENDROOT
BRANCH   1   2
HETATM    2  C   UNL     1      41.769 -13.775   6.124  1.00  0.00     0.124 C 
BRANCH   2   3
HETATM    3  N   UNL     1      42.232 -14.917   5.314  1.00  0.00    -0.349 N 
HETATM    4  C   UNL     1      42.391 -16.171   5.866  1.00  0.00     0.252 C 
HETATM    5  O   UNL     1      42.056 -16.429   7.016  1.00  0.00    -0.268 OA
HETATM    6  H   UNL     1      42.650 -14.743   4.404  1.00  0.00     0.163 HD
BRANCH   4   7
HETATM    7  C   UNL     1      42.997 -17.197   4.976  1.00  0.00     0.040 A 
HETATM    8  C   UNL     1      43.534 -18.395   5.498  1.00  0.00    -0.013 A 
HETATM    9  C   UNL     1      43.560 -18.660   6.979  1.00  0.00     0.052 C 
HETATM   10  C   UNL     1      44.028 -19.334   4.580  1.00  0.00     0.072 A 
HETATM   11  C   UNL     1      44.045 -19.077   3.209  1.00  0.00     0.037 A 
HETATM   12  C   UNL     1      43.531 -17.883   2.712  1.00  0.00     0.004 A 
HETATM   13  C   UNL     1      42.997 -16.948   3.592  1.00  0.00     0.018 A 
BRANCH  10  14
HETATM   14  O   UNL     1      44.524 -20.551   4.950  1.00  0.00    -0.360 OA
HETATM   15  H   UNL     1      43.799 -21.151   5.183  1.00  0.00     0.217 HD
ENDBRANCH  10  14
ENDBRANCH   4   7
ENDBRANCH   2   3
BRANCH   2  16
HETATM   16  C   UNL     1      42.952 -12.825   6.372  1.00  0.00     0.107 C 
BRANCH  16  17
HETATM   17  S   UNL     1      42.433 -11.075   6.395  1.00  0.00    -0.128 SA
BRANCH  17  18
HETATM   18  C   UNL     1      43.870 -10.389   7.200  1.00  0.00     0.000 A 
HETATM   19  C   UNL     1      43.739  -9.260   8.013  1.00  0.00     0.018 A 
HETATM   20  C   UNL     1      44.863  -8.704   8.627  1.00  0.00     0.001 A 
HETATM   21  C   UNL     1      46.120  -9.278   8.436  1.00  0.00     0.000 A 
HETATM   22  C   UNL     1      46.253 -10.412   7.638  1.00  0.00     0.001 A 
HETATM   23  C   UNL     1      45.130 -10.969   7.023  1.00  0.00     0.018 A 
ENDBRANCH  17  18
ENDBRANCH  16  17
ENDBRANCH   2  16
ENDBRANCH   1   2
BRANCH   1  24
HETATM   24  O   UNL     1      39.253 -13.419   6.087  1.00  0.00    -0.392 OA
HETATM   25  H   UNL     1      39.402 -14.097   6.783  1.00  0.00     0.210 HD
ENDBRANCH   1  24
BRANCH   1  26
HETATM   26  C   UNL     1      40.384 -13.455   3.964  1.00  0.00     0.269 C 
BRANCH  26  27
HETATM   27  N   UNL     1      41.221 -12.446   3.165  1.00  0.00    -0.055 N 
HETATM   28  H   UNL     1      41.653 -11.902   3.939  1.00  0.00     0.281 HD
HETATM   29  C   UNL     1      40.439 -11.397   2.364  1.00  0.00     0.279 C 
HETATM   30  C   UNL     1      39.815 -12.095   1.159  1.00  0.00     0.048 C 
HETATM   31  C   UNL     1      40.908 -12.701   0.262  1.00  0.00    -0.006 C 
HETATM   32  C   UNL     1      41.900 -13.609   1.015  1.00  0.00     0.016 C 
HETATM   33  C   UNL     1      40.331 -13.431  -0.954  1.00  0.00     0.005 C 
HETATM   34  C   UNL     1      42.348 -13.036   2.371  1.00  0.00     0.241 C 
HETATM   35  C   UNL     1      41.486 -15.095   1.057  1.00  0.00     0.007 C 
HETATM   36  C   UNL     1      40.032 -15.378   0.689  1.00  0.00     0.000 C 
HETATM   37  C   UNL     1      39.587 -14.718  -0.611  1.00  0.00     0.000 C 
BRANCH  29  38
HETATM   38  C   UNL     1      39.489 -10.567   3.263  1.00  0.00     0.249 C 
HETATM   39  N   UNL     1      40.079  -9.638   4.091  1.00  0.00    -0.351 N 
HETATM   40  H   UNL     1      41.081  -9.688   4.230  1.00  0.00     0.163 HD
HETATM   41  O   UNL     1      38.281 -10.802   3.234  1.00  0.00    -0.271 OA
BRANCH  39  42
HETATM   42  C   UNL     1      39.373  -8.837   5.114  1.00  0.00     0.022 C 
HETATM   43  C   UNL     1      38.826  -9.757   6.214  1.00  0.00     0.037 C 
HETATM   44  C   UNL     1      40.396  -7.870   5.738  1.00  0.00     0.037 C 
HETATM   45  C   UNL     1      38.236  -8.000   4.507  1.00  0.00     0.037 C 
ENDBRANCH  39  42
ENDBRANCH  29  38
ENDBRANCH  26  27
ENDBRANCH   1  26
TORSDOF 12
ENDMDL
MODEL 3
REMARK VINA RESULT:      -8.3      2.354      5.998
REMARK  12 active torsions:
REMARK  status: ('A' for Active; 'I' for Inactive)
REMARK    1  A    between atoms: C_3  and  O_4 
REMARK    2  A    between atoms: C_8  and  C_9 
REMARK       I    between atoms: C_9  and  N_10 
REMARK    3  A    between atoms: N_10  and  C_11 
REMARK    4  A    between atoms: C_11  and  C_33 
REMARK    5  A    between atoms: C_11  and  C_12 
REMARK    6  A    between atoms: C_12  and  O_13 
REMARK    7  A    between atoms: C_12  and  C_14 
REMARK    8  A    between atoms: C_14  and  N_15 
REMARK    9  A    between atoms: C_17  and  C_18 
REMARK       I    between atoms: C_18  and  N_19 
REMARK   10  A    between atoms: N_19  and  C_20 
REMARK   11  A    between atoms: C_33  and  S_34 
REMARK   12  A    between atoms: S_34  and  C_35 
ROOT
HETATM    1  C   UNL     1      42.173 -11.508   1.662  1.00  0.00     0.167 C 
ENDROOT
BRANCH   1   2
HETATM    2  C   UNL     1      42.176 -12.146   3.090  1.00  0.00     0.124 C 
BRANCH   2   3
HETATM    3  N   UNL     1      42.669 -13.535   3.033  1.00  0.00    -0.349 N 
HETATM    4  C   UNL     1      41.859 -14.599   3.368  1.00  0.00     0.252 C 
HETATM    5  O   UNL     1      40.668 -14.462   3.624  1.00  0.00    -0.268 OA
HETATM    6  H   UNL     1      43.669 -13.704   2.961  1.00  0.00     0.163 HD
BRANCH   4   7
HETATM    7  C   UNL     1      42.521 -15.930   3.403  1.00  0.00     0.040 A 
HETATM    8  C   UNL     1      43.069 -16.445   4.598  1.00  0.00    -0.013 A 
HETATM    9  C   UNL     1      43.051 -15.648   5.874  1.00  0.00     0.052 C 
HETATM   10  C   UNL     1      43.618 -17.736   4.552  1.00  0.00     0.072 A 
HETATM   11  C   UNL     1      43.676 -18.464   3.363  1.00  0.00     0.037 A 
HETATM   12  C   UNL     1      43.149 -17.934   2.190  1.00  0.00     0.004 A 
HETATM   13  C   UNL     1      42.562 -16.673   2.210  1.00  0.00     0.018 A 
BRANCH  10  14
HETATM   14  O   UNL     1      44.131 -18.369   5.648  1.00  0.00    -0.360 OA
HETATM   15  H   UNL     1      45.071 -18.150   5.751  1.00  0.00     0.217 HD
ENDBRANCH  10  14
ENDBRANCH   4   7
ENDBRANCH   2   3
BRANCH   2  16
HETATM   16  C   UNL     1      42.981 -11.373   4.147  1.00  0.00     0.107 C 
BRANCH  16  17
HETATM   17  S   UNL     1      42.448 -11.778   5.846  1.00  0.00    -0.128 SA
BRANCH  17  18
HETATM   18  C   UNL     1      43.794 -11.007   6.730  1.00  0.00     0.000 A 
HETATM   19  C   UNL     1      43.539  -9.931   7.584  1.00  0.00     0.018 A 
HETATM   20  C   UNL     1      44.590  -9.309   8.260  1.00  0.00     0.001 A 
HETATM   21  C   UNL     1      45.897  -9.763   8.090  1.00  0.00     0.000 A 
HETATM   22  C   UNL     1      46.155 -10.845   7.251  1.00  0.00     0.001 A 
HETATM   23  C   UNL     1      45.104 -11.469   6.574  1.00  0.00     0.018 A 
ENDBRANCH  17  18
ENDBRANCH  16  17
ENDBRANCH   2  16
ENDBRANCH   1   2
BRANCH   1  24
HETATM   24  O   UNL     1      42.104 -10.071   1.625  1.00  0.00    -0.392 OA
HETATM   25  H   UNL     1      42.967  -9.707   1.923  1.00  0.00     0.210 HD
ENDBRANCH   1  24
BRANCH   1  26
HETATM   26  C   UNL     1      41.030 -12.048   0.775  1.00  0.00     0.269 C 
BRANCH  26  27
HETATM   27  N   UNL     1      40.436 -10.874  -0.015  1.00  0.00    -0.055 N 
HETATM   28  H   UNL     1      40.878 -10.071   0.477  1.00  0.00     0.281 HD
HETATM   29  C   UNL     1      38.930 -10.632   0.154  1.00  0.00     0.279 C 
HETATM   30  C   UNL     1      38.190 -11.735  -0.595  1.00  0.00     0.048 C 
HETATM   31  C   UNL     1      38.539 -11.696  -2.093  1.00  0.00    -0.006 C 
HETATM   32  C   UNL     1      40.054 -11.708  -2.380  1.00  0.00     0.016 C 
HETATM   33  C   UNL     1      37.834 -12.798  -2.889  1.00  0.00     0.005 C 
HETATM   34  C   UNL     1      40.861 -10.786  -1.450  1.00  0.00     0.241 C 
HETATM   35  C   UNL     1      40.649 -13.122  -2.552  1.00  0.00     0.007 C 
HETATM   36  C   UNL     1      39.768 -14.266  -2.061  1.00  0.00     0.000 C 
HETATM   37  C   UNL     1      38.336 -14.205  -2.581  1.00  0.00     0.000 C 
BRANCH  29  38
HETATM   38  C   UNL     1      38.540 -10.408   1.637  1.00  0.00     0.249 C 
HETATM   39  N   UNL     1      39.293  -9.495   2.342  1.00  0.00    -0.351 N 
HETATM   40  H   UNL     1      40.168  -9.184   1.939  1.00  0.00     0.163 HD
HETATM   41  O   UNL     1      37.627 -11.076   2.123  1.00  0.00    -0.271 OA
BRANCH  39  42
HETATM   42  C   UNL     1      39.172  -9.227   3.791  1.00  0.00     0.022 C 
HETATM   43  C   UNL     1      39.105 -10.552   4.564  1.00  0.00     0.037 C 
HETATM   44  C   UNL     1      40.432  -8.458   4.231  1.00  0.00     0.037 C 
HETATM   45  C   UNL     1      37.947  -8.359   4.117  1.00  0.00     0.037 C 
ENDBRANCH  39  42
ENDBRANCH  29  38
ENDBRANCH  26  27
ENDBRANCH   1  26
TORSDOF 12
ENDMDL
MODEL 4
REMARK VINA RESULT:      -8.2      2.530      6.884
REMARK  12 active torsions:
REMARK  status: ('A' for Active; 'I' for Inactive)
REMARK    1  A    between atoms: C_3  and  O_4 
REMARK    2  A    between atoms: C_8  and  C_9 
REMARK       I    between atoms: C_9  and  N_10 
REMARK    3  A    between atoms: N_10  and  C_11 
REMARK    4  A    between atoms: C_11  and  C_33 
REMARK    5  A    between atoms: C_11  and  C_12 
REMARK    6  A    between atoms: C_12  and  O_13 
REMARK    7  A    between atoms: C_12  and  C_14 
REMARK    8  A    between atoms: C_14  and  N_15 
REMARK    9  A    between atoms: C_17  and  C_18 
REMARK       I    between atoms: C_18  and  N_19 
REMARK   10  A    between atoms: N_19  and  C_20 
REMARK   11  A    between atoms: C_33  and  S_34 
REMARK   12  A    between atoms: S_34  and  C_35 
ROOT
HETATM    1  C   UNL     1      39.751 -13.040   3.371  1.00  0.00     0.167 C 
ENDROOT
BRANCH   1   2
HETATM    2  C   UNL     1      40.998 -13.421   2.508  1.00  0.00     0.124 C 
BRANCH   2   3
HETATM    3  N   UNL     1      41.815 -14.434   3.201  1.00  0.00    -0.349 N 
HETATM    4  C   UNL     1      41.286 -15.652   3.572  1.00  0.00     0.252 C 
HETATM    5  O   UNL     1      40.155 -16.000   3.254  1.00  0.00    -0.268 OA
HETATM    6  H   UNL     1      42.705 -14.159   3.607  1.00  0.00     0.163 HD
BRANCH   4   7
HETATM    7  C   UNL     1      42.175 -16.522   4.386  1.00  0.00     0.040 A 
HETATM    8  C   UNL     1      43.067 -17.433   3.776  1.00  0.00    -0.013 A 
HETATM    9  C   UNL     1      43.118 -17.595   2.282  1.00  0.00     0.052 C 
HETATM   10  C   UNL     1      43.914 -18.168   4.620  1.00  0.00     0.072 A 
HETATM   11  C   UNL     1      43.843 -18.053   6.009  1.00  0.00     0.037 A 
HETATM   12  C   UNL     1      42.945 -17.166   6.594  1.00  0.00     0.004 A 
HETATM   13  C   UNL     1      42.119 -16.392   5.785  1.00  0.00     0.018 A 
BRANCH  10  14
HETATM   14  O   UNL     1      44.856 -19.041   4.156  1.00  0.00    -0.360 OA
HETATM   15  H   UNL     1      44.522 -19.509   3.375  1.00  0.00     0.217 HD
ENDBRANCH  10  14
ENDBRANCH   4   7
ENDBRANCH   2   3
BRANCH   2  16
HETATM   16  C   UNL     1      40.678 -13.921   1.089  1.00  0.00     0.107 C 
BRANCH  16  17
HETATM   17  S   UNL     1      40.875 -12.607  -0.163  1.00  0.00    -0.128 SA
BRANCH  17  18
HETATM   18  C   UNL     1      39.628 -13.158  -1.315  1.00  0.00     0.000 A 
HETATM   19  C   UNL     1      38.397 -12.499  -1.375  1.00  0.00     0.018 A 
HETATM   20  C   UNL     1      37.409 -12.940  -2.258  1.00  0.00     0.001 A 
HETATM   21  C   UNL     1      37.650 -14.035  -3.087  1.00  0.00     0.000 A 
HETATM   22  C   UNL     1      38.881 -14.687  -3.040  1.00  0.00     0.001 A 
HETATM   23  C   UNL     1      39.870 -14.246  -2.158  1.00  0.00     0.018 A 
ENDBRANCH  17  18
ENDBRANCH  16  17
ENDBRANCH   2  16
ENDBRANCH   1   2
BRANCH   1  24
HETATM   24  O   UNL     1      38.496 -12.999   2.666  1.00  0.00    -0.392 OA
HETATM   25  H   UNL     1      38.177 -12.070   2.648  1.00  0.00     0.210 HD
ENDBRANCH   1  24
BRANCH   1  26
HETATM   26  C   UNL     1      39.921 -11.682   4.089  1.00  0.00     0.269 C 
BRANCH  26  27
HETATM   27  N   UNL     1      40.751 -10.760   3.185  1.00  0.00    -0.055 N 
HETATM   28  H   UNL     1      41.209 -11.461   2.568  1.00  0.00     0.281 HD
HETATM   29  C   UNL     1      41.924 -10.029   3.853  1.00  0.00     0.279 C 
HETATM   30  C   UNL     1      41.348  -8.929   4.739  1.00  0.00     0.048 C 
HETATM   31  C   UNL     1      40.544  -7.924   3.895  1.00  0.00    -0.006 C 
HETATM   32  C   UNL     1      39.471  -8.577   3.002  1.00  0.00     0.016 C 
HETATM   33  C   UNL     1      39.929  -6.807   4.743  1.00  0.00     0.005 C 
HETATM   34  C   UNL     1      39.958  -9.853   2.293  1.00  0.00     0.241 C 
HETATM   35  C   UNL     1      38.089  -8.710   3.676  1.00  0.00     0.007 C 
HETATM   36  C   UNL     1      38.080  -8.528   5.190  1.00  0.00     0.000 C 
HETATM   37  C   UNL     1      38.804  -7.273   5.663  1.00  0.00     0.000 C 
BRANCH  29  38
HETATM   38  C   UNL     1      42.921 -11.013   4.515  1.00  0.00     0.249 C 
HETATM   39  N   UNL     1      43.114 -10.876   5.871  1.00  0.00    -0.351 N 
HETATM   40  H   UNL     1      42.776 -10.034   6.321  1.00  0.00     0.163 HD
HETATM   41  O   UNL     1      43.520 -11.823   3.807  1.00  0.00    -0.271 OA
BRANCH  39  42
HETATM   42  C   UNL     1      44.110 -11.622   6.671  1.00  0.00     0.022 C 
HETATM   43  C   UNL     1      45.520 -11.359   6.127  1.00  0.00     0.037 C 
HETATM   44  C   UNL     1      44.030 -11.102   8.118  1.00  0.00     0.037 C 
HETATM   45  C   UNL     1      43.819 -13.131   6.691  1.00  0.00     0.037 C 
ENDBRANCH  39  42
ENDBRANCH  29  38
ENDBRANCH  26  27
ENDBRANCH   1  26
TORSDOF 12
ENDMDL
MODEL 5
REMARK VINA RESULT:      -8.1      2.369      6.340
REMARK  12 active torsions:
REMARK  status: ('A' for Active; 'I' for Inactive)
REMARK    1  A    between atoms: C_3  and  O_4 
REMARK    2  A    between atoms: C_8  and  C_9 
REMARK       I    between atoms: C_9  and  N_10 
REMARK    3  A    between atoms: N_10  and  C_11 
REMARK    4  A    between atoms: C_11  and  C_33 
REMARK    5  A    between atoms: C_11  and  C_12 
REMARK    6  A    between atoms: C_12  and  O_13 
REMARK    7  A    between atoms: C_12  and  C_14 
REMARK    8  A    between atoms: C_14  and  N_15 
REMARK    9  A    between atoms: C_17  and  C_18 
REMARK       I    between atoms: C_18  and  N_19 
REMARK   10  A    between atoms: N_19  and  C_20 
REMARK   11  A    between atoms: C_33  and  S_34 
REMARK   12  A    between atoms: S_34  and  C_35 
ROOT
HETATM    1  C   UNL     1      42.063 -11.374   2.780  1.00  0.00     0.167 C 
ENDROOT
BRANCH   1   2
HETATM    2  C   UNL     1      41.506 -10.757   4.105  1.00  0.00     0.124 C 
BRANCH   2   3
HETATM    3  N   UNL     1      42.613 -10.332   4.981  1.00  0.00    -0.349 N 
HETATM    4  C   UNL     1      42.719 -10.792   6.277  1.00  0.00     0.252 C 
HETATM    5  O   UNL     1      41.973 -11.651   6.732  1.00  0.00    -0.268 OA
HETATM    6  H   UNL     1      43.177  -9.530   4.714  1.00  0.00     0.163 HD
BRANCH   4   7
HETATM    7  C   UNL     1      43.800 -10.178   7.095  1.00  0.00     0.040 A 
HETATM    8  C   UNL     1      45.146 -10.578   6.949  1.00  0.00    -0.013 A 
HETATM    9  C   UNL     1      45.537 -11.677   5.998  1.00  0.00     0.052 C 
HETATM   10  C   UNL     1      46.106  -9.901   7.715  1.00  0.00     0.072 A 
HETATM   11  C   UNL     1      45.747  -8.910   8.630  1.00  0.00     0.037 A 
HETATM   12  C   UNL     1      44.413  -8.541   8.775  1.00  0.00     0.004 A 
HETATM   13  C   UNL     1      43.440  -9.165   8.002  1.00  0.00     0.018 A 
BRANCH  10  14
HETATM   14  O   UNL     1      47.446 -10.155   7.630  1.00  0.00    -0.360 OA
HETATM   15  H   UNL     1      47.901  -9.816   8.417  1.00  0.00     0.217 HD
ENDBRANCH  10  14
ENDBRANCH   4   7
ENDBRANCH   2   3
BRANCH   2  16
HETATM   16  C   UNL     1      40.537  -9.578   3.916  1.00  0.00     0.107 C 
BRANCH  16  17
HETATM   17  S   UNL     1      38.924  -9.880   4.717  1.00  0.00    -0.128 SA
BRANCH  17  18
HETATM   18  C   UNL     1      39.334  -9.301   6.354  1.00  0.00     0.000 A 
HETATM   19  C   UNL     1      39.120 -10.129   7.459  1.00  0.00     0.018 A 
HETATM   20  C   UNL     1      39.417  -9.673   8.744  1.00  0.00     0.001 A 
HETATM   21  C   UNL     1      39.934  -8.391   8.930  1.00  0.00     0.000 A 
HETATM   22  C   UNL     1      40.162  -7.566   7.830  1.00  0.00     0.001 A 
HETATM   23  C   UNL     1      39.866  -8.022   6.543  1.00  0.00     0.018 A 
ENDBRANCH  17  18
ENDBRANCH  16  17
ENDBRANCH   2  16
ENDBRANCH   1   2
BRANCH   1  24
HETATM   24  O   UNL     1      42.141 -10.473   1.661  1.00  0.00    -0.392 OA
HETATM   25  H   UNL     1      41.855 -10.952   0.852  1.00  0.00     0.210 HD
ENDBRANCH   1  24
BRANCH   1  26
HETATM   26  C   UNL     1      41.260 -12.612   2.321  1.00  0.00     0.269 C 
BRANCH  26  27
HETATM   27  N   UNL     1      42.240 -13.622   1.708  1.00  0.00    -0.055 N 
HETATM   28  H   UNL     1      42.560 -13.093   0.871  1.00  0.00     0.281 HD
HETATM   29  C   UNL     1      41.623 -14.901   1.127  1.00  0.00     0.279 C 
HETATM   30  C   UNL     1      41.177 -15.779   2.292  1.00  0.00     0.048 C 
HETATM   31  C   UNL     1      42.381 -16.156   3.172  1.00  0.00    -0.006 C 
HETATM   32  C   UNL     1      43.218 -14.948   3.637  1.00  0.00     0.016 C 
HETATM   33  C   UNL     1      41.983 -17.024   4.369  1.00  0.00     0.005 C 
HETATM   34  C   UNL     1      43.461 -13.909   2.528  1.00  0.00     0.241 C 
HETATM   35  C   UNL     1      42.761 -14.349   4.984  1.00  0.00     0.007 C 
HETATM   36  C   UNL     1      41.377 -14.782   5.456  1.00  0.00     0.000 C 
HETATM   37  C   UNL     1      41.160 -16.290   5.423  1.00  0.00     0.000 C 
BRANCH  29  38
HETATM   38  C   UNL     1      40.566 -14.594   0.036  1.00  0.00     0.249 C 
HETATM   39  N   UNL     1      40.939 -13.710  -0.952  1.00  0.00    -0.351 N 
HETATM   40  H   UNL     1      41.774 -13.156  -0.809  1.00  0.00     0.163 HD
HETATM   41  O   UNL     1      39.449 -15.103   0.126  1.00  0.00    -0.271 OA
BRANCH  39  42
HETATM   42  C   UNL     1      40.046 -13.186  -2.008  1.00  0.00     0.022 C 
HETATM   43  C   UNL     1      39.006 -12.241  -1.392  1.00  0.00     0.037 C 
HETATM   44  C   UNL     1      40.915 -12.390  -3.001  1.00  0.00     0.037 C 
HETATM   45  C   UNL     1      39.348 -14.313  -2.785  1.00  0.00     0.037 C 
ENDBRANCH  39  42
ENDBRANCH  29  38
ENDBRANCH  26  27
ENDBRANCH   1  26
TORSDOF 12
ENDMDL
MODEL 6
REMARK VINA RESULT:      -8.1      2.869      7.273
REMARK  12 active torsions:
REMARK  status: ('A' for Active; 'I' for Inactive)
REMARK    1  A    between atoms: C_3  and  O_4 
REMARK    2  A    between atoms: C_8  and  C_9 
REMARK       I    between atoms: C_9  and  N_10 
REMARK    3  A    between atoms: N_10  and  C_11 
REMARK    4  A    between atoms: C_11  and  C_33 
REMARK    5  A    between atoms: C_11  and  C_12 
REMARK    6  A    between atoms: C_12  and  O_13 
REMARK    7  A    between atoms: C_12  and  C_14 
REMARK    8  A    between atoms: C_14  and  N_15 
REMARK    9  A    between atoms: C_17  and  C_18 
REMARK       I    between atoms: C_18  and  N_19 
REMARK   10  A    between atoms: N_19  and  C_20 
REMARK   11  A    between atoms: C_33  and  S_34 
REMARK   12  A    between atoms: S_34  and  C_35 
ROOT
HETATM    1  C   UNL     1      40.227 -14.041   2.950  1.00  0.00     0.167 C 
ENDROOT
BRANCH   1   2
HETATM    2  C   UNL     1      41.213 -14.700   1.931  1.00  0.00     0.124 C 
BRANCH   2   3
HETATM    3  N   UNL     1      41.663 -16.014   2.424  1.00  0.00    -0.349 N 
HETATM    4  C   UNL     1      42.958 -16.449   2.232  1.00  0.00     0.252 C 
HETATM    5  O   UNL     1      43.824 -15.733   1.745  1.00  0.00    -0.268 OA
HETATM    6  H   UNL     1      40.970 -16.700   2.711  1.00  0.00     0.163 HD
BRANCH   4   7
HETATM    7  C   UNL     1      43.240 -17.847   2.654  1.00  0.00     0.040 A 
HETATM    8  C   UNL     1      43.730 -18.137   3.947  1.00  0.00    -0.013 A 
HETATM    9  C   UNL     1      44.033 -17.042   4.933  1.00  0.00     0.052 C 
HETATM   10  C   UNL     1      43.907 -19.489   4.280  1.00  0.00     0.072 A 
HETATM   11  C   UNL     1      43.668 -20.507   3.357  1.00  0.00     0.037 A 
HETATM   12  C   UNL     1      43.205 -20.203   2.081  1.00  0.00     0.004 A 
HETATM   13  C   UNL     1      42.980 -18.875   1.731  1.00  0.00     0.018 A 
BRANCH  10  14
HETATM   14  O   UNL     1      44.323 -19.906   5.512  1.00  0.00    -0.360 OA
HETATM   15  H   UNL     1      45.032 -20.562   5.420  1.00  0.00     0.217 HD
ENDBRANCH  10  14
ENDBRANCH   4   7
ENDBRANCH   2   3
BRANCH   2  16
HETATM   16  C   UNL     1      40.663 -14.863   0.504  1.00  0.00     0.107 C 
BRANCH  16  17
HETATM   17  S   UNL     1      40.770 -13.312  -0.454  1.00  0.00    -0.128 SA
BRANCH  17  18
HETATM   18  C   UNL     1      39.401 -13.597  -1.562  1.00  0.00     0.000 A 
HETATM   19  C   UNL     1      39.388 -14.735  -2.373  1.00  0.00     0.018 A 
HETATM   20  C   UNL     1      38.332 -14.952  -3.260  1.00  0.00     0.001 A 
HETATM   21  C   UNL     1      37.282 -14.037  -3.335  1.00  0.00     0.000 A 
HETATM   22  C   UNL     1      37.284 -12.907  -2.519  1.00  0.00     0.001 A 
HETATM   23  C   UNL     1      38.340 -12.689  -1.631  1.00  0.00     0.018 A 
ENDBRANCH  17  18
ENDBRANCH  16  17
ENDBRANCH   2  16
ENDBRANCH   1   2
BRANCH   1  24
HETATM   24  O   UNL     1      38.828 -14.180   2.638  1.00  0.00    -0.392 OA
HETATM   25  H   UNL     1      38.322 -13.526   3.169  1.00  0.00     0.210 HD
ENDBRANCH   1  24
BRANCH   1  26
HETATM   26  C   UNL     1      40.506 -12.535   3.155  1.00  0.00     0.269 C 
BRANCH  26  27
HETATM   27  N   UNL     1      39.662 -12.045   4.340  1.00  0.00    -0.055 N 
HETATM   28  H   UNL     1      38.705 -12.262   3.994  1.00  0.00     0.281 HD
HETATM   29  C   UNL     1      39.639 -10.529   4.577  1.00  0.00     0.279 C 
HETATM   30  C   UNL     1      40.993 -10.123   5.151  1.00  0.00     0.048 C 
HETATM   31  C   UNL     1      41.246 -10.837   6.489  1.00  0.00    -0.006 C 
HETATM   32  C   UNL     1      41.075 -12.368   6.422  1.00  0.00     0.016 C 
HETATM   33  C   UNL     1      42.604 -10.476   7.099  1.00  0.00     0.005 C 
HETATM   34  C   UNL     1      39.842 -12.811   5.616  1.00  0.00     0.241 C 
HETATM   35  C   UNL     1      42.372 -13.130   6.075  1.00  0.00     0.007 C 
HETATM   36  C   UNL     1      43.499 -12.275   5.505  1.00  0.00     0.000 C 
HETATM   37  C   UNL     1      43.798 -11.025   6.325  1.00  0.00     0.000 C 
BRANCH  29  38
HETATM   38  C   UNL     1      39.143  -9.753   3.332  1.00  0.00     0.249 C 
HETATM   39  N   UNL     1      38.051 -10.274   2.674  1.00  0.00    -0.351 N 
HETATM   40  H   UNL     1      37.766 -11.221   2.894  1.00  0.00     0.163 HD
HETATM   41  O   UNL     1      39.762  -8.754   2.964  1.00  0.00    -0.271 OA
BRANCH  39  42
HETATM   42  C   UNL     1      37.500  -9.765   1.400  1.00  0.00     0.022 C 
HETATM   43  C   UNL     1      36.407 -10.713   0.886  1.00  0.00     0.037 C 
HETATM   44  C   UNL     1      36.872  -8.387   1.680  1.00  0.00     0.037 C 
HETATM   45  C   UNL     1      38.590  -9.582   0.332  1.00  0.00     0.037 C 
ENDBRANCH  39  42
ENDBRANCH  29  38
ENDBRANCH  26  27
ENDBRANCH   1  26
TORSDOF 12
ENDMDL
MODEL 7
REMARK VINA RESULT:      -8.0      2.476      5.929
REMARK  12 active torsions:
REMARK  status: ('A' for Active; 'I' for Inactive)
REMARK    1  A    between atoms: C_3  and  O_4 
REMARK    2  A    between atoms: C_8  and  C_9 
REMARK       I    between atoms: C_9  and  N_10 
REMARK    3  A    between atoms: N_10  and  C_11 
REMARK    4  A    between atoms: C_11  and  C_33 
REMARK    5  A    between atoms: C_11  and  C_12 
REMARK    6  A    between atoms: C_12  and  O_13 
REMARK    7  A    between atoms: C_12  and  C_14 
REMARK    8  A    between atoms: C_14  and  N_15 
REMARK    9  A    between atoms: C_17  and  C_18 
REMARK       I    between atoms: C_18  and  N_19 
REMARK   10  A    between atoms: N_19  and  C_20 
REMARK   11  A    between atoms: C_33  and  S_34 
REMARK   12  A    between atoms: S_34  and  C_35 
ROOT
HETATM    1  C   UNL     1      39.681 -12.408   5.580  1.00  0.00     0.167 C 
ENDROOT
BRANCH   1   2
HETATM    2  C   UNL     1      39.466 -11.073   4.795  1.00  0.00     0.124 C 
BRANCH   2   3
HETATM    3  N   UNL     1      40.079  -9.944   5.519  1.00  0.00    -0.349 N 
HETATM    4  C   UNL     1      39.333  -8.850   5.906  1.00  0.00     0.252 C 
HETATM    5  O   UNL     1      38.117  -8.803   5.769  1.00  0.00    -0.268 OA
HETATM    6  H   UNL     1      41.091  -9.861   5.543  1.00  0.00     0.163 HD
BRANCH   4   7
HETATM    7  C   UNL     1      40.100  -7.723   6.502  1.00  0.00     0.040 A 
HETATM    8  C   UNL     1      40.225  -7.582   7.902  1.00  0.00    -0.013 A 
HETATM    9  C   UNL     1      39.547  -8.535   8.848  1.00  0.00     0.052 C 
HETATM   10  C   UNL     1      41.018  -6.526   8.375  1.00  0.00     0.072 A 
HETATM   11  C   UNL     1      41.616  -5.614   7.505  1.00  0.00     0.037 A 
HETATM   12  C   UNL     1      41.466  -5.755   6.129  1.00  0.00     0.004 A 
HETATM   13  C   UNL     1      40.719  -6.815   5.626  1.00  0.00     0.018 A 
BRANCH  10  14
HETATM   14  O   UNL     1      41.263  -6.311   9.701  1.00  0.00    -0.360 OA
HETATM   15  H   UNL     1      42.082  -6.758   9.967  1.00  0.00     0.217 HD
ENDBRANCH  10  14
ENDBRANCH   4   7
ENDBRANCH   2   3
BRANCH   2  16
HETATM   16  C   UNL     1      39.985 -11.078   3.347  1.00  0.00     0.107 C 
BRANCH  16  17
HETATM   17  S   UNL     1      38.644 -10.811   2.137  1.00  0.00    -0.128 SA
BRANCH  17  18
HETATM   18  C   UNL     1      39.046 -12.133   1.008  1.00  0.00     0.000 A 
HETATM   19  C   UNL     1      39.794 -13.225   1.455  1.00  0.00     0.018 A 
HETATM   20  C   UNL     1      40.132 -14.252   0.570  1.00  0.00     0.001 A 
HETATM   21  C   UNL     1      39.719 -14.193  -0.760  1.00  0.00     0.000 A 
HETATM   22  C   UNL     1      38.962 -13.112  -1.207  1.00  0.00     0.001 A 
HETATM   23  C   UNL     1      38.622 -12.085  -0.324  1.00  0.00     0.018 A 
ENDBRANCH  17  18
ENDBRANCH  16  17
ENDBRANCH   2  16
ENDBRANCH   1   2
BRANCH   1  24
HETATM   24  O   UNL     1      39.590 -12.306   7.013  1.00  0.00    -0.392 OA
HETATM   25  H   UNL     1      38.797 -12.803   7.313  1.00  0.00     0.210 HD
ENDBRANCH   1  24
BRANCH   1  26
HETATM   26  C   UNL     1      41.035 -13.076   5.251  1.00  0.00     0.269 C 
BRANCH  26  27
HETATM   27  N   UNL     1      41.461 -13.924   6.457  1.00  0.00    -0.055 N 
HETATM   28  H   UNL     1      41.154 -13.310   7.239  1.00  0.00     0.281 HD
HETATM   29  C   UNL     1      42.971 -14.082   6.679  1.00  0.00     0.279 C 
HETATM   30  C   UNL     1      43.507 -15.026   5.607  1.00  0.00     0.048 C 
HETATM   31  C   UNL     1      42.835 -16.406   5.722  1.00  0.00    -0.006 C 
HETATM   32  C   UNL     1      41.295 -16.350   5.736  1.00  0.00     0.016 C 
HETATM   33  C   UNL     1      43.326 -17.387   4.654  1.00  0.00     0.005 C 
HETATM   34  C   UNL     1      40.730 -15.223   6.618  1.00  0.00     0.241 C 
HETATM   35  C   UNL     1      40.649 -16.449   4.337  1.00  0.00     0.007 C 
HETATM   36  C   UNL     1      41.596 -16.219   3.164  1.00  0.00     0.000 C 
HETATM   37  C   UNL     1      42.878 -17.040   3.238  1.00  0.00     0.000 C 
BRANCH  29  38
HETATM   38  C   UNL     1      43.683 -12.714   6.827  1.00  0.00     0.249 C 
HETATM   39  N   UNL     1      43.558 -12.082   8.044  1.00  0.00    -0.351 N 
HETATM   40  H   UNL     1      42.855 -12.420   8.690  1.00  0.00     0.163 HD
HETATM   41  O   UNL     1      44.275 -12.240   5.857  1.00  0.00    -0.271 OA
BRANCH  39  42
HETATM   42  C   UNL     1      44.048 -10.721   8.353  1.00  0.00     0.022 C 
HETATM   43  C   UNL     1      43.234  -9.682   7.570  1.00  0.00     0.037 C 
HETATM   44  C   UNL     1      43.841 -10.482   9.861  1.00  0.00     0.037 C 
HETATM   45  C   UNL     1      45.546 -10.564   8.048  1.00  0.00     0.037 C 
ENDBRANCH  39  42
ENDBRANCH  29  38
ENDBRANCH  26  27
ENDBRANCH   1  26
TORSDOF 12
ENDMDL
MODEL 8
REMARK VINA RESULT:      -8.0     16.723     19.462
REMARK  12 active torsions:
REMARK  status: ('A' for Active; 'I' for Inactive)
REMARK    1  A    between atoms: C_3  and  O_4 
REMARK    2  A    between atoms: C_8  and  C_9 
REMARK       I    between atoms: C_9  and  N_10 
REMARK    3  A    between atoms: N_10  and  C_11 
REMARK    4  A    between atoms: C_11  and  C_33 
REMARK    5  A    between atoms: C_11  and  C_12 
REMARK    6  A    between atoms: C_12  and  O_13 
REMARK    7  A    between atoms: C_12  and  C_14 
REMARK    8  A    between atoms: C_14  and  N_15 
REMARK    9  A    between atoms: C_17  and  C_18 
REMARK       I    between atoms: C_18  and  N_19 
REMARK   10  A    between atoms: N_19  and  C_20 
REMARK   11  A    between atoms: C_33  and  S_34 
REMARK   12  A    between atoms: S_34  and  C_35 
ROOT
HETATM    1  C   UNL     1      47.021 -29.069   1.327  1.00  0.00     0.167 C 
ENDROOT
BRANCH   1   2
HETATM    2  C   UNL     1      47.968 -30.112   2.007  1.00  0.00     0.124 C 
BRANCH   2   3
HETATM    3  N   UNL     1      49.143 -30.374   1.156  1.00  0.00    -0.349 N 
HETATM    4  C   UNL     1      49.242 -31.524   0.400  1.00  0.00     0.252 C 
HETATM    5  O   UNL     1      48.323 -32.330   0.311  1.00  0.00    -0.268 OA
HETATM    6  H   UNL     1      49.985 -29.820   1.289  1.00  0.00     0.163 HD
BRANCH   4   7
HETATM    7  C   UNL     1      50.537 -31.728  -0.301  1.00  0.00     0.040 A 
HETATM    8  C   UNL     1      50.872 -30.983  -1.453  1.00  0.00    -0.013 A 
HETATM    9  C   UNL     1      49.912 -29.988  -2.047  1.00  0.00     0.052 C 
HETATM   10  C   UNL     1      52.141 -31.196  -2.012  1.00  0.00     0.072 A 
HETATM   11  C   UNL     1      53.019 -32.147  -1.491  1.00  0.00     0.037 A 
HETATM   12  C   UNL     1      52.666 -32.887  -0.368  1.00  0.00     0.004 A 
HETATM   13  C   UNL     1      51.431 -32.671   0.236  1.00  0.00     0.018 A 
BRANCH  10  14
HETATM   14  O   UNL     1      52.607 -30.504  -3.093  1.00  0.00    -0.360 OA
HETATM   15  H   UNL     1      52.408 -29.559  -2.996  1.00  0.00     0.217 HD
ENDBRANCH  10  14
ENDBRANCH   4   7
ENDBRANCH   2   3
BRANCH   2  16
HETATM   16  C   UNL     1      48.447 -29.734   3.418  1.00  0.00     0.107 C 
BRANCH  16  17
HETATM   17  S   UNL     1      47.858 -30.913   4.682  1.00  0.00    -0.128 SA
BRANCH  17  18
HETATM   18  C   UNL     1      49.445 -31.474   5.272  1.00  0.00     0.000 A 
HETATM   19  C   UNL     1      50.611 -30.824   4.858  1.00  0.00     0.018 A 
HETATM   20  C   UNL     1      51.858 -31.273   5.297  1.00  0.00     0.001 A 
HETATM   21  C   UNL     1      51.944 -32.368   6.157  1.00  0.00     0.000 A 
HETATM   22  C   UNL     1      50.784 -33.011   6.584  1.00  0.00     0.001 A 
HETATM   23  C   UNL     1      49.536 -32.563   6.145  1.00  0.00     0.018 A 
ENDBRANCH  17  18
ENDBRANCH  16  17
ENDBRANCH   2  16
ENDBRANCH   1   2
BRANCH   1  24
HETATM   24  O   UNL     1      46.295 -28.212   2.226  1.00  0.00    -0.392 OA
HETATM   25  H   UNL     1      46.851 -27.427   2.428  1.00  0.00     0.210 HD
ENDBRANCH   1  24
BRANCH   1  26
HETATM   26  C   UNL     1      45.989 -29.732   0.387  1.00  0.00     0.269 C 
BRANCH  26  27
HETATM   27  N   UNL     1      44.974 -28.665  -0.044  1.00  0.00    -0.055 N 
HETATM   28  H   UNL     1      44.893 -28.114   0.835  1.00  0.00     0.281 HD
HETATM   29  C   UNL     1      43.544 -29.153  -0.311  1.00  0.00     0.279 C 
HETATM   30  C   UNL     1      43.550 -29.927  -1.626  1.00  0.00     0.048 C 
HETATM   31  C   UNL     1      43.993 -29.015  -2.783  1.00  0.00    -0.006 C 
HETATM   32  C   UNL     1      45.327 -28.287  -2.528  1.00  0.00     0.016 C 
HETATM   33  C   UNL     1      44.034 -29.751  -4.126  1.00  0.00     0.005 C 
HETATM   34  C   UNL     1      45.451 -27.717  -1.103  1.00  0.00     0.241 C 
HETATM   35  C   UNL     1      46.570 -29.061  -3.015  1.00  0.00     0.007 C 
HETATM   36  C   UNL     1      46.340 -30.537  -3.325  1.00  0.00     0.000 C 
HETATM   37  C   UNL     1      45.141 -30.795  -4.230  1.00  0.00     0.000 C 
BRANCH  29  38
HETATM   38  C   UNL     1      42.935 -29.869   0.921  1.00  0.00     0.249 C 
HETATM   39  N   UNL     1      42.691 -31.218   0.792  1.00  0.00    -0.351 N 
HETATM   40  H   UNL     1      42.715 -31.623  -0.136  1.00  0.00     0.163 HD
HETATM   41  O   UNL     1      42.657 -29.206   1.921  1.00  0.00    -0.271 OA
BRANCH  39  42
HETATM   42  C   UNL     1      42.000 -32.059   1.794  1.00  0.00     0.022 C 
HETATM   43  C   UNL     1      40.567 -31.553   2.004  1.00  0.00     0.037 C 
HETATM   44  C   UNL     1      41.944 -33.495   1.238  1.00  0.00     0.037 C 
HETATM   45  C   UNL     1      42.754 -32.097   3.133  1.00  0.00     0.037 C 
ENDBRANCH  39  42
ENDBRANCH  29  38
ENDBRANCH  26  27
ENDBRANCH   1  26
TORSDOF 12
ENDMDL
MODEL 9
REMARK VINA RESULT:      -7.8      2.853      6.533
REMARK  12 active torsions:
REMARK  status: ('A' for Active; 'I' for Inactive)
REMARK    1  A    between atoms: C_3  and  O_4 
REMARK    2  A    between atoms: C_8  and  C_9 
REMARK       I    between atoms: C_9  and  N_10 
REMARK    3  A    between atoms: N_10  and  C_11 
REMARK    4  A    between atoms: C_11  and  C_33 
REMARK    5  A    between atoms: C_11  and  C_12 
REMARK    6  A    between atoms: C_12  and  O_13 
REMARK    7  A    between atoms: C_12  and  C_14 
REMARK    8  A    between atoms: C_14  and  N_15 
REMARK    9  A    between atoms: C_17  and  C_18 
REMARK       I    between atoms: C_18  and  N_19 
REMARK   10  A    between atoms: N_19  and  C_20 
REMARK   11  A    between atoms: C_33  and  S_34 
REMARK   12  A    between atoms: S_34  and  C_35 
ROOT
HETATM    1  C   UNL     1      41.983 -11.101   2.671  1.00  0.00     0.167 C 
ENDROOT
BRANCH   1   2
HETATM    2  C   UNL     1      41.260 -10.287   3.793  1.00  0.00     0.124 C 
BRANCH   2   3
HETATM    3  N   UNL     1      42.192  -9.990   4.897  1.00  0.00    -0.349 N 
HETATM    4  C   UNL     1      41.860 -10.255   6.209  1.00  0.00     0.252 C 
HETATM    5  O   UNL     1      40.831 -10.845   6.518  1.00  0.00    -0.268 OA
HETATM    6  H   UNL     1      42.991  -9.386   4.722  1.00  0.00     0.163 HD
BRANCH   4   7
HETATM    7  C   UNL     1      42.830  -9.780   7.231  1.00  0.00     0.040 A 
HETATM    8  C   UNL     1      43.841 -10.629   7.733  1.00  0.00    -0.013 A 
HETATM    9  C   UNL     1      43.947 -12.063   7.292  1.00  0.00     0.052 C 
HETATM   10  C   UNL     1      44.751 -10.077   8.647  1.00  0.00     0.072 A 
HETATM   11  C   UNL     1      44.633  -8.760   9.091  1.00  0.00     0.037 A 
HETATM   12  C   UNL     1      43.619  -7.942   8.602  1.00  0.00     0.004 A 
HETATM   13  C   UNL     1      42.724  -8.446   7.664  1.00  0.00     0.018 A 
BRANCH  10  14
HETATM   14  O   UNL     1      45.804 -10.774   9.167  1.00  0.00    -0.360 OA
HETATM   15  H   UNL     1      45.684 -10.898  10.121  1.00  0.00     0.217 HD
ENDBRANCH  10  14
ENDBRANCH   4   7
ENDBRANCH   2   3
BRANCH   2  16
HETATM   16  C   UNL     1      40.604  -8.977   3.327  1.00  0.00     0.107 C 
BRANCH  16  17
HETATM   17  S   UNL     1      38.947  -8.741   4.060  1.00  0.00    -0.128 SA
BRANCH  17  18
HETATM   18  C   UNL     1      37.969  -9.272   2.665  1.00  0.00     0.000 A 
HETATM   19  C   UNL     1      37.199  -8.342   1.962  1.00  0.00     0.018 A 
HETATM   20  C   UNL     1      36.413  -8.755   0.884  1.00  0.00     0.001 A 
HETATM   21  C   UNL     1      36.398 -10.096   0.503  1.00  0.00     0.000 A 
HETATM   22  C   UNL     1      37.175 -11.025   1.193  1.00  0.00     0.001 A 
HETATM   23  C   UNL     1      37.962 -10.613   2.270  1.00  0.00     0.018 A 
ENDBRANCH  17  18
ENDBRANCH  16  17
ENDBRANCH   2  16
ENDBRANCH   1   2
BRANCH   1  24
HETATM   24  O   UNL     1      42.337 -10.353   1.492  1.00  0.00    -0.392 OA
HETATM   25  H   UNL     1      42.973  -9.649   1.747  1.00  0.00     0.210 HD
ENDBRANCH   1  24
BRANCH   1  26
HETATM   26  C   UNL     1      41.166 -12.328   2.210  1.00  0.00     0.269 C 
BRANCH  26  27
HETATM   27  N   UNL     1      42.145 -13.413   1.741  1.00  0.00    -0.055 N 
HETATM   28  H   UNL     1      42.550 -12.953   0.900  1.00  0.00     0.281 HD
HETATM   29  C   UNL     1      41.522 -14.704   1.196  1.00  0.00     0.279 C 
HETATM   30  C   UNL     1      40.952 -15.485   2.377  1.00  0.00     0.048 C 
HETATM   31  C   UNL     1      42.070 -15.847   3.370  1.00  0.00    -0.006 C 
HETATM   32  C   UNL     1      42.919 -14.643   3.821  1.00  0.00     0.016 C 
HETATM   33  C   UNL     1      41.546 -16.618   4.585  1.00  0.00     0.005 C 
HETATM   34  C   UNL     1      43.288 -13.689   2.671  1.00  0.00     0.241 C 
HETATM   35  C   UNL     1      42.387 -13.938   5.088  1.00  0.00     0.007 C 
HETATM   36  C   UNL     1      40.954 -14.287   5.476  1.00  0.00     0.000 C 
HETATM   37  C   UNL     1      40.678 -15.786   5.523  1.00  0.00     0.000 C 
BRANCH  29  38
HETATM   38  C   UNL     1      40.564 -14.431   0.009  1.00  0.00     0.249 C 
HETATM   39  N   UNL     1      41.005 -13.545  -0.948  1.00  0.00    -0.351 N 
HETATM   40  H   UNL     1      41.809 -12.968  -0.733  1.00  0.00     0.163 HD
HETATM   41  O   UNL     1      39.457 -14.969  -0.001  1.00  0.00    -0.271 OA
BRANCH  39  42
HETATM   42  C   UNL     1      40.202 -13.051  -2.087  1.00  0.00     0.022 C 
HETATM   43  C   UNL     1      41.101 -12.288  -3.069  1.00  0.00     0.037 C 
HETATM   44  C   UNL     1      39.609 -14.277  -2.807  1.00  0.00     0.037 C 
HETATM   45  C   UNL     1      39.038 -12.160  -1.629  1.00  0.00     0.037 C 
ENDBRANCH  39  42
ENDBRANCH  29  38
ENDBRANCH  26  27
ENDBRANCH   1  26
TORSDOF 12
ENDMDL
MODEL 10
REMARK VINA RESULT:      -7.8     16.728     19.010
REMARK  12 active torsions:
REMARK  status: ('A' for Active; 'I' for Inactive)
REMARK    1  A    between atoms: C_3  and  O_4 
REMARK    2  A    between atoms: C_8  and  C_9 
REMARK       I    between atoms: C_9  and  N_10 
REMARK    3  A    between atoms: N_10  and  C_11 
REMARK    4  A    between atoms: C_11  and  C_33 
REMARK    5  A    between atoms: C_11  and  C_12 
REMARK    6  A    between atoms: C_12  and  O_13 
REMARK    7  A    between atoms: C_12  and  C_14 
REMARK    8  A    between atoms: C_14  and  N_15 
REMARK    9  A    between atoms: C_17  and  C_18 
REMARK       I    between atoms: C_18  and  N_19 
REMARK   10  A    between atoms: N_19  and  C_20 
REMARK   11  A    between atoms: C_33  and  S_34 
REMARK   12  A    between atoms: S_34  and  C_35 
ROOT
HETATM    1  C   UNL     1      46.931 -28.600   1.027  1.00  0.00     0.167 C 
ENDROOT
BRANCH   1   2
HETATM    2  C   UNL     1      48.366 -29.182   1.250  1.00  0.00     0.124 C 
BRANCH   2   3
HETATM    3  N   UNL     1      48.360 -30.159   2.354  1.00  0.00    -0.349 N 
HETATM    4  C   UNL     1      48.653 -29.783   3.648  1.00  0.00     0.252 C 
HETATM    5  O   UNL     1      48.826 -28.612   3.967  1.00  0.00    -0.268 OA
HETATM    6  H   UNL     1      48.359 -31.152   2.138  1.00  0.00     0.163 HD
BRANCH   4   7
HETATM    7  C   UNL     1      48.749 -30.889   4.638  1.00  0.00     0.040 A 
HETATM    8  C   UNL     1      50.001 -31.405   5.041  1.00  0.00    -0.013 A 
HETATM    9  C   UNL     1      51.285 -30.892   4.449  1.00  0.00     0.052 C 
HETATM   10  C   UNL     1      49.999 -32.404   6.025  1.00  0.00     0.072 A 
HETATM   11  C   UNL     1      48.810 -32.914   6.548  1.00  0.00     0.037 A 
HETATM   12  C   UNL     1      47.585 -32.409   6.126  1.00  0.00     0.004 A 
HETATM   13  C   UNL     1      47.552 -31.389   5.180  1.00  0.00     0.018 A 
BRANCH  10  14
HETATM   14  O   UNL     1      51.141 -32.949   6.539  1.00  0.00    -0.360 OA
HETATM   15  H   UNL     1      51.884 -32.801   5.934  1.00  0.00     0.217 HD
ENDBRANCH  10  14
ENDBRANCH   4   7
ENDBRANCH   2   3
BRANCH   2  16
HETATM   16  C   UNL     1      49.005 -29.831   0.011  1.00  0.00     0.107 C 
BRANCH  16  17
HETATM   17  S   UNL     1      49.235 -31.630   0.221  1.00  0.00    -0.128 SA
BRANCH  17  18
HETATM   18  C   UNL     1      50.794 -31.794  -0.632  1.00  0.00     0.000 A 
HETATM   19  C   UNL     1      51.043 -31.032  -1.777  1.00  0.00     0.018 A 
HETATM   20  C   UNL     1      52.251 -31.173  -2.463  1.00  0.00     0.001 A 
HETATM   21  C   UNL     1      53.216 -32.069  -2.004  1.00  0.00     0.000 A 
HETATM   22  C   UNL     1      52.978 -32.820  -0.854  1.00  0.00     0.001 A 
HETATM   23  C   UNL     1      51.770 -32.680  -0.168  1.00  0.00     0.018 A 
ENDBRANCH  17  18
ENDBRANCH  16  17
ENDBRANCH   2  16
ENDBRANCH   1   2
BRANCH   1  24
HETATM   24  O   UNL     1      46.389 -27.848   2.128  1.00  0.00    -0.392 OA
HETATM   25  H   UNL     1      46.489 -26.890   1.933  1.00  0.00     0.210 HD
ENDBRANCH   1  24
BRANCH   1  26
HETATM   26  C   UNL     1      45.901 -29.692   0.663  1.00  0.00     0.269 C 
BRANCH  26  27
HETATM   27  N   UNL     1      44.632 -29.003   0.141  1.00  0.00    -0.055 N 
HETATM   28  H   UNL     1      44.285 -28.558   1.014  1.00  0.00     0.281 HD
HETATM   29  C   UNL     1      43.485 -29.926  -0.289  1.00  0.00     0.279 C 
HETATM   30  C   UNL     1      43.879 -30.583  -1.608  1.00  0.00     0.048 C 
HETATM   31  C   UNL     1      44.100 -29.516  -2.695  1.00  0.00    -0.006 C 
HETATM   32  C   UNL     1      45.078 -28.399  -2.282  1.00  0.00     0.016 C 
HETATM   33  C   UNL     1      44.516 -30.124  -4.037  1.00  0.00     0.005 C 
HETATM   34  C   UNL     1      44.863 -27.897  -0.844  1.00  0.00     0.241 C 
HETATM   35  C   UNL     1      46.550 -28.688  -2.644  1.00  0.00     0.007 C 
HETATM   36  C   UNL     1      46.863 -30.137  -3.002  1.00  0.00     0.000 C 
HETATM   37  C   UNL     1      45.915 -30.733  -4.037  1.00  0.00     0.000 C 
BRANCH  29  38
HETATM   38  C   UNL     1      43.036 -30.868   0.857  1.00  0.00     0.249 C 
HETATM   39  N   UNL     1      42.339 -30.290   1.894  1.00  0.00    -0.351 N 
HETATM   40  H   UNL     1      42.340 -29.280   1.967  1.00  0.00     0.163 HD
HETATM   41  O   UNL     1      43.357 -32.056   0.814  1.00  0.00    -0.271 OA
BRANCH  39  42
HETATM   42  C   UNL     1      41.933 -30.979   3.137  1.00  0.00     0.022 C 
HETATM   43  C   UNL     1      41.421 -29.955   4.160  1.00  0.00     0.037 C 
HETATM   44  C   UNL     1      40.785 -31.943   2.783  1.00  0.00     0.037 C 
HETATM   45  C   UNL     1      43.080 -31.806   3.740  1.00  0.00     0.037 C 
ENDBRANCH  39  42
ENDBRANCH  29  38
ENDBRANCH  26  27
ENDBRANCH   1  26
TORSDOF 12
ENDMDL
