MODEL 1
REMARK VINA RESULT:      -9.6      0.000      0.000
REMARK  7 active torsions:
REMARK  status: ('A' for Active; 'I' for Inactive)
REMARK    1  A    between atoms: N_6  and  C_7 
REMARK    2  A    between atoms: C_9  and  N_10 
REMARK    3  A    between atoms: N_10  and  N_11 
REMARK    4  A    between atoms: C_12  and  C_13 
REMARK    5  A    between atoms: C_24  and  N_25 
REMARK    6  A    between atoms: N_25  and  C_26 
REMARK    7  A    between atoms: C_29  and  N_30 
ROOT
HETATM    1  C   UNL     1      42.905 -12.388   5.439  1.00  0.00     0.756 A 
HETATM    2  N   UNL     1      41.654 -12.378   5.023  1.00  0.00     0.133 NA
HETATM    3  C   UNL     1      41.087 -13.557   4.775  1.00  0.00     0.774 A 
HETATM    4  N   UNL     1      41.695 -14.719   4.972  1.00  0.00     0.133 NA
HETATM    5  C   UNL     1      42.918 -14.649   5.477  1.00  0.00     0.758 A 
HETATM    6  N   UNL     1      43.545 -13.505   5.746  1.00  0.00     0.131 NA
ENDROOT
BRANCH   3   7
HETATM    7  N   UNL     1      39.764 -13.617   4.303  1.00  0.00    -0.105 N 
HETATM    8  H   UNL     1      39.429 -14.574   4.398  1.00  0.00     0.208 HD
BRANCH   7   9
HETATM    9  N   UNL     1      39.457 -12.897   3.185  1.00  0.00    -0.171 NA
HETATM   10  C   UNL     1      39.787 -13.454   2.065  1.00  0.00     0.153 C 
BRANCH  10  11
HETATM   11  C   UNL     1      39.541 -12.762   0.817  1.00  0.00     0.011 A 
HETATM   12  C   UNL     1      39.373 -13.292  -0.505  1.00  0.00     0.004 A 
HETATM   13  C   UNL     1      39.149 -12.212  -1.363  1.00  0.00     0.043 A 
HETATM   14  C   UNL     1      39.376 -14.591  -1.060  1.00  0.00     0.014 A 
HETATM   15  C   UNL     1      38.935 -12.365  -2.738  1.00  0.00     0.030 A 
HETATM   16  N   UNL     1      39.178 -11.071  -0.596  1.00  0.00    -0.364 N 
HETATM   17  C   UNL     1      38.943 -13.662  -3.257  1.00  0.00     0.002 A 
HETATM   18  C   UNL     1      39.159 -14.763  -2.432  1.00  0.00     0.001 A 
HETATM   19  H   UNL     1      39.037 -10.137  -0.957  1.00  0.00     0.165 HD
HETATM   20  C   UNL     1      39.407 -11.388   0.716  1.00  0.00     0.102 A 
ENDBRANCH  10  11
ENDBRANCH   7   9
ENDBRANCH   3   7
BRANCH   1  21
HETATM   21  N   UNL     1      43.564 -11.165   5.583  1.00  0.00    -0.210 N 
HETATM   22  C   UNL     1      44.920 -11.218   6.139  1.00  0.00     0.169 C 
HETATM   23  C   UNL     1      44.870 -11.302   7.678  1.00  0.00     0.254 C 
HETATM   24  N   UNL     1      44.019 -10.155   8.245  1.00  0.00    -0.072 N 
HETATM   25  C   UNL     1      43.968 -10.184   9.741  1.00  0.00     0.269 C 
HETATM   26  H   UNL     1      44.479  -9.279   7.968  1.00  0.00     0.279 HD
HETATM   27  C   UNL     1      42.613 -10.130   7.617  1.00  0.00     0.254 C 
HETATM   28  C   UNL     1      42.727 -10.062   6.078  1.00  0.00     0.169 C 
ENDBRANCH   1  21
BRANCH   5  29
HETATM   29  N   UNL     1      43.558 -15.869   5.685  1.00  0.00    -0.187 N 
HETATM   30  H   UNL     1      44.222 -15.796   6.445  1.00  0.00     0.184 HD
BRANCH  29  31
HETATM   31  C   UNL     1      43.650 -17.021   4.895  1.00  0.00     0.049 A 
HETATM   32  C   UNL     1      43.440 -17.011   3.510  1.00  0.00     0.032 A 
HETATM   33  C   UNL     1      43.511 -18.187   2.756  1.00  0.00     0.038 A 
HETATM   34  C   UNL     1      43.769 -19.402   3.399  1.00  0.00     0.103 A 
HETATM   35  C   UNL     1      43.959 -19.442   4.783  1.00  0.00     0.038 A 
HETATM   36  C   UNL     1      43.896 -18.254   5.520  1.00  0.00     0.032 A 
BRANCH  34  37
HETATM   37  N   UNL     1      43.839 -20.638   2.610  1.00  0.00    -0.116 N 
HETATM   38  O   UNL     1      44.164 -21.676   3.205  1.00  0.00    -0.532 OA
HETATM   39  O   UNL     1      43.575 -20.569   1.403  1.00  0.00    -0.532 OA
ENDBRANCH  34  37
ENDBRANCH  29  31
ENDBRANCH   5  29
TORSDOF 7
ENDMDL
MODEL 2
REMARK VINA RESULT:      -9.6      4.891      8.990
REMARK  7 active torsions:
REMARK  status: ('A' for Active; 'I' for Inactive)
REMARK    1  A    between atoms: N_6  and  C_7 
REMARK    2  A    between atoms: C_9  and  N_10 
REMARK    3  A    between atoms: N_10  and  N_11 
REMARK    4  A    between atoms: C_12  and  C_13 
REMARK    5  A    between atoms: C_24  and  N_25 
REMARK    6  A    between atoms: N_25  and  C_26 
REMARK    7  A    between atoms: C_29  and  N_30 
ROOT
HETATM    1  C   UNL     1      42.935 -10.960   5.830  1.00  0.00     0.756 A 
HETATM    2  N   UNL     1      42.905 -12.278   5.807  1.00  0.00     0.133 NA
HETATM    3  C   UNL     1      43.488 -12.917   6.819  1.00  0.00     0.774 A 
HETATM    4  N   UNL     1      44.045 -12.301   7.852  1.00  0.00     0.133 NA
HETATM    5  C   UNL     1      43.956 -10.979   7.848  1.00  0.00     0.758 A 
HETATM    6  N   UNL     1      43.388 -10.276   6.869  1.00  0.00     0.131 NA
ENDROOT
BRANCH   3   7
HETATM    7  N   UNL     1      43.515 -14.323   6.841  1.00  0.00    -0.105 N 
HETATM    8  H   UNL     1      44.263 -14.622   7.464  1.00  0.00     0.208 HD
BRANCH   7   9
HETATM    9  N   UNL     1      43.308 -14.981   5.664  1.00  0.00    -0.171 NA
HETATM   10  C   UNL     1      43.773 -16.187   5.619  1.00  0.00     0.153 C 
BRANCH  10  11
HETATM   11  C   UNL     1      43.642 -16.965   4.405  1.00  0.00     0.011 A 
HETATM   12  C   UNL     1      43.772 -18.379   4.206  1.00  0.00     0.004 A 
HETATM   13  C   UNL     1      43.542 -18.633   2.852  1.00  0.00     0.043 A 
HETATM   14  C   UNL     1      44.053 -19.477   5.050  1.00  0.00     0.014 A 
HETATM   15  C   UNL     1      43.583 -19.921   2.302  1.00  0.00     0.030 A 
HETATM   16  N   UNL     1      43.280 -17.425   2.250  1.00  0.00    -0.364 N 
HETATM   17  C   UNL     1      43.863 -20.986   3.161  1.00  0.00     0.002 A 
HETATM   18  C   UNL     1      44.093 -20.771   4.517  1.00  0.00     0.001 A 
HETATM   19  H   UNL     1      43.069 -17.311   1.267  1.00  0.00     0.165 HD
HETATM   20  C   UNL     1      43.331 -16.415   3.173  1.00  0.00     0.102 A 
ENDBRANCH  10  11
ENDBRANCH   7   9
ENDBRANCH   3   7
BRANCH   1  21
HETATM   21  N   UNL     1      42.444 -10.268   4.721  1.00  0.00    -0.210 N 
HETATM   22  C   UNL     1      41.128  -9.640   4.877  1.00  0.00     0.169 C 
HETATM   23  C   UNL     1      40.006 -10.673   4.651  1.00  0.00     0.254 C 
HETATM   24  N   UNL     1      40.195 -11.374   3.296  1.00  0.00    -0.072 N 
HETATM   25  C   UNL     1      39.108 -12.367   3.025  1.00  0.00     0.269 C 
HETATM   26  H   UNL     1      40.135 -10.645   2.574  1.00  0.00     0.279 HD
HETATM   27  C   UNL     1      41.596 -12.000   3.174  1.00  0.00     0.254 C 
HETATM   28  C   UNL     1      42.675 -10.924   3.426  1.00  0.00     0.169 C 
ENDBRANCH   1  21
BRANCH   5  29
HETATM   29  N   UNL     1      44.539 -10.330   8.934  1.00  0.00    -0.187 N 
HETATM   30  H   UNL     1      45.549 -10.366   8.868  1.00  0.00     0.184 HD
BRANCH  29  31
HETATM   31  C   UNL     1      44.017  -9.917  10.165  1.00  0.00     0.049 A 
HETATM   32  C   UNL     1      43.666 -10.816  11.181  1.00  0.00     0.032 A 
HETATM   33  C   UNL     1      43.119 -10.369  12.388  1.00  0.00     0.038 A 
HETATM   34  C   UNL     1      42.892  -9.002  12.577  1.00  0.00     0.103 A 
HETATM   35  C   UNL     1      43.213  -8.087  11.570  1.00  0.00     0.038 A 
HETATM   36  C   UNL     1      43.771  -8.551  10.373  1.00  0.00     0.032 A 
BRANCH  34  37
HETATM   37  N   UNL     1      42.313  -8.532  13.842  1.00  0.00    -0.116 N 
HETATM   38  O   UNL     1      41.326  -9.142  14.279  1.00  0.00    -0.532 OA
HETATM   39  O   UNL     1      42.839  -7.555  14.390  1.00  0.00    -0.532 OA
ENDBRANCH  34  37
ENDBRANCH  29  31
ENDBRANCH   5  29
TORSDOF 7
ENDMDL
MODEL 3
REMARK VINA RESULT:      -9.5      1.652      6.879
REMARK  7 active torsions:
REMARK  status: ('A' for Active; 'I' for Inactive)
REMARK    1  A    between atoms: N_6  and  C_7 
REMARK    2  A    between atoms: C_9  and  N_10 
REMARK    3  A    between atoms: N_10  and  N_11 
REMARK    4  A    between atoms: C_12  and  C_13 
REMARK    5  A    between atoms: C_24  and  N_25 
REMARK    6  A    between atoms: N_25  and  C_26 
REMARK    7  A    between atoms: C_29  and  N_30 
ROOT
HETATM    1  C   UNL     1      40.041 -13.338   1.613  1.00  0.00     0.756 A 
HETATM    2  N   UNL     1      39.519 -12.949   2.759  1.00  0.00     0.133 NA
HETATM    3  C   UNL     1      40.134 -13.346   3.871  1.00  0.00     0.774 A 
HETATM    4  N   UNL     1      41.252 -14.059   3.876  1.00  0.00     0.133 NA
HETATM    5  C   UNL     1      41.763 -14.333   2.686  1.00  0.00     0.758 A 
HETATM    6  N   UNL     1      41.201 -13.969   1.535  1.00  0.00     0.131 NA
ENDROOT
BRANCH   3   7
HETATM    7  N   UNL     1      39.615 -12.990   5.128  1.00  0.00    -0.105 N 
HETATM    8  H   UNL     1      38.696 -12.572   4.993  1.00  0.00     0.208 HD
BRANCH   7   9
HETATM    9  N   UNL     1      40.476 -12.454   6.042  1.00  0.00    -0.171 NA
HETATM   10  C   UNL     1      40.813 -11.224   5.824  1.00  0.00     0.153 C 
BRANCH  10  11
HETATM   11  C   UNL     1      41.752 -10.567   6.709  1.00  0.00     0.011 A 
HETATM   12  C   UNL     1      43.167 -10.758   6.847  1.00  0.00     0.004 A 
HETATM   13  C   UNL     1      43.614  -9.874   7.831  1.00  0.00     0.043 A 
HETATM   14  C   UNL     1      44.120 -11.592   6.219  1.00  0.00     0.014 A 
HETATM   15  C   UNL     1      44.956  -9.785   8.220  1.00  0.00     0.030 A 
HETATM   16  N   UNL     1      42.519  -9.171   8.274  1.00  0.00    -0.364 N 
HETATM   17  C   UNL     1      45.875 -10.622   7.582  1.00  0.00     0.002 A 
HETATM   18  C   UNL     1      45.466 -11.513   6.593  1.00  0.00     0.001 A 
HETATM   19  H   UNL     1      42.551  -8.453   8.986  1.00  0.00     0.165 HD
HETATM   20  C   UNL     1      41.395  -9.574   7.604  1.00  0.00     0.102 A 
ENDBRANCH  10  11
ENDBRANCH   7   9
ENDBRANCH   3   7
BRANCH   1  21
HETATM   21  N   UNL     1      39.346 -13.044   0.437  1.00  0.00    -0.210 N 
HETATM   22  C   UNL     1      40.044 -13.331  -0.820  1.00  0.00     0.169 C 
HETATM   23  C   UNL     1      41.010 -12.181  -1.177  1.00  0.00     0.254 C 
HETATM   24  N   UNL     1      40.259 -10.841  -1.184  1.00  0.00    -0.072 N 
HETATM   25  C   UNL     1      41.156  -9.700  -1.553  1.00  0.00     0.269 C 
HETATM   26  H   UNL     1      39.534 -10.910  -1.908  1.00  0.00     0.279 HD
HETATM   27  C   UNL     1      39.527 -10.595   0.148  1.00  0.00     0.254 C 
HETATM   28  C   UNL     1      38.591 -11.783   0.459  1.00  0.00     0.169 C 
ENDBRANCH   1  21
BRANCH   5  29
HETATM   29  N   UNL     1      42.939 -15.082   2.690  1.00  0.00    -0.187 N 
HETATM   30  H   UNL     1      43.648 -14.630   2.126  1.00  0.00     0.184 HD
BRANCH  29  31
HETATM   31  C   UNL     1      43.204 -16.402   3.072  1.00  0.00     0.049 A 
HETATM   32  C   UNL     1      43.716 -16.739   4.332  1.00  0.00     0.032 A 
HETATM   33  C   UNL     1      43.995 -18.067   4.670  1.00  0.00     0.038 A 
HETATM   34  C   UNL     1      43.787 -19.077   3.724  1.00  0.00     0.103 A 
HETATM   35  C   UNL     1      43.298 -18.763   2.452  1.00  0.00     0.038 A 
HETATM   36  C   UNL     1      43.012 -17.430   2.136  1.00  0.00     0.032 A 
BRANCH  34  37
HETATM   37  N   UNL     1      44.085 -20.471   4.074  1.00  0.00    -0.116 N 
HETATM   38  O   UNL     1      44.465 -20.699   5.232  1.00  0.00    -0.532 OA
HETATM   39  O   UNL     1      43.946 -21.330   3.195  1.00  0.00    -0.532 OA
ENDBRANCH  34  37
ENDBRANCH  29  31
ENDBRANCH   5  29
TORSDOF 7
ENDMDL
MODEL 4
REMARK VINA RESULT:      -9.5      3.403      8.626
REMARK  7 active torsions:
REMARK  status: ('A' for Active; 'I' for Inactive)
REMARK    1  A    between atoms: N_6  and  C_7 
REMARK    2  A    between atoms: C_9  and  N_10 
REMARK    3  A    between atoms: N_10  and  N_11 
REMARK    4  A    between atoms: C_12  and  C_13 
REMARK    5  A    between atoms: C_24  and  N_25 
REMARK    6  A    between atoms: N_25  and  C_26 
REMARK    7  A    between atoms: C_29  and  N_30 
ROOT
HETATM    1  C   UNL     1      39.415 -12.055   0.387  1.00  0.00     0.756 A 
HETATM    2  N   UNL     1      39.832 -13.296   0.229  1.00  0.00     0.133 NA
HETATM    3  C   UNL     1      41.024 -13.604   0.736  1.00  0.00     0.774 A 
HETATM    4  N   UNL     1      41.772 -12.752   1.422  1.00  0.00     0.133 NA
HETATM    5  C   UNL     1      41.244 -11.552   1.616  1.00  0.00     0.758 A 
HETATM    6  N   UNL     1      40.060 -11.176   1.137  1.00  0.00     0.131 NA
ENDROOT
BRANCH   3   7
HETATM    7  N   UNL     1      41.541 -14.902   0.578  1.00  0.00    -0.105 N 
HETATM    8  H   UNL     1      41.087 -15.337  -0.223  1.00  0.00     0.208 HD
BRANCH   7   9
HETATM    9  N   UNL     1      41.774 -15.634   1.707  1.00  0.00    -0.171 NA
HETATM   10  C   UNL     1      42.986 -16.066   1.841  1.00  0.00     0.153 C 
BRANCH  10  11
HETATM   11  C   UNL     1      43.337 -16.884   2.983  1.00  0.00     0.011 A 
HETATM   12  C   UNL     1      43.504 -18.306   3.072  1.00  0.00     0.004 A 
HETATM   13  C   UNL     1      43.854 -18.603   4.391  1.00  0.00     0.043 A 
HETATM   14  C   UNL     1      43.405 -19.375   2.154  1.00  0.00     0.014 A 
HETATM   15  C   UNL     1      44.103 -19.907   4.836  1.00  0.00     0.030 A 
HETATM   16  N   UNL     1      43.900 -17.413   5.078  1.00  0.00    -0.364 N 
HETATM   17  C   UNL     1      43.997 -20.944   3.905  1.00  0.00     0.002 A 
HETATM   18  C   UNL     1      43.655 -20.684   2.581  1.00  0.00     0.001 A 
HETATM   19  H   UNL     1      44.136 -17.328   6.058  1.00  0.00     0.165 HD
HETATM   20  C   UNL     1      43.597 -16.372   4.242  1.00  0.00     0.102 A 
ENDBRANCH  10  11
ENDBRANCH   7   9
ENDBRANCH   3   7
BRANCH   1  21
HETATM   21  N   UNL     1      38.229 -11.671  -0.243  1.00  0.00    -0.210 N 
HETATM   22  C   UNL     1      37.886 -12.389  -1.475  1.00  0.00     0.169 C 
HETATM   23  C   UNL     1      38.646 -11.792  -2.678  1.00  0.00     0.254 C 
HETATM   24  N   UNL     1      38.402 -10.278  -2.762  1.00  0.00    -0.072 N 
HETATM   25  C   UNL     1      39.101  -9.664  -3.934  1.00  0.00     0.269 C 
HETATM   26  H   UNL     1      37.392 -10.147  -2.901  1.00  0.00     0.279 HD
HETATM   27  C   UNL     1      38.758  -9.573  -1.440  1.00  0.00     0.254 C 
HETATM   28  C   UNL     1      37.981 -10.222  -0.274  1.00  0.00     0.169 C 
ENDBRANCH   1  21
BRANCH   5  29
HETATM   29  N   UNL     1      42.030 -10.655   2.338  1.00  0.00    -0.187 N 
HETATM   30  H   UNL     1      42.425  -9.955   1.722  1.00  0.00     0.184 HD
BRANCH  29  31
HETATM   31  C   UNL     1      42.568 -10.715   3.628  1.00  0.00     0.049 A 
HETATM   32  C   UNL     1      43.694 -11.485   3.947  1.00  0.00     0.032 A 
HETATM   33  C   UNL     1      44.187 -11.544   5.254  1.00  0.00     0.038 A 
HETATM   34  C   UNL     1      43.530 -10.843   6.270  1.00  0.00     0.103 A 
HETATM   35  C   UNL     1      42.392 -10.085   5.982  1.00  0.00     0.038 A 
HETATM   36  C   UNL     1      41.919 -10.028   4.666  1.00  0.00     0.032 A 
BRANCH  34  37
HETATM   37  N   UNL     1      44.043 -10.908   7.644  1.00  0.00    -0.116 N 
HETATM   38  O   UNL     1      45.104 -11.522   7.828  1.00  0.00    -0.532 OA
HETATM   39  O   UNL     1      43.385 -10.353   8.533  1.00  0.00    -0.532 OA
ENDBRANCH  34  37
ENDBRANCH  29  31
ENDBRANCH   5  29
TORSDOF 7
ENDMDL
MODEL 5
REMARK VINA RESULT:      -9.4      3.018      6.493
REMARK  7 active torsions:
REMARK  status: ('A' for Active; 'I' for Inactive)
REMARK    1  A    between atoms: N_6  and  C_7 
REMARK    2  A    between atoms: C_9  and  N_10 
REMARK    3  A    between atoms: N_10  and  N_11 
REMARK    4  A    between atoms: C_12  and  C_13 
REMARK    5  A    between atoms: C_24  and  N_25 
REMARK    6  A    between atoms: N_25  and  C_26 
REMARK    7  A    between atoms: C_29  and  N_30 
ROOT
HETATM    1  C   UNL     1      44.324 -10.877   7.390  1.00  0.00     0.756 A 
HETATM    2  N   UNL     1      44.020 -12.048   7.914  1.00  0.00     0.133 NA
HETATM    3  C   UNL     1      43.640 -13.008   7.073  1.00  0.00     0.774 A 
HETATM    4  N   UNL     1      43.603 -12.858   5.757  1.00  0.00     0.133 NA
HETATM    5  C   UNL     1      44.010 -11.682   5.302  1.00  0.00     0.758 A 
HETATM    6  N   UNL     1      44.400 -10.678   6.084  1.00  0.00     0.131 NA
ENDROOT
BRANCH   3   7
HETATM    7  N   UNL     1      43.276 -14.273   7.568  1.00  0.00    -0.105 N 
HETATM    8  H   UNL     1      43.351 -14.258   8.583  1.00  0.00     0.208 HD
BRANCH   7   9
HETATM    9  N   UNL     1      43.694 -15.371   6.872  1.00  0.00    -0.171 NA
HETATM   10  C   UNL     1      42.817 -16.316   6.760  1.00  0.00     0.153 C 
BRANCH  10  11
HETATM   11  C   UNL     1      43.165 -17.543   6.074  1.00  0.00     0.011 A 
HETATM   12  C   UNL     1      43.250 -17.811   4.668  1.00  0.00     0.004 A 
HETATM   13  C   UNL     1      43.636 -19.145   4.520  1.00  0.00     0.043 A 
HETATM   14  C   UNL     1      43.048 -17.044   3.498  1.00  0.00     0.014 A 
HETATM   15  C   UNL     1      43.824 -19.749   3.270  1.00  0.00     0.030 A 
HETATM   16  N   UNL     1      43.782 -19.669   5.783  1.00  0.00    -0.364 N 
HETATM   17  C   UNL     1      43.617 -18.965   2.132  1.00  0.00     0.002 A 
HETATM   18  C   UNL     1      43.236 -17.631   2.241  1.00  0.00     0.001 A 
HETATM   19  H   UNL     1      44.064 -20.621   5.977  1.00  0.00     0.165 HD
HETATM   20  C   UNL     1      43.507 -18.714   6.725  1.00  0.00     0.102 A 
ENDBRANCH  10  11
ENDBRANCH   7   9
ENDBRANCH   3   7
BRANCH   1  21
HETATM   21  N   UNL     1      44.601  -9.817   8.257  1.00  0.00    -0.210 N 
HETATM   22  C   UNL     1      45.016 -10.180   9.616  1.00  0.00     0.169 C 
HETATM   23  C   UNL     1      43.784 -10.493  10.492  1.00  0.00     0.254 C 
HETATM   24  N   UNL     1      42.789  -9.324  10.446  1.00  0.00    -0.072 N 
HETATM   25  C   UNL     1      41.591  -9.576  11.306  1.00  0.00     0.269 C 
HETATM   26  H   UNL     1      43.277  -8.504  10.828  1.00  0.00     0.279 HD
HETATM   27  C   UNL     1      42.400  -8.968   8.999  1.00  0.00     0.254 C 
HETATM   28  C   UNL     1      43.671  -8.682   8.170  1.00  0.00     0.169 C 
ENDBRANCH   1  21
BRANCH   5  29
HETATM   29  N   UNL     1      43.971 -11.523   3.917  1.00  0.00    -0.187 N 
HETATM   30  H   UNL     1      44.613 -10.796   3.627  1.00  0.00     0.184 HD
BRANCH  29  31
HETATM   31  C   UNL     1      43.056 -11.959   2.953  1.00  0.00     0.049 A 
HETATM   32  C   UNL     1      42.113 -11.108   2.362  1.00  0.00     0.032 A 
HETATM   33  C   UNL     1      41.193 -11.584   1.422  1.00  0.00     0.038 A 
HETATM   34  C   UNL     1      41.194 -12.941   1.084  1.00  0.00     0.103 A 
HETATM   35  C   UNL     1      42.111 -13.816   1.677  1.00  0.00     0.038 A 
HETATM   36  C   UNL     1      43.031 -13.318   2.606  1.00  0.00     0.032 A 
BRANCH  34  37
HETATM   37  N   UNL     1      40.226 -13.445   0.102  1.00  0.00    -0.116 N 
HETATM   38  O   UNL     1      40.419 -14.579  -0.358  1.00  0.00    -0.532 OA
HETATM   39  O   UNL     1      39.283 -12.707  -0.210  1.00  0.00    -0.532 OA
ENDBRANCH  34  37
ENDBRANCH  29  31
ENDBRANCH   5  29
TORSDOF 7
ENDMDL
MODEL 6
REMARK VINA RESULT:      -9.4      1.077      1.788
REMARK  7 active torsions:
REMARK  status: ('A' for Active; 'I' for Inactive)
REMARK    1  A    between atoms: N_6  and  C_7 
REMARK    2  A    between atoms: C_9  and  N_10 
REMARK    3  A    between atoms: N_10  and  N_11 
REMARK    4  A    between atoms: C_12  and  C_13 
REMARK    5  A    between atoms: C_24  and  N_25 
REMARK    6  A    between atoms: N_25  and  C_26 
REMARK    7  A    between atoms: C_29  and  N_30 
ROOT
HETATM    1  C   UNL     1      42.868 -12.400   5.370  1.00  0.00     0.756 A 
HETATM    2  N   UNL     1      41.634 -12.405   4.906  1.00  0.00     0.133 NA
HETATM    3  C   UNL     1      41.088 -13.591   4.645  1.00  0.00     0.774 A 
HETATM    4  N   UNL     1      41.700 -14.745   4.872  1.00  0.00     0.133 NA
HETATM    5  C   UNL     1      42.901 -14.660   5.423  1.00  0.00     0.758 A 
HETATM    6  N   UNL     1      43.507 -13.509   5.709  1.00  0.00     0.131 NA
ENDROOT
BRANCH   3   7
HETATM    7  N   UNL     1      39.785 -13.666   4.122  1.00  0.00    -0.105 N 
HETATM    8  H   UNL     1      39.182 -14.101   4.818  1.00  0.00     0.208 HD
BRANCH   7   9
HETATM    9  N   UNL     1      39.648 -13.993   2.804  1.00  0.00    -0.171 NA
HETATM   10  C   UNL     1      40.351 -13.280   1.985  1.00  0.00     0.153 C 
BRANCH  10  11
HETATM   11  C   UNL     1      40.254 -13.515   0.560  1.00  0.00     0.011 A 
HETATM   12  C   UNL     1      40.522 -12.627  -0.534  1.00  0.00     0.004 A 
HETATM   13  C   UNL     1      40.289 -13.337  -1.714  1.00  0.00     0.043 A 
HETATM   14  C   UNL     1      40.953 -11.286  -0.639  1.00  0.00     0.014 A 
HETATM   15  C   UNL     1      40.461 -12.775  -2.986  1.00  0.00     0.030 A 
HETATM   16  N   UNL     1      39.898 -14.605  -1.356  1.00  0.00    -0.364 N 
HETATM   17  C   UNL     1      40.889 -11.447  -3.058  1.00  0.00     0.002 A 
HETATM   18  C   UNL     1      41.134 -10.710  -1.902  1.00  0.00     0.001 A 
HETATM   19  H   UNL     1      39.670 -15.340  -2.014  1.00  0.00     0.165 HD
HETATM   20  C   UNL     1      39.878 -14.727   0.008  1.00  0.00     0.102 A 
ENDBRANCH  10  11
ENDBRANCH   7   9
ENDBRANCH   3   7
BRANCH   1  21
HETATM   21  N   UNL     1      43.509 -11.170   5.531  1.00  0.00    -0.210 N 
HETATM   22  C   UNL     1      44.814 -11.198   6.199  1.00  0.00     0.169 C 
HETATM   23  C   UNL     1      44.636 -11.236   7.731  1.00  0.00     0.254 C 
HETATM   24  N   UNL     1      43.738 -10.078   8.190  1.00  0.00    -0.072 N 
HETATM   25  C   UNL     1      43.562 -10.062   9.676  1.00  0.00     0.269 C 
HETATM   26  H   UNL     1      44.217  -9.208   7.926  1.00  0.00     0.279 HD
HETATM   27  C   UNL     1      42.390 -10.079   7.447  1.00  0.00     0.254 C 
HETATM   28  C   UNL     1      42.631 -10.057   5.922  1.00  0.00     0.169 C 
ENDBRANCH   1  21
BRANCH   5  29
HETATM   29  N   UNL     1      43.544 -15.873   5.663  1.00  0.00    -0.187 N 
HETATM   30  H   UNL     1      44.248 -15.764   6.382  1.00  0.00     0.184 HD
BRANCH  29  31
HETATM   31  C   UNL     1      43.587 -17.066   4.933  1.00  0.00     0.049 A 
HETATM   32  C   UNL     1      43.826 -18.312   5.529  1.00  0.00     0.032 A 
HETATM   33  C   UNL     1      43.891 -19.481   4.764  1.00  0.00     0.038 A 
HETATM   34  C   UNL     1      43.743 -19.406   3.376  1.00  0.00     0.103 A 
HETATM   35  C   UNL     1      43.526 -18.172   2.755  1.00  0.00     0.038 A 
HETATM   36  C   UNL     1      43.452 -17.013   3.538  1.00  0.00     0.032 A 
BRANCH  34  37
HETATM   37  N   UNL     1      43.816 -20.631   2.571  1.00  0.00    -0.116 N 
HETATM   38  O   UNL     1      43.485 -20.551   1.379  1.00  0.00    -0.532 OA
HETATM   39  O   UNL     1      44.198 -21.667   3.130  1.00  0.00    -0.532 OA
ENDBRANCH  34  37
ENDBRANCH  29  31
ENDBRANCH   5  29
TORSDOF 7
ENDMDL
MODEL 7
REMARK VINA RESULT:      -9.4      3.240      8.672
REMARK  7 active torsions:
REMARK  status: ('A' for Active; 'I' for Inactive)
REMARK    1  A    between atoms: N_6  and  C_7 
REMARK    2  A    between atoms: C_9  and  N_10 
REMARK    3  A    between atoms: N_10  and  N_11 
REMARK    4  A    between atoms: C_12  and  C_13 
REMARK    5  A    between atoms: C_24  and  N_25 
REMARK    6  A    between atoms: N_25  and  C_26 
REMARK    7  A    between atoms: C_29  and  N_30 
ROOT
HETATM    1  C   UNL     1      40.205 -13.249  -0.738  1.00  0.00     0.756 A 
HETATM    2  N   UNL     1      40.073 -14.500  -0.346  1.00  0.00     0.133 NA
HETATM    3  C   UNL     1      40.297 -14.760   0.940  1.00  0.00     0.774 A 
HETATM    4  N   UNL     1      40.592 -13.829   1.836  1.00  0.00     0.133 NA
HETATM    5  C   UNL     1      40.618 -12.584   1.383  1.00  0.00     0.758 A 
HETATM    6  N   UNL     1      40.406 -12.253   0.110  1.00  0.00     0.131 NA
ENDROOT
BRANCH   3   7
HETATM    7  N   UNL     1      40.200 -16.079   1.419  1.00  0.00    -0.105 N 
HETATM    8  H   UNL     1      39.262 -16.425   1.227  1.00  0.00     0.208 HD
BRANCH   7   9
HETATM    9  N   UNL     1      40.800 -16.367   2.611  1.00  0.00    -0.171 NA
HETATM   10  C   UNL     1      42.055 -16.673   2.534  1.00  0.00     0.153 C 
BRANCH  10  11
HETATM   11  C   UNL     1      42.783 -17.033   3.733  1.00  0.00     0.011 A 
HETATM   12  C   UNL     1      42.762 -16.426   5.032  1.00  0.00     0.004 A 
HETATM   13  C   UNL     1      43.633 -17.153   5.847  1.00  0.00     0.043 A 
HETATM   14  C   UNL     1      42.077 -15.330   5.603  1.00  0.00     0.014 A 
HETATM   15  C   UNL     1      43.854 -16.840   7.193  1.00  0.00     0.030 A 
HETATM   16  N   UNL     1      44.161 -18.164   5.078  1.00  0.00    -0.364 N 
HETATM   17  C   UNL     1      43.162 -15.752   7.731  1.00  0.00     0.002 A 
HETATM   18  C   UNL     1      42.283 -15.006   6.950  1.00  0.00     0.001 A 
HETATM   19  H   UNL     1      44.820 -18.853   5.415  1.00  0.00     0.165 HD
HETATM   20  C   UNL     1      43.654 -18.106   3.807  1.00  0.00     0.102 A 
ENDBRANCH  10  11
ENDBRANCH   7   9
ENDBRANCH   3   7
BRANCH   1  21
HETATM   21  N   UNL     1      40.102 -12.969  -2.103  1.00  0.00    -0.210 N 
HETATM   22  C   UNL     1      40.138 -11.552  -2.481  1.00  0.00     0.169 C 
HETATM   23  C   UNL     1      38.746 -10.911  -2.307  1.00  0.00     0.254 C 
HETATM   24  N   UNL     1      37.689 -11.723  -3.071  1.00  0.00    -0.072 N 
HETATM   25  C   UNL     1      36.325 -11.117  -2.950  1.00  0.00     0.269 C 
HETATM   26  H   UNL     1      37.952 -11.695  -4.064  1.00  0.00     0.279 HD
HETATM   27  C   UNL     1      37.703 -13.205  -2.653  1.00  0.00     0.254 C 
HETATM   28  C   UNL     1      39.122 -13.786  -2.833  1.00  0.00     0.169 C 
ENDBRANCH   1  21
BRANCH   5  29
HETATM   29  N   UNL     1      40.928 -11.604   2.324  1.00  0.00    -0.187 N 
HETATM   30  H   UNL     1      40.552 -10.708   2.039  1.00  0.00     0.184 HD
BRANCH  29  31
HETATM   31  C   UNL     1      41.850 -11.579   3.376  1.00  0.00     0.049 A 
HETATM   32  C   UNL     1      43.231 -11.704   3.179  1.00  0.00     0.032 A 
HETATM   33  C   UNL     1      44.122 -11.704   4.257  1.00  0.00     0.038 A 
HETATM   34  C   UNL     1      43.625 -11.604   5.561  1.00  0.00     0.103 A 
HETATM   35  C   UNL     1      42.249 -11.500   5.785  1.00  0.00     0.038 A 
HETATM   36  C   UNL     1      41.373 -11.490   4.693  1.00  0.00     0.032 A 
BRANCH  34  37
HETATM   37  N   UNL     1      44.557 -11.609   6.694  1.00  0.00    -0.116 N 
HETATM   38  O   UNL     1      44.161 -12.111   7.756  1.00  0.00    -0.532 OA
HETATM   39  O   UNL     1      45.676 -11.109   6.524  1.00  0.00    -0.532 OA
ENDBRANCH  34  37
ENDBRANCH  29  31
ENDBRANCH   5  29
TORSDOF 7
ENDMDL
MODEL 8
REMARK VINA RESULT:      -9.4      3.238      8.509
REMARK  7 active torsions:
REMARK  status: ('A' for Active; 'I' for Inactive)
REMARK    1  A    between atoms: N_6  and  C_7 
REMARK    2  A    between atoms: C_9  and  N_10 
REMARK    3  A    between atoms: N_10  and  N_11 
REMARK    4  A    between atoms: C_12  and  C_13 
REMARK    5  A    between atoms: C_24  and  N_25 
REMARK    6  A    between atoms: N_25  and  C_26 
REMARK    7  A    between atoms: C_29  and  N_30 
ROOT
HETATM    1  C   UNL     1      39.987 -11.744  -0.280  1.00  0.00     0.756 A 
HETATM    2  N   UNL     1      39.612 -12.940   0.131  1.00  0.00     0.133 NA
HETATM    3  C   UNL     1      39.930 -13.281   1.378  1.00  0.00     0.774 A 
HETATM    4  N   UNL     1      40.550 -12.471   2.224  1.00  0.00     0.133 NA
HETATM    5  C   UNL     1      40.813 -11.256   1.767  1.00  0.00     0.758 A 
HETATM    6  N   UNL     1      40.525 -10.848   0.533  1.00  0.00     0.131 NA
ENDROOT
BRANCH   3   7
HETATM    7  N   UNL     1      39.583 -14.552   1.869  1.00  0.00    -0.105 N 
HETATM    8  H   UNL     1      38.578 -14.575   2.027  1.00  0.00     0.208 HD
BRANCH   7   9
HETATM    9  N   UNL     1      40.426 -15.134   2.771  1.00  0.00    -0.171 NA
HETATM   10  C   UNL     1      41.402 -15.809   2.255  1.00  0.00     0.153 C 
BRANCH  10  11
HETATM   11  C   UNL     1      42.336 -16.500   3.119  1.00  0.00     0.011 A 
HETATM   12  C   UNL     1      42.857 -17.833   3.023  1.00  0.00     0.004 A 
HETATM   13  C   UNL     1      43.732 -18.018   4.095  1.00  0.00     0.043 A 
HETATM   14  C   UNL     1      42.679 -18.903   2.117  1.00  0.00     0.014 A 
HETATM   15  C   UNL     1      44.431 -19.213   4.309  1.00  0.00     0.030 A 
HETATM   16  N   UNL     1      43.746 -16.847   4.815  1.00  0.00    -0.364 N 
HETATM   17  C   UNL     1      44.235 -20.253   3.397  1.00  0.00     0.002 A 
HETATM   18  C   UNL     1      43.373 -20.103   2.314  1.00  0.00     0.001 A 
HETATM   19  H   UNL     1      44.303 -16.694   5.646  1.00  0.00     0.165 HD
HETATM   20  C   UNL     1      42.916 -15.925   4.236  1.00  0.00     0.102 A 
ENDBRANCH  10  11
ENDBRANCH   7   9
ENDBRANCH   3   7
BRANCH   1  21
HETATM   21  N   UNL     1      39.781 -11.410  -1.620  1.00  0.00    -0.210 N 
HETATM   22  C   UNL     1      38.385 -11.270  -2.047  1.00  0.00     0.169 C 
HETATM   23  C   UNL     1      37.774 -12.651  -2.362  1.00  0.00     0.254 C 
HETATM   24  N   UNL     1      38.653 -13.402  -3.374  1.00  0.00    -0.072 N 
HETATM   25  C   UNL     1      38.080 -14.739  -3.728  1.00  0.00     0.269 C 
HETATM   26  H   UNL     1      38.669 -12.835  -4.231  1.00  0.00     0.279 HD
HETATM   27  C   UNL     1      40.111 -13.506  -2.890  1.00  0.00     0.254 C 
HETATM   28  C   UNL     1      40.661 -12.098  -2.576  1.00  0.00     0.169 C 
ENDBRANCH   1  21
BRANCH   5  29
HETATM   29  N   UNL     1      41.465 -10.403   2.657  1.00  0.00    -0.187 N 
HETATM   30  H   UNL     1      41.550  -9.476   2.260  1.00  0.00     0.184 HD
BRANCH  29  31
HETATM   31  C   UNL     1      42.228 -10.656   3.803  1.00  0.00     0.049 A 
HETATM   32  C   UNL     1      41.885 -10.160   5.068  1.00  0.00     0.032 A 
HETATM   33  C   UNL     1      42.686 -10.408   6.186  1.00  0.00     0.038 A 
HETATM   34  C   UNL     1      43.868 -11.142   6.037  1.00  0.00     0.103 A 
HETATM   35  C   UNL     1      44.244 -11.628   4.781  1.00  0.00     0.038 A 
HETATM   36  C   UNL     1      43.423 -11.380   3.675  1.00  0.00     0.032 A 
BRANCH  34  37
HETATM   37  N   UNL     1      44.714 -11.399   7.209  1.00  0.00    -0.116 N 
HETATM   38  O   UNL     1      44.163 -11.857   8.220  1.00  0.00    -0.532 OA
HETATM   39  O   UNL     1      45.920 -11.138   7.119  1.00  0.00    -0.532 OA
ENDBRANCH  34  37
ENDBRANCH  29  31
ENDBRANCH   5  29
TORSDOF 7
ENDMDL
MODEL 9
REMARK VINA RESULT:      -9.3      2.257      7.898
REMARK  7 active torsions:
REMARK  status: ('A' for Active; 'I' for Inactive)
REMARK    1  A    between atoms: N_6  and  C_7 
REMARK    2  A    between atoms: C_9  and  N_10 
REMARK    3  A    between atoms: N_10  and  N_11 
REMARK    4  A    between atoms: C_12  and  C_13 
REMARK    5  A    between atoms: C_24  and  N_25 
REMARK    6  A    between atoms: N_25  and  C_26 
REMARK    7  A    between atoms: C_29  and  N_30 
ROOT
HETATM    1  C   UNL     1      40.369 -13.269  -1.076  1.00  0.00     0.756 A 
HETATM    2  N   UNL     1      40.885 -12.168  -0.568  1.00  0.00     0.133 NA
HETATM    3  C   UNL     1      41.145 -12.165   0.738  1.00  0.00     0.774 A 
HETATM    4  N   UNL     1      40.958 -13.216   1.524  1.00  0.00     0.133 NA
HETATM    5  C   UNL     1      40.521 -14.312   0.924  1.00  0.00     0.758 A 
HETATM    6  N   UNL     1      40.240 -14.385  -0.376  1.00  0.00     0.131 NA
ENDROOT
BRANCH   3   7
HETATM    7  N   UNL     1      41.671 -11.014   1.348  1.00  0.00    -0.105 N 
HETATM    8  H   UNL     1      42.558 -10.786   0.901  1.00  0.00     0.208 HD
BRANCH   7   9
HETATM    9  N   UNL     1      41.544 -10.899   2.702  1.00  0.00    -0.171 NA
HETATM   10  C   UNL     1      42.641 -11.047   3.372  1.00  0.00     0.153 C 
BRANCH  10  11
HETATM   11  C   UNL     1      42.617 -10.983   4.818  1.00  0.00     0.011 A 
HETATM   12  C   UNL     1      43.699 -11.057   5.755  1.00  0.00     0.004 A 
HETATM   13  C   UNL     1      43.154 -10.933   7.035  1.00  0.00     0.043 A 
HETATM   14  C   UNL     1      45.100 -11.206   5.642  1.00  0.00     0.014 A 
HETATM   15  C   UNL     1      43.931 -10.955   8.199  1.00  0.00     0.030 A 
HETATM   16  N   UNL     1      41.795 -10.787   6.885  1.00  0.00    -0.364 N 
HETATM   17  C   UNL     1      45.313 -11.103   8.055  1.00  0.00     0.002 A 
HETATM   18  C   UNL     1      45.893 -11.225   6.796  1.00  0.00     0.001 A 
HETATM   19  H   UNL     1      41.145 -10.670   7.651  1.00  0.00     0.165 HD
HETATM   20  C   UNL     1      41.460 -10.810   5.557  1.00  0.00     0.102 A 
ENDBRANCH  10  11
ENDBRANCH   7   9
ENDBRANCH   3   7
BRANCH   1  21
HETATM   21  N   UNL     1      39.969 -13.256  -2.414  1.00  0.00    -0.210 N 
HETATM   22  C   UNL     1      40.073 -11.970  -3.112  1.00  0.00     0.169 C 
HETATM   23  C   UNL     1      38.848 -11.085  -2.801  1.00  0.00     0.254 C 
HETATM   24  N   UNL     1      37.551 -11.847  -3.111  1.00  0.00    -0.072 N 
HETATM   25  C   UNL     1      36.337 -11.012  -2.849  1.00  0.00     0.269 C 
HETATM   26  H   UNL     1      37.566 -12.063  -4.116  1.00  0.00     0.279 HD
HETATM   27  C   UNL     1      37.497 -13.197  -2.372  1.00  0.00     0.254 C 
HETATM   28  C   UNL     1      38.753 -14.030  -2.709  1.00  0.00     0.169 C 
ENDBRANCH   1  21
BRANCH   5  29
HETATM   29  N   UNL     1      40.324 -15.418   1.750  1.00  0.00    -0.187 N 
HETATM   30  H   UNL     1      39.344 -15.668   1.780  1.00  0.00     0.184 HD
BRANCH  29  31
HETATM   31  C   UNL     1      41.144 -16.024   2.709  1.00  0.00     0.049 A 
HETATM   32  C   UNL     1      40.929 -15.889   4.086  1.00  0.00     0.032 A 
HETATM   33  C   UNL     1      41.786 -16.486   5.017  1.00  0.00     0.038 A 
HETATM   34  C   UNL     1      42.896 -17.207   4.567  1.00  0.00     0.103 A 
HETATM   35  C   UNL     1      43.146 -17.337   3.197  1.00  0.00     0.038 A 
HETATM   36  C   UNL     1      42.270 -16.744   2.281  1.00  0.00     0.032 A 
BRANCH  34  37
HETATM   37  N   UNL     1      43.800 -17.829   5.542  1.00  0.00    -0.116 N 
HETATM   38  O   UNL     1      44.027 -19.041   5.417  1.00  0.00    -0.532 OA
HETATM   39  O   UNL     1      44.275 -17.110   6.430  1.00  0.00    -0.532 OA
ENDBRANCH  34  37
ENDBRANCH  29  31
ENDBRANCH   5  29
TORSDOF 7
ENDMDL
MODEL 10
REMARK VINA RESULT:      -9.2      2.581      6.607
REMARK  7 active torsions:
REMARK  status: ('A' for Active; 'I' for Inactive)
REMARK    1  A    between atoms: N_6  and  C_7 
REMARK    2  A    between atoms: C_9  and  N_10 
REMARK    3  A    between atoms: N_10  and  N_11 
REMARK    4  A    between atoms: C_12  and  C_13 
REMARK    5  A    between atoms: C_24  and  N_25 
REMARK    6  A    between atoms: N_25  and  C_26 
REMARK    7  A    between atoms: C_29  and  N_30 
ROOT
HETATM    1  C   UNL     1      42.995 -12.076   5.960  1.00  0.00     0.756 A 
HETATM    2  N   UNL     1      43.603 -13.102   6.522  1.00  0.00     0.133 NA
HETATM    3  C   UNL     1      43.068 -14.306   6.326  1.00  0.00     0.774 A 
HETATM    4  N   UNL     1      42.002 -14.519   5.567  1.00  0.00     0.133 NA
HETATM    5  C   UNL     1      41.503 -13.451   4.965  1.00  0.00     0.758 A 
HETATM    6  N   UNL     1      41.985 -12.219   5.116  1.00  0.00     0.131 NA
ENDROOT
BRANCH   3   7
HETATM    7  N   UNL     1      43.650 -15.440   6.919  1.00  0.00    -0.105 N 
HETATM    8  H   UNL     1      44.353 -15.131   7.588  1.00  0.00     0.208 HD
BRANCH   7   9
HETATM    9  N   UNL     1      43.901 -16.516   6.118  1.00  0.00    -0.171 NA
HETATM   10  C   UNL     1      43.375 -17.630   6.514  1.00  0.00     0.153 C 
BRANCH  10  11
HETATM   11  C   UNL     1      43.608 -18.844   5.760  1.00  0.00     0.011 A 
HETATM   12  C   UNL     1      43.582 -19.060   4.343  1.00  0.00     0.004 A 
HETATM   13  C   UNL     1      43.884 -20.405   4.119  1.00  0.00     0.043 A 
HETATM   14  C   UNL     1      43.342 -18.237   3.219  1.00  0.00     0.014 A 
HETATM   15  C   UNL     1      43.953 -20.966   2.838  1.00  0.00     0.030 A 
HETATM   16  N   UNL     1      44.087 -20.985   5.348  1.00  0.00    -0.364 N 
HETATM   17  C   UNL     1      43.712 -20.127   1.746  1.00  0.00     0.002 A 
HETATM   18  C   UNL     1      43.412 -18.780   1.931  1.00  0.00     0.001 A 
HETATM   19  H   UNL     1      44.329 -21.958   5.487  1.00  0.00     0.165 HD
HETATM   20  C   UNL     1      43.930 -20.057   6.343  1.00  0.00     0.102 A 
ENDBRANCH  10  11
ENDBRANCH   7   9
ENDBRANCH   3   7
BRANCH   1  21
HETATM   21  N   UNL     1      43.459 -10.792   6.253  1.00  0.00    -0.210 N 
HETATM   22  C   UNL     1      44.542 -10.700   7.239  1.00  0.00     0.169 C 
HETATM   23  C   UNL     1      43.974 -10.755   8.672  1.00  0.00     0.254 C 
HETATM   24  N   UNL     1      42.888  -9.684   8.853  1.00  0.00    -0.072 N 
HETATM   25  C   UNL     1      42.329  -9.685  10.242  1.00  0.00     0.269 C 
HETATM   26  H   UNL     1      43.340  -8.773   8.703  1.00  0.00     0.279 HD
HETATM   27  C   UNL     1      41.786  -9.809   7.785  1.00  0.00     0.254 C 
HETATM   28  C   UNL     1      42.414  -9.764   6.376  1.00  0.00     0.169 C 
ENDBRANCH   1  21
BRANCH   5  29
HETATM   29  N   UNL     1      40.382 -13.675   4.166  1.00  0.00    -0.187 N 
HETATM   30  H   UNL     1      39.604 -13.994   4.729  1.00  0.00     0.184 HD
BRANCH  29  31
HETATM   31  C   UNL     1      40.236 -13.807   2.780  1.00  0.00     0.049 A 
HETATM   32  C   UNL     1      39.935 -12.725   1.942  1.00  0.00     0.032 A 
HETATM   33  C   UNL     1      39.767 -12.898   0.565  1.00  0.00     0.038 A 
HETATM   34  C   UNL     1      39.873 -14.180   0.014  1.00  0.00     0.103 A 
HETATM   35  C   UNL     1      40.150 -15.279   0.832  1.00  0.00     0.038 A 
HETATM   36  C   UNL     1      40.327 -15.084   2.207  1.00  0.00     0.032 A 
BRANCH  34  37
HETATM   37  N   UNL     1      39.691 -14.365  -1.431  1.00  0.00    -0.116 N 
HETATM   38  O   UNL     1      40.269 -13.568  -2.185  1.00  0.00    -0.532 OA
HETATM   39  O   UNL     1      38.971 -15.298  -1.807  1.00  0.00    -0.532 OA
ENDBRANCH  34  37
ENDBRANCH  29  31
ENDBRANCH   5  29
TORSDOF 7
ENDMDL
