MODEL 1
REMARK VINA RESULT:      -8.4      0.000      0.000
REMARK  6 active torsions:
REMARK  status: ('A' for Active; 'I' for Inactive)
REMARK    1  A    between atoms: C_2  and  O_3 
REMARK    2  A    between atoms: C_2  and  C_4 
REMARK    3  A    between atoms: C_7  and  N_8 
REMARK       I    between atoms: N_8  and  C_9 
REMARK    4  A    between atoms: C_9  and  C_10 
REMARK    5  A    between atoms: C_13  and  C_14 
REMARK    6  A    between atoms: C_19  and  C_20 
ROOT
HETATM    1  C   UNL     1      41.887 -14.823   5.119  1.00  0.00     0.096 C 
HETATM    2  C   UNL     1      42.280 -15.393   3.923  1.00  0.00     0.138 C 
HETATM    3  N   UNL     1      41.126 -15.853   3.329  1.00  0.00    -0.240 N 
HETATM    4  C   UNL     1      41.074 -16.561   2.060  1.00  0.00     0.221 C 
HETATM    5  C   UNL     1      42.423 -16.444   1.322  1.00  0.00     0.068 C 
HETATM    6  C   UNL     1      43.604 -16.618   2.286  1.00  0.00     0.143 C 
HETATM    7  N   UNL     1      43.495 -15.582   3.334  1.00  0.00    -0.363 N 
HETATM    8  N   UNL     1      40.051 -15.779   4.129  1.00  0.00    -0.181 NA
HETATM    9  C   UNL     1      40.508 -15.128   5.202  1.00  0.00     0.160 C 
HETATM   10  H   UNL     1      44.322 -15.576   3.936  1.00  0.00     0.162 HD
ENDROOT
BRANCH   1  11
HETATM   11  C   UNL     1      42.674 -14.116   6.115  1.00  0.00     0.261 C 
HETATM   12  N   UNL     1      43.038 -12.842   5.723  1.00  0.00    -0.323 N 
HETATM   13  H   UNL     1      42.638 -12.524   4.847  1.00  0.00     0.169 HD
HETATM   14  O   UNL     1      42.911 -14.636   7.199  1.00  0.00    -0.267 OA
BRANCH  12  15
HETATM   15  C   UNL     1      43.755 -11.888   6.474  1.00  0.00     0.035 A 
HETATM   16  C   UNL     1      45.135 -11.927   6.664  1.00  0.00     0.030 A 
HETATM   17  C   UNL     1      45.773 -10.959   7.450  1.00  0.00     0.012 A 
HETATM   18  C   UNL     1      45.044  -9.932   8.063  1.00  0.00    -0.030 A 
HETATM   19  C   UNL     1      43.660  -9.889   7.858  1.00  0.00     0.012 A 
HETATM   20  C   UNL     1      43.023 -10.851   7.064  1.00  0.00     0.030 A 
BRANCH  18  21
HETATM   21  C   UNL     1      45.754  -8.939   8.957  1.00  0.00     0.147 C 
HETATM   22  C   UNL     1      45.442  -9.196  10.427  1.00  0.00     0.044 C 
BRANCH  21  23
HETATM   23  O   UNL     1      45.370  -7.605   8.626  1.00  0.00    -0.391 OA
HETATM   24  H   UNL     1      45.499  -7.503   7.667  1.00  0.00     0.210 HD
ENDBRANCH  21  23
ENDBRANCH  18  21
ENDBRANCH  12  15
ENDBRANCH   1  11
BRANCH   4  25
HETATM   25  C   UNL     1      39.968 -16.031   1.176  1.00  0.00     0.409 C 
HETATM   26  F   UNL     1      39.082 -15.272   1.862  1.00  0.00    -0.169 F 
HETATM   27  F   UNL     1      40.497 -15.228   0.213  1.00  0.00    -0.169 F 
HETATM   28  F   UNL     1      39.283 -16.993   0.525  1.00  0.00    -0.169 F 
ENDBRANCH   4  25
BRANCH   6  29
HETATM   29  C   UNL     1      43.702 -18.028   2.790  1.00  0.00     0.075 A 
HETATM   30  O   UNL     1      44.165 -18.183   4.067  1.00  0.00    -0.325 OA
HETATM   31  C   UNL     1      44.202 -19.517   4.319  1.00  0.00     0.142 A 
HETATM   32  C   UNL     1      43.765 -20.225   3.226  1.00  0.00     0.027 A 
HETATM   33  C   UNL     1      43.439 -19.266   2.239  1.00  0.00     0.037 A 
ENDBRANCH   6  29
TORSDOF 6
ENDMDL
MODEL 2
REMARK VINA RESULT:      -8.4      3.361      8.521
REMARK  6 active torsions:
REMARK  status: ('A' for Active; 'I' for Inactive)
REMARK    1  A    between atoms: C_2  and  O_3 
REMARK    2  A    between atoms: C_2  and  C_4 
REMARK    3  A    between atoms: C_7  and  N_8 
REMARK       I    between atoms: N_8  and  C_9 
REMARK    4  A    between atoms: C_9  and  C_10 
REMARK    5  A    between atoms: C_13  and  C_14 
REMARK    6  A    between atoms: C_19  and  C_20 
ROOT
HETATM    1  C   UNL     1      41.909 -12.293   4.329  1.00  0.00     0.096 C 
HETATM    2  C   UNL     1      41.961 -11.469   5.437  1.00  0.00     0.138 C 
HETATM    3  N   UNL     1      41.962 -10.181   4.949  1.00  0.00    -0.240 N 
HETATM    4  C   UNL     1      42.045  -8.986   5.772  1.00  0.00     0.221 C 
HETATM    5  C   UNL     1      41.809  -9.333   7.255  1.00  0.00     0.068 C 
HETATM    6  C   UNL     1      42.536 -10.625   7.649  1.00  0.00     0.143 C 
HETATM    7  N   UNL     1      42.043 -11.711   6.777  1.00  0.00    -0.363 N 
HETATM    8  N   UNL     1      42.091 -10.119   3.615  1.00  0.00    -0.181 NA
HETATM    9  C   UNL     1      42.030 -11.399   3.238  1.00  0.00     0.160 C 
HETATM   10  H   UNL     1      42.407 -12.620   7.075  1.00  0.00     0.162 HD
ENDROOT
BRANCH   1  11
HETATM   11  C   UNL     1      41.810 -13.740   4.249  1.00  0.00     0.261 C 
HETATM   12  N   UNL     1      42.968 -14.346   3.799  1.00  0.00    -0.323 N 
HETATM   13  H   UNL     1      43.763 -13.727   3.674  1.00  0.00     0.169 HD
HETATM   14  O   UNL     1      40.788 -14.310   4.613  1.00  0.00    -0.267 OA
BRANCH  12  15
HETATM   15  C   UNL     1      43.212 -15.726   3.658  1.00  0.00     0.035 A 
HETATM   16  C   UNL     1      43.673 -16.543   4.690  1.00  0.00     0.030 A 
HETATM   17  C   UNL     1      43.923 -17.903   4.464  1.00  0.00     0.012 A 
HETATM   18  C   UNL     1      43.716 -18.474   3.202  1.00  0.00    -0.030 A 
HETATM   19  C   UNL     1      43.239 -17.653   2.173  1.00  0.00     0.012 A 
HETATM   20  C   UNL     1      42.980 -16.297   2.401  1.00  0.00     0.030 A 
BRANCH  18  21
HETATM   21  C   UNL     1      44.054 -19.932   2.975  1.00  0.00     0.147 C 
HETATM   22  C   UNL     1      43.326 -20.485   1.755  1.00  0.00     0.044 C 
BRANCH  21  23
HETATM   23  O   UNL     1      43.705 -20.710   4.119  1.00  0.00    -0.391 OA
HETATM   24  H   UNL     1      44.386 -21.398   4.212  1.00  0.00     0.210 HD
ENDBRANCH  21  23
ENDBRANCH  18  21
ENDBRANCH  12  15
ENDBRANCH   1  11
BRANCH   4  25
HETATM   25  C   UNL     1      41.043  -7.941   5.332  1.00  0.00     0.409 C 
HETATM   26  F   UNL     1      39.869  -8.488   4.944  1.00  0.00    -0.169 F 
HETATM   27  F   UNL     1      40.757  -7.116   6.375  1.00  0.00    -0.169 F 
HETATM   28  F   UNL     1      41.487  -7.146   4.338  1.00  0.00    -0.169 F 
ENDBRANCH   4  25
BRANCH   6  29
HETATM   29  C   UNL     1      44.026 -10.439   7.657  1.00  0.00     0.075 A 
HETATM   30  O   UNL     1      44.489  -9.298   8.248  1.00  0.00    -0.325 OA
HETATM   31  C   UNL     1      45.842  -9.307   8.128  1.00  0.00     0.142 A 
HETATM   32  C   UNL     1      46.259 -10.440   7.473  1.00  0.00     0.027 A 
HETATM   33  C   UNL     1      45.088 -11.175   7.171  1.00  0.00     0.037 A 
ENDBRANCH   6  29
TORSDOF 6
ENDMDL
MODEL 3
REMARK VINA RESULT:      -8.4      5.167      7.970
REMARK  6 active torsions:
REMARK  status: ('A' for Active; 'I' for Inactive)
REMARK    1  A    between atoms: C_2  and  O_3 
REMARK    2  A    between atoms: C_2  and  C_4 
REMARK    3  A    between atoms: C_7  and  N_8 
REMARK       I    between atoms: N_8  and  C_9 
REMARK    4  A    between atoms: C_9  and  C_10 
REMARK    5  A    between atoms: C_13  and  C_14 
REMARK    6  A    between atoms: C_19  and  C_20 
ROOT
HETATM    1  C   UNL     1      40.425 -13.646   1.644  1.00  0.00     0.096 C 
HETATM    2  C   UNL     1      40.603 -13.168   0.359  1.00  0.00     0.138 C 
HETATM    3  N   UNL     1      40.267 -11.833   0.406  1.00  0.00    -0.240 N 
HETATM    4  C   UNL     1      40.273 -10.938  -0.740  1.00  0.00     0.221 C 
HETATM    5  C   UNL     1      41.005 -11.590  -1.930  1.00  0.00     0.068 C 
HETATM    6  C   UNL     1      40.628 -13.071  -2.075  1.00  0.00     0.143 C 
HETATM    7  N   UNL     1      40.975 -13.756  -0.813  1.00  0.00    -0.363 N 
HETATM    8  N   UNL     1      39.722 -11.463   1.576  1.00  0.00    -0.181 NA
HETATM    9  C   UNL     1      39.846 -12.555   2.334  1.00  0.00     0.160 C 
HETATM   10  H   UNL     1      40.855 -14.769  -0.896  1.00  0.00     0.162 HD
ENDROOT
BRANCH   1  11
HETATM   11  C   UNL     1      40.700 -14.963   2.191  1.00  0.00     0.261 C 
HETATM   12  N   UNL     1      42.048 -15.210   2.375  1.00  0.00    -0.323 N 
HETATM   13  H   UNL     1      42.663 -14.422   2.201  1.00  0.00     0.169 HD
HETATM   14  O   UNL     1      39.779 -15.714   2.490  1.00  0.00    -0.267 OA
BRANCH  12  15
HETATM   15  C   UNL     1      42.638 -16.363   2.931  1.00  0.00     0.035 A 
HETATM   16  C   UNL     1      42.970 -17.498   2.192  1.00  0.00     0.030 A 
HETATM   17  C   UNL     1      43.526 -18.620   2.821  1.00  0.00     0.012 A 
HETATM   18  C   UNL     1      43.762 -18.629   4.202  1.00  0.00    -0.030 A 
HETATM   19  C   UNL     1      43.440 -17.482   4.937  1.00  0.00     0.012 A 
HETATM   20  C   UNL     1      42.893 -16.357   4.307  1.00  0.00     0.030 A 
BRANCH  18  21
HETATM   21  C   UNL     1      44.305 -19.878   4.861  1.00  0.00     0.147 C 
HETATM   22  C   UNL     1      44.021 -21.117   4.019  1.00  0.00     0.044 C 
BRANCH  21  23
HETATM   23  O   UNL     1      43.728 -20.052   6.155  1.00  0.00    -0.391 OA
HETATM   24  H   UNL     1      43.614 -19.164   6.535  1.00  0.00     0.210 HD
ENDBRANCH  21  23
ENDBRANCH  18  21
ENDBRANCH  12  15
ENDBRANCH   1  11
BRANCH   4  25
HETATM   25  C   UNL     1      40.929  -9.617  -0.407  1.00  0.00     0.409 C 
HETATM   26  F   UNL     1      41.975  -9.763   0.438  1.00  0.00    -0.169 F 
HETATM   27  F   UNL     1      41.427  -9.055  -1.542  1.00  0.00    -0.169 F 
HETATM   28  F   UNL     1      40.085  -8.708   0.120  1.00  0.00    -0.169 F 
ENDBRANCH   4  25
BRANCH   6  29
HETATM   29  C   UNL     1      39.203 -13.236  -2.520  1.00  0.00     0.075 A 
HETATM   30  O   UNL     1      38.962 -14.244  -3.410  1.00  0.00    -0.325 OA
HETATM   31  C   UNL     1      37.636 -14.210  -3.702  1.00  0.00     0.142 A 
HETATM   32  C   UNL     1      37.017 -13.197  -3.009  1.00  0.00     0.027 A 
HETATM   33  C   UNL     1      38.027 -12.569  -2.242  1.00  0.00     0.037 A 
ENDBRANCH   6  29
TORSDOF 6
ENDMDL
MODEL 4
REMARK VINA RESULT:      -8.3     15.733     17.379
REMARK  6 active torsions:
REMARK  status: ('A' for Active; 'I' for Inactive)
REMARK    1  A    between atoms: C_2  and  O_3 
REMARK    2  A    between atoms: C_2  and  C_4 
REMARK    3  A    between atoms: C_7  and  N_8 
REMARK       I    between atoms: N_8  and  C_9 
REMARK    4  A    between atoms: C_9  and  C_10 
REMARK    5  A    between atoms: C_13  and  C_14 
REMARK    6  A    between atoms: C_19  and  C_20 
ROOT
HETATM    1  C   UNL     1      43.764 -30.336   0.593  1.00  0.00     0.096 C 
HETATM    2  C   UNL     1      44.594 -29.503  -0.133  1.00  0.00     0.138 C 
HETATM    3  N   UNL     1      44.656 -30.044  -1.398  1.00  0.00    -0.240 N 
HETATM    4  C   UNL     1      45.453 -29.506  -2.489  1.00  0.00     0.221 C 
HETATM    5  C   UNL     1      45.956 -28.091  -2.144  1.00  0.00     0.068 C 
HETATM    6  C   UNL     1      46.435 -28.008  -0.688  1.00  0.00     0.143 C 
HETATM    7  N   UNL     1      45.307 -28.385   0.187  1.00  0.00    -0.363 N 
HETATM    8  N   UNL     1      44.074 -31.250  -1.490  1.00  0.00    -0.181 NA
HETATM    9  C   UNL     1      43.509 -31.412  -0.291  1.00  0.00     0.160 C 
HETATM   10  H   UNL     1      45.534 -28.232   1.172  1.00  0.00     0.162 HD
ENDROOT
BRANCH   1  11
HETATM   11  C   UNL     1      43.283 -30.210   1.958  1.00  0.00     0.261 C 
HETATM   12  N   UNL     1      42.554 -31.303   2.386  1.00  0.00    -0.323 N 
HETATM   13  H   UNL     1      42.526 -32.087   1.743  1.00  0.00     0.169 HD
HETATM   14  O   UNL     1      43.577 -29.227   2.628  1.00  0.00    -0.267 OA
BRANCH  12  15
HETATM   15  C   UNL     1      41.996 -31.512   3.663  1.00  0.00     0.035 A 
HETATM   16  C   UNL     1      42.741 -31.860   4.789  1.00  0.00     0.030 A 
HETATM   17  C   UNL     1      42.111 -32.083   6.020  1.00  0.00     0.012 A 
HETATM   18  C   UNL     1      40.721 -31.962   6.150  1.00  0.00    -0.030 A 
HETATM   19  C   UNL     1      39.979 -31.598   5.020  1.00  0.00     0.012 A 
HETATM   20  C   UNL     1      40.610 -31.366   3.793  1.00  0.00     0.030 A 
BRANCH  18  21
HETATM   21  C   UNL     1      40.063 -32.270   7.478  1.00  0.00     0.147 C 
HETATM   22  C   UNL     1      40.032 -33.770   7.745  1.00  0.00     0.044 C 
BRANCH  21  23
HETATM   23  O   UNL     1      38.729 -31.763   7.503  1.00  0.00    -0.391 OA
HETATM   24  H   UNL     1      38.139 -32.527   7.621  1.00  0.00     0.210 HD
ENDBRANCH  21  23
ENDBRANCH  18  21
ENDBRANCH  12  15
ENDBRANCH   1  11
BRANCH   4  25
HETATM   25  C   UNL     1      44.666 -29.461  -3.779  1.00  0.00     0.409 C 
HETATM   26  F   UNL     1      43.348 -29.238  -3.569  1.00  0.00    -0.169 F 
HETATM   27  F   UNL     1      45.111 -28.432  -4.550  1.00  0.00    -0.169 F 
HETATM   28  F   UNL     1      44.790 -30.572  -4.532  1.00  0.00    -0.169 F 
ENDBRANCH   4  25
BRANCH   6  29
HETATM   29  C   UNL     1      47.697 -28.794  -0.477  1.00  0.00     0.075 A 
HETATM   30  O   UNL     1      47.913 -29.261   0.789  1.00  0.00    -0.325 OA
HETATM   31  C   UNL     1      49.104 -29.914   0.775  1.00  0.00     0.142 A 
HETATM   32  C   UNL     1      49.657 -29.879  -0.482  1.00  0.00     0.027 A 
HETATM   33  C   UNL     1      48.749 -29.159  -1.293  1.00  0.00     0.037 A 
ENDBRANCH   6  29
TORSDOF 6
ENDMDL
MODEL 5
REMARK VINA RESULT:      -8.1     15.972     17.499
REMARK  6 active torsions:
REMARK  status: ('A' for Active; 'I' for Inactive)
REMARK    1  A    between atoms: C_2  and  O_3 
REMARK    2  A    between atoms: C_2  and  C_4 
REMARK    3  A    between atoms: C_7  and  N_8 
REMARK       I    between atoms: N_8  and  C_9 
REMARK    4  A    between atoms: C_9  and  C_10 
REMARK    5  A    between atoms: C_13  and  C_14 
REMARK    6  A    between atoms: C_19  and  C_20 
ROOT
HETATM    1  C   UNL     1      47.846 -29.227  -0.490  1.00  0.00     0.096 C 
HETATM    2  C   UNL     1      46.647 -29.856  -0.764  1.00  0.00     0.138 C 
HETATM    3  N   UNL     1      45.965 -29.011  -1.612  1.00  0.00    -0.240 N 
HETATM    4  C   UNL     1      44.630 -29.261  -2.130  1.00  0.00     0.221 C 
HETATM    5  C   UNL     1      44.214 -30.723  -1.870  1.00  0.00     0.068 C 
HETATM    6  C   UNL     1      44.623 -31.178  -0.463  1.00  0.00     0.143 C 
HETATM    7  N   UNL     1      46.087 -31.025  -0.340  1.00  0.00    -0.363 N 
HETATM    8  N   UNL     1      46.558 -27.816  -1.762  1.00  0.00    -0.181 NA
HETATM    9  C   UNL     1      47.711 -27.959  -1.105  1.00  0.00     0.160 C 
HETATM   10  H   UNL     1      46.430 -31.426   0.537  1.00  0.00     0.162 HD
ENDROOT
BRANCH   1  11
HETATM   11  C   UNL     1      48.984 -29.692   0.285  1.00  0.00     0.261 C 
HETATM   12  N   UNL     1      48.652 -30.075   1.571  1.00  0.00    -0.323 N 
HETATM   13  H   UNL     1      47.660 -30.078   1.782  1.00  0.00     0.169 HD
HETATM   14  O   UNL     1      50.094 -29.764  -0.229  1.00  0.00    -0.267 OA
BRANCH  12  15
HETATM   15  C   UNL     1      49.510 -30.615   2.550  1.00  0.00     0.035 A 
HETATM   16  C   UNL     1      49.995 -31.922   2.524  1.00  0.00     0.030 A 
HETATM   17  C   UNL     1      50.819 -32.397   3.552  1.00  0.00     0.012 A 
HETATM   18  C   UNL     1      51.176 -31.574   4.629  1.00  0.00    -0.030 A 
HETATM   19  C   UNL     1      50.698 -30.258   4.643  1.00  0.00     0.012 A 
HETATM   20  C   UNL     1      49.882 -29.780   3.611  1.00  0.00     0.030 A 
BRANCH  18  21
HETATM   21  C   UNL     1      52.016 -32.136   5.755  1.00  0.00     0.147 C 
HETATM   22  C   UNL     1      51.151 -32.848   6.789  1.00  0.00     0.044 C 
BRANCH  21  23
HETATM   23  O   UNL     1      52.749 -31.094   6.399  1.00  0.00    -0.391 OA
HETATM   24  H   UNL     1      52.629 -31.213   7.356  1.00  0.00     0.210 HD
ENDBRANCH  21  23
ENDBRANCH  18  21
ENDBRANCH  12  15
ENDBRANCH   1  11
BRANCH   4  25
HETATM   25  C   UNL     1      44.548 -28.969  -3.612  1.00  0.00     0.409 C 
HETATM   26  F   UNL     1      45.473 -29.654  -4.321  1.00  0.00    -0.169 F 
HETATM   27  F   UNL     1      43.334 -29.359  -4.087  1.00  0.00    -0.169 F 
HETATM   28  F   UNL     1      44.666 -27.661  -3.916  1.00  0.00    -0.169 F 
ENDBRANCH   4  25
BRANCH   6  29
HETATM   29  C   UNL     1      43.818 -30.484   0.597  1.00  0.00     0.075 A 
HETATM   30  O   UNL     1      44.054 -30.871   1.886  1.00  0.00    -0.325 OA
HETATM   31  C   UNL     1      43.218 -30.152   2.678  1.00  0.00     0.142 A 
HETATM   32  C   UNL     1      42.449 -29.303   1.920  1.00  0.00     0.027 A 
HETATM   33  C   UNL     1      42.837 -29.513   0.576  1.00  0.00     0.037 A 
ENDBRANCH   6  29
TORSDOF 6
ENDMDL
MODEL 6
REMARK VINA RESULT:      -8.0      4.888      7.947
REMARK  6 active torsions:
REMARK  status: ('A' for Active; 'I' for Inactive)
REMARK    1  A    between atoms: C_2  and  O_3 
REMARK    2  A    between atoms: C_2  and  C_4 
REMARK    3  A    between atoms: C_7  and  N_8 
REMARK       I    between atoms: N_8  and  C_9 
REMARK    4  A    between atoms: C_9  and  C_10 
REMARK    5  A    between atoms: C_13  and  C_14 
REMARK    6  A    between atoms: C_19  and  C_20 
ROOT
HETATM    1  C   UNL     1      41.352 -13.727   2.594  1.00  0.00     0.096 C 
HETATM    2  C   UNL     1      41.551 -14.580   3.663  1.00  0.00     0.138 C 
HETATM    3  N   UNL     1      42.617 -14.061   4.364  1.00  0.00    -0.240 N 
HETATM    4  C   UNL     1      43.196 -14.665   5.553  1.00  0.00     0.221 C 
HETATM    5  C   UNL     1      42.271 -15.768   6.104  1.00  0.00     0.068 C 
HETATM    6  C   UNL     1      41.692 -16.629   4.973  1.00  0.00     0.143 C 
HETATM    7  N   UNL     1      40.950 -15.739   4.056  1.00  0.00    -0.363 N 
HETATM    8  N   UNL     1      43.224 -13.045   3.732  1.00  0.00    -0.181 NA
HETATM    9  C   UNL     1      42.440 -12.825   2.675  1.00  0.00     0.160 C 
HETATM   10  H   UNL     1      40.443 -16.276   3.349  1.00  0.00     0.162 HD
ENDROOT
BRANCH   1  11
HETATM   11  C   UNL     1      40.320 -13.742   1.572  1.00  0.00     0.261 C 
HETATM   12  N   UNL     1      40.075 -12.498   1.020  1.00  0.00    -0.323 N 
HETATM   13  H   UNL     1      40.701 -11.758   1.320  1.00  0.00     0.169 HD
HETATM   14  O   UNL     1      39.794 -14.797   1.239  1.00  0.00    -0.267 OA
BRANCH  12  15
HETATM   15  C   UNL     1      39.178 -12.185  -0.020  1.00  0.00     0.035 A 
HETATM   16  C   UNL     1      39.362 -12.572  -1.347  1.00  0.00     0.030 A 
HETATM   17  C   UNL     1      38.441 -12.195  -2.333  1.00  0.00     0.012 A 
HETATM   18  C   UNL     1      37.316 -11.424  -2.012  1.00  0.00    -0.030 A 
HETATM   19  C   UNL     1      37.129 -11.050  -0.676  1.00  0.00     0.012 A 
HETATM   20  C   UNL     1      38.044 -11.434   0.311  1.00  0.00     0.030 A 
BRANCH  18  21
HETATM   21  C   UNL     1      36.373 -10.980  -3.110  1.00  0.00     0.147 C 
HETATM   22  C   UNL     1      35.343  -9.987  -2.586  1.00  0.00     0.044 C 
BRANCH  21  23
HETATM   23  O   UNL     1      35.694 -12.104  -3.669  1.00  0.00    -0.391 OA
HETATM   24  H   UNL     1      35.190 -12.517  -2.948  1.00  0.00     0.210 HD
ENDBRANCH  21  23
ENDBRANCH  18  21
ENDBRANCH  12  15
ENDBRANCH   1  11
BRANCH   4  25
HETATM   25  C   UNL     1      43.449 -13.634   6.630  1.00  0.00     0.409 C 
HETATM   26  F   UNL     1      43.310 -14.146   7.874  1.00  0.00    -0.169 F 
HETATM   27  F   UNL     1      44.730 -13.185   6.541  1.00  0.00    -0.169 F 
HETATM   28  F   UNL     1      42.663 -12.543   6.533  1.00  0.00    -0.169 F 
ENDBRANCH   4  25
BRANCH   6  29
HETATM   29  C   UNL     1      42.751 -17.473   4.325  1.00  0.00     0.075 A 
HETATM   30  O   UNL     1      43.612 -18.115   5.170  1.00  0.00    -0.325 OA
HETATM   31  C   UNL     1      44.497 -18.795   4.396  1.00  0.00     0.142 A 
HETATM   32  C   UNL     1      44.216 -18.606   3.064  1.00  0.00     0.027 A 
HETATM   33  C   UNL     1      43.087 -17.755   3.016  1.00  0.00     0.037 A 
ENDBRANCH   6  29
TORSDOF 6
ENDMDL
MODEL 7
REMARK VINA RESULT:      -8.0      5.914      8.920
REMARK  6 active torsions:
REMARK  status: ('A' for Active; 'I' for Inactive)
REMARK    1  A    between atoms: C_2  and  O_3 
REMARK    2  A    between atoms: C_2  and  C_4 
REMARK    3  A    between atoms: C_7  and  N_8 
REMARK       I    between atoms: N_8  and  C_9 
REMARK    4  A    between atoms: C_9  and  C_10 
REMARK    5  A    between atoms: C_13  and  C_14 
REMARK    6  A    between atoms: C_19  and  C_20 
ROOT
HETATM    1  C   UNL     1      44.109 -10.223   9.922  1.00  0.00     0.096 C 
HETATM    2  C   UNL     1      43.338 -10.244   8.776  1.00  0.00     0.138 C 
HETATM    3  N   UNL     1      44.222 -10.387   7.730  1.00  0.00    -0.240 N 
HETATM    4  C   UNL     1      43.844 -10.421   6.326  1.00  0.00     0.221 C 
HETATM    5  C   UNL     1      42.320 -10.599   6.181  1.00  0.00     0.068 C 
HETATM    6  C   UNL     1      41.557  -9.733   7.193  1.00  0.00     0.143 C 
HETATM    7  N   UNL     1      41.999 -10.119   8.549  1.00  0.00    -0.363 N 
HETATM    8  N   UNL     1      45.507 -10.283   8.103  1.00  0.00    -0.181 NA
HETATM    9  C   UNL     1      45.438 -10.213   9.435  1.00  0.00     0.160 C 
HETATM   10  H   UNL     1      41.436  -9.656   9.268  1.00  0.00     0.162 HD
ENDROOT
BRANCH   1  11
HETATM   11  C   UNL     1      43.703 -10.168  11.316  1.00  0.00     0.261 C 
HETATM   12  N   UNL     1      43.195  -8.939  11.692  1.00  0.00    -0.323 N 
HETATM   13  H   UNL     1      43.079  -8.267  10.940  1.00  0.00     0.169 HD
HETATM   14  O   UNL     1      43.778 -11.167  12.021  1.00  0.00    -0.267 OA
BRANCH  12  15
HETATM   15  C   UNL     1      42.671  -8.578  12.949  1.00  0.00     0.035 A 
HETATM   16  C   UNL     1      41.591  -9.218  13.554  1.00  0.00     0.030 A 
HETATM   17  C   UNL     1      41.106  -8.781  14.793  1.00  0.00     0.012 A 
HETATM   18  C   UNL     1      41.693  -7.695  15.455  1.00  0.00    -0.030 A 
HETATM   19  C   UNL     1      42.787  -7.064  14.850  1.00  0.00     0.012 A 
HETATM   20  C   UNL     1      43.278  -7.507  13.616  1.00  0.00     0.030 A 
BRANCH  18  21
HETATM   21  C   UNL     1      41.108  -7.207  16.762  1.00  0.00     0.147 C 
HETATM   22  C   UNL     1      41.845  -5.974  17.273  1.00  0.00     0.044 C 
BRANCH  21  23
HETATM   23  O   UNL     1      41.174  -8.233  17.752  1.00  0.00    -0.391 OA
HETATM   24  H   UNL     1      41.362  -7.797  18.600  1.00  0.00     0.210 HD
ENDBRANCH  21  23
ENDBRANCH  18  21
ENDBRANCH  12  15
ENDBRANCH   1  11
BRANCH   4  25
HETATM   25  C   UNL     1      44.554 -11.534   5.589  1.00  0.00     0.409 C 
HETATM   26  F   UNL     1      44.585 -12.684   6.301  1.00  0.00    -0.169 F 
HETATM   27  F   UNL     1      43.890 -11.815   4.435  1.00  0.00    -0.169 F 
HETATM   28  F   UNL     1      45.817 -11.229   5.228  1.00  0.00    -0.169 F 
ENDBRANCH   4  25
BRANCH   6  29
HETATM   29  C   UNL     1      41.683  -8.271   6.873  1.00  0.00     0.075 A 
HETATM   30  O   UNL     1      41.404  -7.909   5.585  1.00  0.00    -0.325 OA
HETATM   31  C   UNL     1      41.599  -6.568   5.497  1.00  0.00     0.142 A 
HETATM   32  C   UNL     1      41.995  -6.059   6.710  1.00  0.00     0.027 A 
HETATM   33  C   UNL     1      42.047  -7.156   7.601  1.00  0.00     0.037 A 
ENDBRANCH   6  29
TORSDOF 6
ENDMDL
MODEL 8
REMARK VINA RESULT:      -7.9     15.452     17.797
REMARK  6 active torsions:
REMARK  status: ('A' for Active; 'I' for Inactive)
REMARK    1  A    between atoms: C_2  and  O_3 
REMARK    2  A    between atoms: C_2  and  C_4 
REMARK    3  A    between atoms: C_7  and  N_8 
REMARK       I    between atoms: N_8  and  C_9 
REMARK    4  A    between atoms: C_9  and  C_10 
REMARK    5  A    between atoms: C_13  and  C_14 
REMARK    6  A    between atoms: C_19  and  C_20 
ROOT
HETATM    1  C   UNL     1      43.589 -30.333   0.772  1.00  0.00     0.096 C 
HETATM    2  C   UNL     1      44.707 -29.546   0.975  1.00  0.00     0.138 C 
HETATM    3  N   UNL     1      45.525 -29.767  -0.111  1.00  0.00    -0.240 N 
HETATM    4  C   UNL     1      46.835 -29.165  -0.295  1.00  0.00     0.221 C 
HETATM    5  C   UNL     1      47.048 -28.015   0.709  1.00  0.00     0.068 C 
HETATM    6  C   UNL     1      46.529 -28.389   2.105  1.00  0.00     0.143 C 
HETATM    7  N   UNL     1      45.094 -28.717   1.986  1.00  0.00    -0.363 N 
HETATM    8  N   UNL     1      45.098 -30.762  -0.904  1.00  0.00    -0.181 NA
HETATM    9  C   UNL     1      43.911 -31.084  -0.384  1.00  0.00     0.160 C 
HETATM   10  H   UNL     1      44.669 -28.858   2.906  1.00  0.00     0.162 HD
ENDROOT
BRANCH   1  11
HETATM   11  C   UNL     1      42.372 -30.440   1.558  1.00  0.00     0.261 C 
HETATM   12  N   UNL     1      42.285 -31.617   2.276  1.00  0.00    -0.323 N 
HETATM   13  H   UNL     1      43.108 -32.209   2.246  1.00  0.00     0.169 HD
HETATM   14  O   UNL     1      41.568 -29.516   1.580  1.00  0.00    -0.267 OA
BRANCH  12  15
HETATM   15  C   UNL     1      41.262 -32.001   3.167  1.00  0.00     0.035 A 
HETATM   16  C   UNL     1      41.114 -31.478   4.451  1.00  0.00     0.030 A 
HETATM   17  C   UNL     1      40.090 -31.934   5.292  1.00  0.00     0.012 A 
HETATM   18  C   UNL     1      39.193 -32.922   4.866  1.00  0.00    -0.030 A 
HETATM   19  C   UNL     1      39.338 -33.434   3.571  1.00  0.00     0.012 A 
HETATM   20  C   UNL     1      40.355 -32.972   2.727  1.00  0.00     0.030 A 
BRANCH  18  21
HETATM   21  C   UNL     1      38.137 -33.438   5.819  1.00  0.00     0.147 C 
HETATM   22  C   UNL     1      36.768 -33.492   5.151  1.00  0.00     0.044 C 
BRANCH  21  23
HETATM   23  O   UNL     1      38.059 -32.605   6.976  1.00  0.00    -0.391 OA
HETATM   24  H   UNL     1      38.733 -32.924   7.599  1.00  0.00     0.210 HD
ENDBRANCH  21  23
ENDBRANCH  18  21
ENDBRANCH  12  15
ENDBRANCH   1  11
BRANCH   4  25
HETATM   25  C   UNL     1      47.011 -28.643  -1.704  1.00  0.00     0.409 C 
HETATM   26  F   UNL     1      45.873 -28.104  -2.197  1.00  0.00    -0.169 F 
HETATM   27  F   UNL     1      47.941 -27.649  -1.710  1.00  0.00    -0.169 F 
HETATM   28  F   UNL     1      47.451 -29.572  -2.577  1.00  0.00    -0.169 F 
ENDBRANCH   4  25
BRANCH   6  29
HETATM   29  C   UNL     1      47.377 -29.454   2.741  1.00  0.00     0.075 A 
HETATM   30  O   UNL     1      46.710 -30.411   3.452  1.00  0.00    -0.325 OA
HETATM   31  C   UNL     1      47.646 -31.253   3.961  1.00  0.00     0.142 A 
HETATM   32  C   UNL     1      48.906 -30.856   3.584  1.00  0.00     0.027 A 
HETATM   33  C   UNL     1      48.734 -29.696   2.793  1.00  0.00     0.037 A 
ENDBRANCH   6  29
TORSDOF 6
ENDMDL
MODEL 9
REMARK VINA RESULT:      -7.9      5.961      8.752
REMARK  6 active torsions:
REMARK  status: ('A' for Active; 'I' for Inactive)
REMARK    1  A    between atoms: C_2  and  O_3 
REMARK    2  A    between atoms: C_2  and  C_4 
REMARK    3  A    between atoms: C_7  and  N_8 
REMARK       I    between atoms: N_8  and  C_9 
REMARK    4  A    between atoms: C_9  and  C_10 
REMARK    5  A    between atoms: C_13  and  C_14 
REMARK    6  A    between atoms: C_19  and  C_20 
ROOT
HETATM    1  C   UNL     1      41.173 -11.877   0.516  1.00  0.00     0.096 C 
HETATM    2  C   UNL     1      40.984 -11.512  -0.803  1.00  0.00     0.138 C 
HETATM    3  N   UNL     1      41.154 -10.146  -0.843  1.00  0.00    -0.240 N 
HETATM    4  C   UNL     1      41.008  -9.329  -2.037  1.00  0.00     0.221 C 
HETATM    5  C   UNL     1      40.960 -10.217  -3.297  1.00  0.00     0.068 C 
HETATM    6  C   UNL     1      40.091 -11.462  -3.069  1.00  0.00     0.143 C 
HETATM    7  N   UNL     1      40.655 -12.211  -1.927  1.00  0.00    -0.363 N 
HETATM    8  N   UNL     1      41.262  -9.588   0.373  1.00  0.00    -0.181 NA
HETATM    9  C   UNL     1      41.303 -10.641   1.193  1.00  0.00     0.160 C 
HETATM   10  H   UNL     1      40.186 -13.112  -1.807  1.00  0.00     0.162 HD
ENDROOT
BRANCH   1  11
HETATM   11  C   UNL     1      41.189 -13.197   1.122  1.00  0.00     0.261 C 
HETATM   12  N   UNL     1      42.448 -13.601   1.526  1.00  0.00    -0.323 N 
HETATM   13  H   UNL     1      43.178 -12.901   1.440  1.00  0.00     0.169 HD
HETATM   14  O   UNL     1      40.144 -13.817   1.281  1.00  0.00    -0.267 OA
BRANCH  12  15
HETATM   15  C   UNL     1      42.792 -14.796   2.187  1.00  0.00     0.035 A 
HETATM   16  C   UNL     1      43.046 -16.001   1.533  1.00  0.00     0.030 A 
HETATM   17  C   UNL     1      43.351 -17.157   2.263  1.00  0.00     0.012 A 
HETATM   18  C   UNL     1      43.410 -17.132   3.662  1.00  0.00    -0.030 A 
HETATM   19  C   UNL     1      43.169 -15.917   4.314  1.00  0.00     0.012 A 
HETATM   20  C   UNL     1      42.873 -14.759   3.584  1.00  0.00     0.030 A 
BRANCH  18  21
HETATM   21  C   UNL     1      43.681 -18.412   4.424  1.00  0.00     0.147 C 
HETATM   22  C   UNL     1      43.550 -18.198   5.928  1.00  0.00     0.044 C 
BRANCH  21  23
HETATM   23  O   UNL     1      44.992 -18.897   4.135  1.00  0.00    -0.391 OA
HETATM   24  H   UNL     1      45.008 -19.120   3.188  1.00  0.00     0.210 HD
ENDBRANCH  21  23
ENDBRANCH  18  21
ENDBRANCH  12  15
ENDBRANCH   1  11
BRANCH   4  25
HETATM   25  C   UNL     1      42.137  -8.332  -2.167  1.00  0.00     0.409 C 
HETATM   26  F   UNL     1      42.386  -8.002  -3.455  1.00  0.00    -0.169 F 
HETATM   27  F   UNL     1      41.801  -7.176  -1.532  1.00  0.00    -0.169 F 
HETATM   28  F   UNL     1      43.293  -8.743  -1.606  1.00  0.00    -0.169 F 
ENDBRANCH   4  25
BRANCH   6  29
HETATM   29  C   UNL     1      38.638 -11.106  -2.944  1.00  0.00     0.075 A 
HETATM   30  O   UNL     1      38.197 -10.084  -3.737  1.00  0.00    -0.325 OA
HETATM   31  C   UNL     1      36.880  -9.903  -3.457  1.00  0.00     0.142 A 
HETATM   32  C   UNL     1      36.464 -10.796  -2.499  1.00  0.00     0.027 A 
HETATM   33  C   UNL     1      37.597 -11.576  -2.168  1.00  0.00     0.037 A 
ENDBRANCH   6  29
TORSDOF 6
ENDMDL
MODEL 10
REMARK VINA RESULT:      -7.6      5.353      8.389
REMARK  6 active torsions:
REMARK  status: ('A' for Active; 'I' for Inactive)
REMARK    1  A    between atoms: C_2  and  O_3 
REMARK    2  A    between atoms: C_2  and  C_4 
REMARK    3  A    between atoms: C_7  and  N_8 
REMARK       I    between atoms: N_8  and  C_9 
REMARK    4  A    between atoms: C_9  and  C_10 
REMARK    5  A    between atoms: C_13  and  C_14 
REMARK    6  A    between atoms: C_19  and  C_20 
ROOT
HETATM    1  C   UNL     1      40.585 -13.174   0.342  1.00  0.00     0.096 C 
HETATM    2  C   UNL     1      40.005 -11.926   0.214  1.00  0.00     0.138 C 
HETATM    3  N   UNL     1      39.336 -11.944  -0.990  1.00  0.00    -0.240 N 
HETATM    4  C   UNL     1      38.608 -10.817  -1.549  1.00  0.00     0.221 C 
HETATM    5  C   UNL     1      38.413  -9.719  -0.484  1.00  0.00     0.068 C 
HETATM    6  C   UNL     1      39.687  -9.514   0.347  1.00  0.00     0.143 C 
HETATM    7  N   UNL     1      40.028 -10.802   0.985  1.00  0.00    -0.363 N 
HETATM    8  N   UNL     1      39.587 -13.042  -1.720  1.00  0.00    -0.181 NA
HETATM    9  C   UNL     1      40.320 -13.799  -0.900  1.00  0.00     0.160 C 
HETATM   10  H   UNL     1      40.801 -10.694   1.647  1.00  0.00     0.162 HD
ENDROOT
BRANCH   1  11
HETATM   11  C   UNL     1      41.343 -13.738   1.446  1.00  0.00     0.261 C 
HETATM   12  N   UNL     1      41.218 -15.110   1.552  1.00  0.00    -0.323 N 
HETATM   13  H   UNL     1      40.702 -15.560   0.804  1.00  0.00     0.169 HD
HETATM   14  O   UNL     1      42.047 -13.018   2.144  1.00  0.00    -0.267 OA
BRANCH  12  15
HETATM   15  C   UNL     1      41.859 -15.958   2.477  1.00  0.00     0.035 A 
HETATM   16  C   UNL     1      41.606 -15.946   3.848  1.00  0.00     0.030 A 
HETATM   17  C   UNL     1      42.308 -16.798   4.710  1.00  0.00     0.012 A 
HETATM   18  C   UNL     1      43.278 -17.681   4.219  1.00  0.00    -0.030 A 
HETATM   19  C   UNL     1      43.518 -17.700   2.840  1.00  0.00     0.012 A 
HETATM   20  C   UNL     1      42.810 -16.855   1.977  1.00  0.00     0.030 A 
BRANCH  18  21
HETATM   21  C   UNL     1      44.062 -18.545   5.182  1.00  0.00     0.147 C 
HETATM   22  C   UNL     1      44.203 -19.970   4.659  1.00  0.00     0.044 C 
BRANCH  21  23
HETATM   23  O   UNL     1      43.423 -18.578   6.458  1.00  0.00    -0.391 OA
HETATM   24  H   UNL     1      43.270 -19.513   6.673  1.00  0.00     0.210 HD
ENDBRANCH  21  23
ENDBRANCH  18  21
ENDBRANCH  12  15
ENDBRANCH   1  11
BRANCH   4  25
HETATM   25  C   UNL     1      37.260 -11.241  -2.088  1.00  0.00     0.409 C 
HETATM   26  F   UNL     1      36.972 -12.529  -1.792  1.00  0.00    -0.169 F 
HETATM   27  F   UNL     1      36.282 -10.487  -1.518  1.00  0.00    -0.169 F 
HETATM   28  F   UNL     1      37.131 -11.076  -3.420  1.00  0.00    -0.169 F 
ENDBRANCH   4  25
BRANCH   6  29
HETATM   29  C   UNL     1      40.785  -8.897  -0.470  1.00  0.00     0.075 A 
HETATM   30  O   UNL     1      40.483  -7.721  -1.097  1.00  0.00    -0.325 OA
HETATM   31  C   UNL     1      41.586  -7.346  -1.795  1.00  0.00     0.142 A 
HETATM   32  C   UNL     1      42.598  -8.260  -1.623  1.00  0.00     0.027 A 
HETATM   33  C   UNL     1      42.084  -9.261  -0.765  1.00  0.00     0.037 A 
ENDBRANCH   6  29
TORSDOF 6
ENDMDL
