MODEL 1
REMARK VINA RESULT:      -8.6      0.000      0.000
REMARK  5 active torsions:
REMARK  status: ('A' for Active; 'I' for Inactive)
REMARK    1  A    between atoms: C_5  and  N_6 
REMARK       I    between atoms: N_6  and  C_7 
REMARK    2  A    between atoms: C_7  and  C_8 
REMARK    3  A    between atoms: C_9  and  C_10 
REMARK    4  A    between atoms: C_13  and  O_14 
REMARK    5  A    between atoms: N_20  and  C_21 
ROOT
HETATM    1  C   UNL     1      41.270 -14.367   2.367  1.00  0.00     0.060 C 
HETATM    2  C   UNL     1      41.869 -13.102   2.875  1.00  0.00     0.158 C 
HETATM    3  N   UNL     1      41.847 -12.090   1.851  1.00  0.00    -0.354 N 
HETATM    4  C   UNL     1      41.064 -12.089   0.731  1.00  0.00     0.179 C 
HETATM    5  S   UNL     1      41.106 -10.658  -0.152  1.00  0.00    -0.040 SA
HETATM    6  N   UNL     1      40.377 -13.290   0.433  1.00  0.00    -0.292 N 
HETATM    7  C   UNL     1      40.556 -14.449   1.225  1.00  0.00     0.030 C 
HETATM    8  C   UNL     1      39.886 -15.741   0.802  1.00  0.00     0.070 C 
HETATM    9  H   UNL     1      42.319 -11.215   2.043  1.00  0.00     0.163 HD
ENDROOT
BRANCH   1  10
HETATM   10  C   UNL     1      41.640 -15.595   3.122  1.00  0.00     0.257 C 
HETATM   11  N   UNL     1      42.842 -16.131   2.726  1.00  0.00    -0.306 N 
HETATM   12  H   UNL     1      43.389 -15.670   2.014  1.00  0.00     0.170 HD
HETATM   13  O   UNL     1      40.875 -16.009   3.983  1.00  0.00    -0.267 OA
BRANCH  11  14
HETATM   14  C   UNL     1      43.343 -17.333   3.193  1.00  0.00     0.160 A 
HETATM   15  N   UNL     1      44.014 -17.514   4.333  1.00  0.00    -0.110 NA
HETATM   16  O   UNL     1      44.298 -18.861   4.412  1.00  0.00    -0.216 OA
HETATM   17  C   UNL     1      43.791 -19.493   3.323  1.00  0.00     0.078 A 
HETATM   18  C   UNL     1      43.987 -20.953   3.254  1.00  0.00     0.079 C 
HETATM   19  C   UNL     1      43.182 -18.567   2.513  1.00  0.00     0.087 A 
ENDBRANCH  11  14
ENDBRANCH   1  10
BRANCH   2  20
HETATM   20  C   UNL     1      41.179 -12.571   4.126  1.00  0.00    -0.031 A 
HETATM   21  C   UNL     1      41.930 -11.945   5.135  1.00  0.00     0.012 A 
HETATM   22  C   UNL     1      41.313 -11.479   6.299  1.00  0.00     0.037 A 
HETATM   23  C   UNL     1      39.941 -11.639   6.458  1.00  0.00     0.065 A 
HETATM   24  C   UNL     1      39.177 -12.253   5.474  1.00  0.00     0.037 A 
HETATM   25  C   UNL     1      39.791 -12.712   4.310  1.00  0.00     0.012 A 
BRANCH  23  26
HETATM   26  O   UNL     1      39.300 -11.202   7.578  1.00  0.00    -0.361 OA
HETATM   27  H   UNL     1      39.948 -11.105   8.295  1.00  0.00     0.217 HD
ENDBRANCH  23  26
ENDBRANCH   2  20
BRANCH   6  28
HETATM   28  C   UNL     1      39.612 -13.346  -0.783  1.00  0.00     0.042 A 
HETATM   29  C   UNL     1      38.317 -12.813  -0.829  1.00  0.00     0.030 A 
HETATM   30  C   UNL     1      37.574 -12.877  -2.009  1.00  0.00     0.002 A 
HETATM   31  C   UNL     1      38.116 -13.477  -3.144  1.00  0.00     0.000 A 
HETATM   32  C   UNL     1      39.402 -14.013  -3.104  1.00  0.00     0.002 A 
HETATM   33  C   UNL     1      40.152 -13.947  -1.927  1.00  0.00     0.030 A 
ENDBRANCH   6  28
TORSDOF 5
ENDMDL
MODEL 2
REMARK VINA RESULT:      -8.5      2.921      6.614
REMARK  5 active torsions:
REMARK  status: ('A' for Active; 'I' for Inactive)
REMARK    1  A    between atoms: C_5  and  N_6 
REMARK       I    between atoms: N_6  and  C_7 
REMARK    2  A    between atoms: C_7  and  C_8 
REMARK    3  A    between atoms: C_9  and  C_10 
REMARK    4  A    between atoms: C_13  and  O_14 
REMARK    5  A    between atoms: N_20  and  C_21 
ROOT
HETATM    1  C   UNL     1      42.182 -14.466   5.374  1.00  0.00     0.060 C 
HETATM    2  C   UNL     1      40.915 -13.887   4.847  1.00  0.00     0.158 C 
HETATM    3  N   UNL     1      40.675 -12.593   5.433  1.00  0.00    -0.354 N 
HETATM    4  C   UNL     1      41.599 -11.800   6.050  1.00  0.00     0.179 C 
HETATM    5  S   UNL     1      41.056 -10.252   6.425  1.00  0.00    -0.040 SA
HETATM    6  N   UNL     1      42.852 -12.389   6.341  1.00  0.00    -0.292 N 
HETATM    7  C   UNL     1      43.098 -13.755   6.063  1.00  0.00     0.030 C 
HETATM    8  C   UNL     1      44.415 -14.369   6.494  1.00  0.00     0.070 C 
HETATM    9  H   UNL     1      39.791 -12.141   5.230  1.00  0.00     0.163 HD
ENDROOT
BRANCH   1  10
HETATM   10  C   UNL     1      42.314 -15.941   5.231  1.00  0.00     0.257 C 
HETATM   11  N   UNL     1      43.273 -16.314   4.321  1.00  0.00    -0.306 N 
HETATM   12  H   UNL     1      43.825 -15.608   3.854  1.00  0.00     0.170 HD
HETATM   13  O   UNL     1      41.584 -16.664   5.898  1.00  0.00    -0.267 OA
BRANCH  11  14
HETATM   14  C   UNL     1      43.500 -17.620   3.927  1.00  0.00     0.160 A 
HETATM   15  N   UNL     1      43.962 -18.604   4.701  1.00  0.00    -0.110 NA
HETATM   16  O   UNL     1      44.009 -19.735   3.913  1.00  0.00    -0.216 OA
HETATM   17  C   UNL     1      43.566 -19.433   2.666  1.00  0.00     0.078 A 
HETATM   18  C   UNL     1      43.528 -20.540   1.692  1.00  0.00     0.079 C 
HETATM   19  C   UNL     1      43.238 -18.101   2.619  1.00  0.00     0.087 A 
ENDBRANCH  11  14
ENDBRANCH   1  10
BRANCH   2  20
HETATM   20  C   UNL     1      40.896 -13.766   3.328  1.00  0.00    -0.031 A 
HETATM   21  C   UNL     1      40.181 -14.697   2.555  1.00  0.00     0.012 A 
HETATM   22  C   UNL     1      40.180 -14.614   1.160  1.00  0.00     0.037 A 
HETATM   23  C   UNL     1      40.895 -13.600   0.533  1.00  0.00     0.065 A 
HETATM   24  C   UNL     1      41.608 -12.667   1.276  1.00  0.00     0.037 A 
HETATM   25  C   UNL     1      41.605 -12.746   2.668  1.00  0.00     0.012 A 
BRANCH  23  26
HETATM   26  O   UNL     1      40.923 -13.483  -0.824  1.00  0.00    -0.361 OA
HETATM   27  H   UNL     1      41.652 -12.891  -1.074  1.00  0.00     0.217 HD
ENDBRANCH  23  26
ENDBRANCH   2  20
BRANCH   6  28
HETATM   28  C   UNL     1      43.816 -11.605   7.063  1.00  0.00     0.042 A 
HETATM   29  C   UNL     1      44.997 -11.181   6.438  1.00  0.00     0.030 A 
HETATM   30  C   UNL     1      45.934 -10.428   7.146  1.00  0.00     0.002 A 
HETATM   31  C   UNL     1      45.701 -10.098   8.480  1.00  0.00     0.000 A 
HETATM   32  C   UNL     1      44.531 -10.518   9.110  1.00  0.00     0.002 A 
HETATM   33  C   UNL     1      43.587 -11.269   8.404  1.00  0.00     0.030 A 
ENDBRANCH   6  28
TORSDOF 5
ENDMDL
MODEL 3
REMARK VINA RESULT:      -8.4      2.528      6.824
REMARK  5 active torsions:
REMARK  status: ('A' for Active; 'I' for Inactive)
REMARK    1  A    between atoms: C_5  and  N_6 
REMARK       I    between atoms: N_6  and  C_7 
REMARK    2  A    between atoms: C_7  and  C_8 
REMARK    3  A    between atoms: C_9  and  C_10 
REMARK    4  A    between atoms: C_13  and  O_14 
REMARK    5  A    between atoms: N_20  and  C_21 
ROOT
HETATM    1  C   UNL     1      41.337 -13.611   2.156  1.00  0.00     0.060 C 
HETATM    2  C   UNL     1      42.784 -13.920   2.327  1.00  0.00     0.158 C 
HETATM    3  N   UNL     1      43.382 -13.008   3.269  1.00  0.00    -0.354 N 
HETATM    4  C   UNL     1      42.720 -12.241   4.185  1.00  0.00     0.179 C 
HETATM    5  S   UNL     1      43.715 -11.455   5.291  1.00  0.00    -0.040 SA
HETATM    6  N   UNL     1      41.313 -12.162   4.052  1.00  0.00    -0.292 N 
HETATM    7  C   UNL     1      40.645 -12.795   2.977  1.00  0.00     0.030 C 
HETATM    8  C   UNL     1      39.152 -12.590   2.815  1.00  0.00     0.070 C 
HETATM    9  H   UNL     1      44.386 -13.053   3.394  1.00  0.00     0.163 HD
ENDROOT
BRANCH   1  10
HETATM   10  C   UNL     1      40.718 -14.139   0.909  1.00  0.00     0.257 C 
HETATM   11  N   UNL     1      40.905 -13.318  -0.177  1.00  0.00    -0.306 N 
HETATM   12  H   UNL     1      41.449 -12.473  -0.082  1.00  0.00     0.170 HD
HETATM   13  O   UNL     1      40.115 -15.203   0.958  1.00  0.00    -0.267 OA
BRANCH  11  14
HETATM   14  C   UNL     1      40.326 -13.531  -1.416  1.00  0.00     0.160 A 
HETATM   15  N   UNL     1      40.786 -13.079  -2.584  1.00  0.00    -0.110 NA
HETATM   16  O   UNL     1      39.920 -13.544  -3.552  1.00  0.00    -0.216 OA
HETATM   17  C   UNL     1      38.944 -14.283  -2.966  1.00  0.00     0.078 A 
HETATM   18  C   UNL     1      37.937 -14.879  -3.864  1.00  0.00     0.079 C 
HETATM   19  C   UNL     1      39.151 -14.299  -1.609  1.00  0.00     0.087 A 
ENDBRANCH  11  14
ENDBRANCH   1  10
BRANCH   2  20
HETATM   20  C   UNL     1      43.042 -15.353   2.777  1.00  0.00    -0.031 A 
HETATM   21  C   UNL     1      43.107 -15.661   4.147  1.00  0.00     0.012 A 
HETATM   22  C   UNL     1      43.371 -16.966   4.573  1.00  0.00     0.037 A 
HETATM   23  C   UNL     1      43.574 -17.966   3.630  1.00  0.00     0.065 A 
HETATM   24  C   UNL     1      43.513 -17.687   2.271  1.00  0.00     0.037 A 
HETATM   25  C   UNL     1      43.243 -16.387   1.845  1.00  0.00     0.012 A 
BRANCH  23  26
HETATM   26  O   UNL     1      43.837 -19.251   4.000  1.00  0.00    -0.361 OA
HETATM   27  H   UNL     1      44.729 -19.292   4.383  1.00  0.00     0.217 HD
ENDBRANCH  23  26
ENDBRANCH   2  20
BRANCH   6  28
HETATM   28  C   UNL     1      40.598 -11.297   4.950  1.00  0.00     0.042 A 
HETATM   29  C   UNL     1      39.990 -11.817   6.100  1.00  0.00     0.030 A 
HETATM   30  C   UNL     1      39.289 -10.975   6.965  1.00  0.00     0.002 A 
HETATM   31  C   UNL     1      39.186  -9.613   6.684  1.00  0.00     0.000 A 
HETATM   32  C   UNL     1      39.786  -9.089   5.539  1.00  0.00     0.002 A 
HETATM   33  C   UNL     1      40.493  -9.927   4.673  1.00  0.00     0.030 A 
ENDBRANCH   6  28
TORSDOF 5
ENDMDL
MODEL 4
REMARK VINA RESULT:      -8.4      3.386      6.868
REMARK  5 active torsions:
REMARK  status: ('A' for Active; 'I' for Inactive)
REMARK    1  A    between atoms: C_5  and  N_6 
REMARK       I    between atoms: N_6  and  C_7 
REMARK    2  A    between atoms: C_7  and  C_8 
REMARK    3  A    between atoms: C_9  and  C_10 
REMARK    4  A    between atoms: C_13  and  O_14 
REMARK    5  A    between atoms: N_20  and  C_21 
ROOT
HETATM    1  C   UNL     1      42.422 -13.144   3.618  1.00  0.00     0.060 C 
HETATM    2  C   UNL     1      41.745 -12.859   4.914  1.00  0.00     0.158 C 
HETATM    3  N   UNL     1      41.314 -14.086   5.534  1.00  0.00    -0.354 N 
HETATM    4  C   UNL     1      41.769 -15.341   5.247  1.00  0.00     0.179 C 
HETATM    5  S   UNL     1      41.234 -16.539   6.301  1.00  0.00    -0.040 SA
HETATM    6  N   UNL     1      42.569 -15.480   4.089  1.00  0.00    -0.292 N 
HETATM    7  C   UNL     1      42.821 -14.375   3.239  1.00  0.00     0.030 C 
HETATM    8  C   UNL     1      43.592 -14.596   1.953  1.00  0.00     0.070 C 
HETATM    9  H   UNL     1      40.751 -14.016   6.373  1.00  0.00     0.163 HD
ENDROOT
BRANCH   1  10
HETATM   10  C   UNL     1      42.495 -11.997   2.673  1.00  0.00     0.257 C 
HETATM   11  N   UNL     1      41.493 -12.006   1.732  1.00  0.00    -0.306 N 
HETATM   12  H   UNL     1      40.787 -12.727   1.756  1.00  0.00     0.170 HD
HETATM   13  O   UNL     1      43.403 -11.187   2.802  1.00  0.00    -0.267 OA
BRANCH  11  14
HETATM   14  C   UNL     1      41.416 -11.115   0.677  1.00  0.00     0.160 A 
HETATM   15  N   UNL     1      41.761  -9.826   0.711  1.00  0.00    -0.110 NA
HETATM   16  O   UNL     1      41.548  -9.329  -0.557  1.00  0.00    -0.216 OA
HETATM   17  C   UNL     1      41.081 -10.321  -1.357  1.00  0.00     0.078 A 
HETATM   18  C   UNL     1      40.817  -9.966  -2.764  1.00  0.00     0.079 C 
HETATM   19  C   UNL     1      40.971 -11.474  -0.621  1.00  0.00     0.087 A 
ENDBRANCH  11  14
ENDBRANCH   1  10
BRANCH   2  20
HETATM   20  C   UNL     1      42.621 -12.081   5.889  1.00  0.00    -0.031 A 
HETATM   21  C   UNL     1      42.175 -10.855   6.413  1.00  0.00     0.012 A 
HETATM   22  C   UNL     1      42.980 -10.118   7.286  1.00  0.00     0.037 A 
HETATM   23  C   UNL     1      44.235 -10.604   7.636  1.00  0.00     0.065 A 
HETATM   24  C   UNL     1      44.696 -11.813   7.133  1.00  0.00     0.037 A 
HETATM   25  C   UNL     1      43.891 -12.552   6.267  1.00  0.00     0.012 A 
BRANCH  23  26
HETATM   26  O   UNL     1      45.053  -9.917   8.482  1.00  0.00    -0.361 OA
HETATM   27  H   UNL     1      44.509  -9.361   9.064  1.00  0.00     0.217 HD
ENDBRANCH  23  26
ENDBRANCH   2  20
BRANCH   6  28
HETATM   28  C   UNL     1      42.995 -16.801   3.715  1.00  0.00     0.042 A 
HETATM   29  C   UNL     1      44.034 -17.434   4.411  1.00  0.00     0.030 A 
HETATM   30  C   UNL     1      44.449 -18.713   4.039  1.00  0.00     0.002 A 
HETATM   31  C   UNL     1      43.835 -19.365   2.970  1.00  0.00     0.000 A 
HETATM   32  C   UNL     1      42.803 -18.740   2.272  1.00  0.00     0.002 A 
HETATM   33  C   UNL     1      42.380 -17.461   2.643  1.00  0.00     0.030 A 
ENDBRANCH   6  28
TORSDOF 5
ENDMDL
MODEL 5
REMARK VINA RESULT:      -7.9      4.059      6.792
REMARK  5 active torsions:
REMARK  status: ('A' for Active; 'I' for Inactive)
REMARK    1  A    between atoms: C_5  and  N_6 
REMARK       I    between atoms: N_6  and  C_7 
REMARK    2  A    between atoms: C_7  and  C_8 
REMARK    3  A    between atoms: C_9  and  C_10 
REMARK    4  A    between atoms: C_13  and  O_14 
REMARK    5  A    between atoms: N_20  and  C_21 
ROOT
HETATM    1  C   UNL     1      43.063 -11.357   5.330  1.00  0.00     0.060 C 
HETATM    2  C   UNL     1      42.571 -10.186   4.552  1.00  0.00     0.158 C 
HETATM    3  N   UNL     1      42.260 -10.579   3.202  1.00  0.00    -0.354 N 
HETATM    4  C   UNL     1      42.040 -11.852   2.759  1.00  0.00     0.179 C 
HETATM    5  S   UNL     1      41.476 -11.956   1.177  1.00  0.00    -0.040 SA
HETATM    6  N   UNL     1      42.364 -12.902   3.650  1.00  0.00    -0.292 N 
HETATM    7  C   UNL     1      42.951 -12.634   4.910  1.00  0.00     0.030 C 
HETATM    8  C   UNL     1      43.381 -13.795   5.784  1.00  0.00     0.070 C 
HETATM    9  H   UNL     1      42.011  -9.848   2.545  1.00  0.00     0.163 HD
ENDROOT
BRANCH   1  10
HETATM   10  C   UNL     1      43.843 -11.024   6.553  1.00  0.00     0.257 C 
HETATM   11  N   UNL     1      43.063 -10.907   7.679  1.00  0.00    -0.306 N 
HETATM   12  H   UNL     1      42.069 -11.078   7.622  1.00  0.00     0.170 HD
HETATM   13  O   UNL     1      45.055 -10.880   6.455  1.00  0.00    -0.267 OA
BRANCH  11  14
HETATM   14  C   UNL     1      43.538 -10.489   8.909  1.00  0.00     0.160 A 
HETATM   15  N   UNL     1      44.648 -10.923   9.509  1.00  0.00    -0.110 NA
HETATM   16  O   UNL     1      44.751 -10.226  10.695  1.00  0.00    -0.216 OA
HETATM   17  C   UNL     1      43.707  -9.366  10.804  1.00  0.00     0.078 A 
HETATM   18  C   UNL     1      43.670  -8.520  12.011  1.00  0.00     0.079 C 
HETATM   19  C   UNL     1      42.902  -9.499   9.700  1.00  0.00     0.087 A 
ENDBRANCH  11  14
ENDBRANCH   1  10
BRANCH   2  20
HETATM   20  C   UNL     1      41.352  -9.519   5.178  1.00  0.00    -0.031 A 
HETATM   21  C   UNL     1      40.154 -10.239   5.328  1.00  0.00     0.012 A 
HETATM   22  C   UNL     1      39.020  -9.631   5.874  1.00  0.00     0.037 A 
HETATM   23  C   UNL     1      39.081  -8.299   6.271  1.00  0.00     0.065 A 
HETATM   24  C   UNL     1      40.254  -7.568   6.134  1.00  0.00     0.037 A 
HETATM   25  C   UNL     1      41.387  -8.177   5.595  1.00  0.00     0.012 A 
BRANCH  23  26
HETATM   26  O   UNL     1      37.999  -7.666   6.805  1.00  0.00    -0.361 OA
HETATM   27  H   UNL     1      37.271  -7.689   6.162  1.00  0.00     0.217 HD
ENDBRANCH  23  26
ENDBRANCH   2  20
BRANCH   6  28
HETATM   28  C   UNL     1      42.221 -14.253   3.183  1.00  0.00     0.042 A 
HETATM   29  C   UNL     1      41.059 -14.983   3.468  1.00  0.00     0.030 A 
HETATM   30  C   UNL     1      40.928 -16.298   3.020  1.00  0.00     0.002 A 
HETATM   31  C   UNL     1      41.957 -16.893   2.290  1.00  0.00     0.000 A 
HETATM   32  C   UNL     1      43.117 -16.174   2.005  1.00  0.00     0.002 A 
HETATM   33  C   UNL     1      43.251 -14.856   2.448  1.00  0.00     0.030 A 
ENDBRANCH   6  28
TORSDOF 5
ENDMDL
MODEL 6
REMARK VINA RESULT:      -7.8      4.391      7.671
REMARK  5 active torsions:
REMARK  status: ('A' for Active; 'I' for Inactive)
REMARK    1  A    between atoms: C_5  and  N_6 
REMARK       I    between atoms: N_6  and  C_7 
REMARK    2  A    between atoms: C_7  and  C_8 
REMARK    3  A    between atoms: C_9  and  C_10 
REMARK    4  A    between atoms: C_13  and  O_14 
REMARK    5  A    between atoms: N_20  and  C_21 
ROOT
HETATM    1  C   UNL     1      42.055 -11.965   5.710  1.00  0.00     0.060 C 
HETATM    2  C   UNL     1      42.716 -12.296   7.003  1.00  0.00     0.158 C 
HETATM    3  N   UNL     1      42.911 -13.718   7.116  1.00  0.00    -0.354 N 
HETATM    4  C   UNL     1      42.893 -14.622   6.091  1.00  0.00     0.179 C 
HETATM    5  S   UNL     1      43.380 -16.175   6.518  1.00  0.00    -0.040 SA
HETATM    6  N   UNL     1      42.422 -14.158   4.840  1.00  0.00    -0.292 N 
HETATM    7  C   UNL     1      41.931 -12.839   4.689  1.00  0.00     0.030 C 
HETATM    8  C   UNL     1      41.335 -12.423   3.360  1.00  0.00     0.070 C 
HETATM    9  H   UNL     1      43.261 -14.077   7.996  1.00  0.00     0.163 HD
ENDROOT
BRANCH   1  10
HETATM   10  C   UNL     1      41.383 -10.638   5.661  1.00  0.00     0.257 C 
HETATM   11  N   UNL     1      40.076 -10.677   6.085  1.00  0.00    -0.306 N 
HETATM   12  H   UNL     1      39.681 -11.544   6.420  1.00  0.00     0.170 HD
HETATM   13  O   UNL     1      42.018  -9.673   5.256  1.00  0.00    -0.267 OA
BRANCH  11  14
HETATM   14  C   UNL     1      39.210  -9.600   6.020  1.00  0.00     0.160 A 
HETATM   15  N   UNL     1      38.914  -8.770   7.023  1.00  0.00    -0.110 NA
HETATM   16  O   UNL     1      38.037  -7.836   6.512  1.00  0.00    -0.216 OA
HETATM   17  C   UNL     1      37.811  -8.099   5.200  1.00  0.00     0.078 A 
HETATM   18  C   UNL     1      36.906  -7.179   4.487  1.00  0.00     0.079 C 
HETATM   19  C   UNL     1      38.526  -9.215   4.840  1.00  0.00     0.087 A 
ENDBRANCH  11  14
ENDBRANCH   1  10
BRANCH   2  20
HETATM   20  C   UNL     1      44.052 -11.586   7.191  1.00  0.00    -0.031 A 
HETATM   21  C   UNL     1      44.252 -10.743   8.298  1.00  0.00     0.012 A 
HETATM   22  C   UNL     1      45.462 -10.065   8.468  1.00  0.00     0.037 A 
HETATM   23  C   UNL     1      46.475 -10.226   7.530  1.00  0.00     0.065 A 
HETATM   24  C   UNL     1      46.301 -11.054   6.429  1.00  0.00     0.037 A 
HETATM   25  C   UNL     1      45.097 -11.737   6.262  1.00  0.00     0.012 A 
BRANCH  23  26
HETATM   26  O   UNL     1      47.669  -9.581   7.655  1.00  0.00    -0.361 OA
HETATM   27  H   UNL     1      48.184  -9.712   6.841  1.00  0.00     0.217 HD
ENDBRANCH  23  26
ENDBRANCH   2  20
BRANCH   6  28
HETATM   28  C   UNL     1      42.314 -15.106   3.765  1.00  0.00     0.042 A 
HETATM   29  C   UNL     1      41.141 -15.853   3.595  1.00  0.00     0.030 A 
HETATM   30  C   UNL     1      41.043 -16.778   2.555  1.00  0.00     0.002 A 
HETATM   31  C   UNL     1      42.116 -16.967   1.684  1.00  0.00     0.000 A 
HETATM   32  C   UNL     1      43.287 -16.229   1.850  1.00  0.00     0.002 A 
HETATM   33  C   UNL     1      43.388 -15.298   2.887  1.00  0.00     0.030 A 
ENDBRANCH   6  28
TORSDOF 5
ENDMDL
MODEL 7
REMARK VINA RESULT:      -7.7      3.061      6.299
REMARK  5 active torsions:
REMARK  status: ('A' for Active; 'I' for Inactive)
REMARK    1  A    between atoms: C_5  and  N_6 
REMARK       I    between atoms: N_6  and  C_7 
REMARK    2  A    between atoms: C_7  and  C_8 
REMARK    3  A    between atoms: C_9  and  C_10 
REMARK    4  A    between atoms: C_13  and  O_14 
REMARK    5  A    between atoms: N_20  and  C_21 
ROOT
HETATM    1  C   UNL     1      40.689 -12.829   4.418  1.00  0.00     0.060 C 
HETATM    2  C   UNL     1      41.774 -13.694   4.960  1.00  0.00     0.158 C 
HETATM    3  N   UNL     1      42.154 -14.688   3.989  1.00  0.00    -0.354 N 
HETATM    4  C   UNL     1      41.898 -14.648   2.648  1.00  0.00     0.179 C 
HETATM    5  S   UNL     1      42.669 -15.845   1.751  1.00  0.00    -0.040 SA
HETATM    6  N   UNL     1      40.990 -13.659   2.201  1.00  0.00    -0.292 N 
HETATM    7  C   UNL     1      40.332 -12.805   3.118  1.00  0.00     0.030 C 
HETATM    8  C   UNL     1      39.287 -11.836   2.602  1.00  0.00     0.070 C 
HETATM    9  H   UNL     1      42.814 -15.400   4.278  1.00  0.00     0.163 HD
ENDROOT
BRANCH   1  10
HETATM   10  C   UNL     1      39.895 -12.092   5.439  1.00  0.00     0.257 C 
HETATM   11  N   UNL     1      40.312 -10.795   5.616  1.00  0.00    -0.306 N 
HETATM   12  H   UNL     1      41.066 -10.427   5.053  1.00  0.00     0.170 HD
HETATM   13  O   UNL     1      38.988 -12.680   6.014  1.00  0.00    -0.267 OA
BRANCH  11  14
HETATM   14  C   UNL     1      39.812  -9.948   6.590  1.00  0.00     0.160 A 
HETATM   15  N   UNL     1      38.701  -9.215   6.495  1.00  0.00    -0.110 NA
HETATM   16  O   UNL     1      38.569  -8.547   7.695  1.00  0.00    -0.216 OA
HETATM   17  C   UNL     1      39.597  -8.884   8.514  1.00  0.00     0.078 A 
HETATM   18  C   UNL     1      39.602  -8.272   9.855  1.00  0.00     0.079 C 
HETATM   19  C   UNL     1      40.420  -9.765   7.857  1.00  0.00     0.087 A 
ENDBRANCH  11  14
ENDBRANCH   1  10
BRANCH   2  20
HETATM   20  C   UNL     1      43.009 -12.909   5.388  1.00  0.00    -0.031 A 
HETATM   21  C   UNL     1      43.488 -13.013   6.705  1.00  0.00     0.012 A 
HETATM   22  C   UNL     1      44.602 -12.277   7.119  1.00  0.00     0.037 A 
HETATM   23  C   UNL     1      45.239 -11.433   6.216  1.00  0.00     0.065 A 
HETATM   24  C   UNL     1      44.784 -11.314   4.909  1.00  0.00     0.037 A 
HETATM   25  C   UNL     1      43.677 -12.053   4.494  1.00  0.00     0.012 A 
BRANCH  23  26
HETATM   26  O   UNL     1      46.326 -10.695   6.578  1.00  0.00    -0.361 OA
HETATM   27  H   UNL     1      46.940 -11.262   7.073  1.00  0.00     0.217 HD
ENDBRANCH  23  26
ENDBRANCH   2  20
BRANCH   6  28
HETATM   28  C   UNL     1      40.639 -13.645   0.807  1.00  0.00     0.042 A 
HETATM   29  C   UNL     1      41.056 -12.592  -0.018  1.00  0.00     0.030 A 
HETATM   30  C   UNL     1      40.705 -12.578  -1.369  1.00  0.00     0.002 A 
HETATM   31  C   UNL     1      39.933 -13.610  -1.901  1.00  0.00     0.000 A 
HETATM   32  C   UNL     1      39.511 -14.659  -1.085  1.00  0.00     0.002 A 
HETATM   33  C   UNL     1      39.864 -14.680   0.267  1.00  0.00     0.030 A 
ENDBRANCH   6  28
TORSDOF 5
ENDMDL
MODEL 8
REMARK VINA RESULT:      -7.6      2.952      7.203
REMARK  5 active torsions:
REMARK  status: ('A' for Active; 'I' for Inactive)
REMARK    1  A    between atoms: C_5  and  N_6 
REMARK       I    between atoms: N_6  and  C_7 
REMARK    2  A    between atoms: C_7  and  C_8 
REMARK    3  A    between atoms: C_9  and  C_10 
REMARK    4  A    between atoms: C_13  and  O_14 
REMARK    5  A    between atoms: N_20  and  C_21 
ROOT
HETATM    1  C   UNL     1      41.600 -11.682   2.760  1.00  0.00     0.060 C 
HETATM    2  C   UNL     1      42.965 -12.252   2.926  1.00  0.00     0.158 C 
HETATM    3  N   UNL     1      43.585 -11.728   4.116  1.00  0.00    -0.354 N 
HETATM    4  C   UNL     1      42.946 -11.131   5.166  1.00  0.00     0.179 C 
HETATM    5  S   UNL     1      43.923 -10.833   6.503  1.00  0.00    -0.040 SA
HETATM    6  N   UNL     1      41.585 -10.796   4.976  1.00  0.00    -0.292 N 
HETATM    7  C   UNL     1      40.947 -11.010   3.730  1.00  0.00     0.030 C 
HETATM    8  C   UNL     1      39.521 -10.533   3.542  1.00  0.00     0.070 C 
HETATM    9  H   UNL     1      44.555 -11.964   4.284  1.00  0.00     0.163 HD
ENDROOT
BRANCH   1  10
HETATM   10  C   UNL     1      41.043 -11.758   1.381  1.00  0.00     0.257 C 
HETATM   11  N   UNL     1      40.052 -12.701   1.249  1.00  0.00    -0.306 N 
HETATM   12  H   UNL     1      39.752 -13.232   2.054  1.00  0.00     0.170 HD
HETATM   13  O   UNL     1      41.500 -11.016   0.521  1.00  0.00    -0.267 OA
BRANCH  11  14
HETATM   14  C   UNL     1      39.465 -13.042   0.044  1.00  0.00     0.160 A 
HETATM   15  N   UNL     1      38.579 -12.307  -0.632  1.00  0.00    -0.110 NA
HETATM   16  O   UNL     1      38.282 -13.011  -1.781  1.00  0.00    -0.216 OA
HETATM   17  C   UNL     1      38.996 -14.164  -1.800  1.00  0.00     0.078 A 
HETATM   18  C   UNL     1      38.815 -15.034  -2.977  1.00  0.00     0.079 C 
HETATM   19  C   UNL     1      39.757 -14.237  -0.660  1.00  0.00     0.087 A 
ENDBRANCH  11  14
ENDBRANCH   1  10
BRANCH   2  20
HETATM   20  C   UNL     1      42.976 -13.775   2.980  1.00  0.00    -0.031 A 
HETATM   21  C   UNL     1      42.716 -14.440   4.191  1.00  0.00     0.012 A 
HETATM   22  C   UNL     1      42.751 -15.835   4.261  1.00  0.00     0.037 A 
HETATM   23  C   UNL     1      43.049 -16.571   3.119  1.00  0.00     0.065 A 
HETATM   24  C   UNL     1      43.308 -15.937   1.911  1.00  0.00     0.037 A 
HETATM   25  C   UNL     1      43.267 -14.545   1.839  1.00  0.00     0.012 A 
BRANCH  23  26
HETATM   26  O   UNL     1      43.096 -17.932   3.142  1.00  0.00    -0.361 OA
HETATM   27  H   UNL     1      44.004 -18.219   2.948  1.00  0.00     0.217 HD
ENDBRANCH  23  26
ENDBRANCH   2  20
BRANCH   6  28
HETATM   28  C   UNL     1      40.909 -10.093   6.032  1.00  0.00     0.042 A 
HETATM   29  C   UNL     1      40.049 -10.778   6.902  1.00  0.00     0.030 A 
HETATM   30  C   UNL     1      39.388 -10.091   7.921  1.00  0.00     0.002 A 
HETATM   31  C   UNL     1      39.576  -8.718   8.073  1.00  0.00     0.000 A 
HETATM   32  C   UNL     1      40.427  -8.029   7.210  1.00  0.00     0.002 A 
HETATM   33  C   UNL     1      41.095  -8.714   6.191  1.00  0.00     0.030 A 
ENDBRANCH   6  28
TORSDOF 5
ENDMDL
MODEL 9
REMARK VINA RESULT:      -7.6      3.868      8.513
REMARK  5 active torsions:
REMARK  status: ('A' for Active; 'I' for Inactive)
REMARK    1  A    between atoms: C_5  and  N_6 
REMARK       I    between atoms: N_6  and  C_7 
REMARK    2  A    between atoms: C_7  and  C_8 
REMARK    3  A    between atoms: C_9  and  C_10 
REMARK    4  A    between atoms: C_13  and  O_14 
REMARK    5  A    between atoms: N_20  and  C_21 
ROOT
HETATM    1  C   UNL     1      42.039 -11.892   5.716  1.00  0.00     0.060 C 
HETATM    2  C   UNL     1      43.287 -12.656   5.435  1.00  0.00     0.158 C 
HETATM    3  N   UNL     1      44.425 -11.980   6.002  1.00  0.00    -0.354 N 
HETATM    4  C   UNL     1      44.397 -11.028   6.981  1.00  0.00     0.179 C 
HETATM    5  S   UNL     1      45.907 -10.598   7.586  1.00  0.00    -0.040 SA
HETATM    6  N   UNL     1      43.129 -10.494   7.315  1.00  0.00    -0.292 N 
HETATM    7  C   UNL     1      41.965 -10.886   6.611  1.00  0.00     0.030 C 
HETATM    8  C   UNL     1      40.648 -10.206   6.929  1.00  0.00     0.070 C 
HETATM    9  H   UNL     1      45.345 -12.349   5.792  1.00  0.00     0.163 HD
ENDROOT
BRANCH   1  10
HETATM   10  C   UNL     1      40.890 -12.202   4.823  1.00  0.00     0.257 C 
HETATM   11  N   UNL     1      40.977 -11.589   3.596  1.00  0.00    -0.306 N 
HETATM   12  H   UNL     1      41.785 -11.026   3.371  1.00  0.00     0.170 HD
HETATM   13  O   UNL     1      40.002 -12.933   5.241  1.00  0.00    -0.267 OA
BRANCH  11  14
HETATM   14  C   UNL     1      39.978 -11.626   2.640  1.00  0.00     0.160 A 
HETATM   15  N   UNL     1      39.938 -12.433   1.578  1.00  0.00    -0.110 NA
HETATM   16  O   UNL     1      38.762 -12.151   0.915  1.00  0.00    -0.216 OA
HETATM   17  C   UNL     1      38.089 -11.180   1.584  1.00  0.00     0.078 A 
HETATM   18  C   UNL     1      36.790 -10.768   1.021  1.00  0.00     0.079 C 
HETATM   19  C   UNL     1      38.823 -10.806   2.682  1.00  0.00     0.087 A 
ENDBRANCH  11  14
ENDBRANCH   1  10
BRANCH   2  20
HETATM   20  C   UNL     1      43.242 -14.089   5.951  1.00  0.00    -0.031 A 
HETATM   21  C   UNL     1      43.137 -14.340   7.330  1.00  0.00     0.012 A 
HETATM   22  C   UNL     1      43.124 -15.649   7.818  1.00  0.00     0.037 A 
HETATM   23  C   UNL     1      43.217 -16.713   6.927  1.00  0.00     0.065 A 
HETATM   24  C   UNL     1      43.320 -16.491   5.560  1.00  0.00     0.037 A 
HETATM   25  C   UNL     1      43.327 -15.184   5.072  1.00  0.00     0.012 A 
BRANCH  23  26
HETATM   26  O   UNL     1      43.210 -18.005   7.360  1.00  0.00    -0.361 OA
HETATM   27  H   UNL     1      42.289 -18.298   7.463  1.00  0.00     0.217 HD
ENDBRANCH  23  26
ENDBRANCH   2  20
BRANCH   6  28
HETATM   28  C   UNL     1      43.076  -9.433   8.283  1.00  0.00     0.042 A 
HETATM   29  C   UNL     1      43.121  -8.094   7.870  1.00  0.00     0.030 A 
HETATM   30  C   UNL     1      43.078  -7.067   8.814  1.00  0.00     0.002 A 
HETATM   31  C   UNL     1      42.996  -7.370  10.172  1.00  0.00     0.000 A 
HETATM   32  C   UNL     1      42.954  -8.699  10.590  1.00  0.00     0.002 A 
HETATM   33  C   UNL     1      42.992  -9.731   9.649  1.00  0.00     0.030 A 
ENDBRANCH   6  28
TORSDOF 5
ENDMDL
MODEL 10
REMARK VINA RESULT:      -7.5      4.283      7.805
REMARK  5 active torsions:
REMARK  status: ('A' for Active; 'I' for Inactive)
REMARK    1  A    between atoms: C_5  and  N_6 
REMARK       I    between atoms: N_6  and  C_7 
REMARK    2  A    between atoms: C_7  and  C_8 
REMARK    3  A    between atoms: C_9  and  C_10 
REMARK    4  A    between atoms: C_13  and  O_14 
REMARK    5  A    between atoms: N_20  and  C_21 
ROOT
HETATM    1  C   UNL     1      42.009 -12.353   5.982  1.00  0.00     0.060 C 
HETATM    2  C   UNL     1      42.824 -12.655   7.191  1.00  0.00     0.158 C 
HETATM    3  N   UNL     1      43.278 -14.021   7.160  1.00  0.00    -0.354 N 
HETATM    4  C   UNL     1      43.337 -14.830   6.061  1.00  0.00     0.179 C 
HETATM    5  S   UNL     1      44.127 -16.294   6.309  1.00  0.00    -0.040 SA
HETATM    6  N   UNL     1      42.689 -14.365   4.892  1.00  0.00    -0.292 N 
HETATM    7  C   UNL     1      41.959 -13.152   4.896  1.00  0.00     0.030 C 
HETATM    8  C   UNL     1      41.190 -12.750   3.653  1.00  0.00     0.070 C 
HETATM    9  H   UNL     1      43.759 -14.376   7.978  1.00  0.00     0.163 HD
ENDROOT
BRANCH   1  10
HETATM   10  C   UNL     1      41.109 -11.173   6.100  1.00  0.00     0.257 C 
HETATM   11  N   UNL     1      41.681 -10.008   5.647  1.00  0.00    -0.306 N 
HETATM   12  H   UNL     1      42.610 -10.024   5.251  1.00  0.00     0.170 HD
HETATM   13  O   UNL     1      39.994 -11.331   6.578  1.00  0.00    -0.267 OA
BRANCH  11  14
HETATM   14  C   UNL     1      41.092  -8.762   5.761  1.00  0.00     0.160 A 
HETATM   15  N   UNL     1      39.961  -8.372   5.168  1.00  0.00    -0.110 NA
HETATM   16  O   UNL     1      39.732  -7.074   5.576  1.00  0.00    -0.216 OA
HETATM   17  C   UNL     1      40.721  -6.687   6.422  1.00  0.00     0.078 A 
HETATM   18  C   UNL     1      40.621  -5.323   6.974  1.00  0.00     0.079 C 
HETATM   19  C   UNL     1      41.614  -7.719   6.566  1.00  0.00     0.087 A 
ENDBRANCH  11  14
ENDBRANCH   1  10
BRANCH   2  20
HETATM   20  C   UNL     1      44.022 -11.727   7.354  1.00  0.00    -0.031 A 
HETATM   21  C   UNL     1      44.025 -10.749   8.364  1.00  0.00     0.012 A 
HETATM   22  C   UNL     1      45.105  -9.874   8.507  1.00  0.00     0.037 A 
HETATM   23  C   UNL     1      46.186  -9.973   7.637  1.00  0.00     0.065 A 
HETATM   24  C   UNL     1      46.207 -10.931   6.633  1.00  0.00     0.037 A 
HETATM   25  C   UNL     1      45.132 -11.810   6.495  1.00  0.00     0.012 A 
BRANCH  23  26
HETATM   26  O   UNL     1      47.258  -9.138   7.738  1.00  0.00    -0.361 OA
HETATM   27  H   UNL     1      47.903  -9.528   8.351  1.00  0.00     0.217 HD
ENDBRANCH  23  26
ENDBRANCH   2  20
BRANCH   6  28
HETATM   28  C   UNL     1      42.663 -15.229   3.744  1.00  0.00     0.042 A 
HETATM   29  C   UNL     1      43.467 -14.952   2.630  1.00  0.00     0.030 A 
HETATM   30  C   UNL     1      43.433 -15.789   1.514  1.00  0.00     0.002 A 
HETATM   31  C   UNL     1      42.593 -16.903   1.502  1.00  0.00     0.000 A 
HETATM   32  C   UNL     1      41.788 -17.183   2.605  1.00  0.00     0.002 A 
HETATM   33  C   UNL     1      41.823 -16.350   3.726  1.00  0.00     0.030 A 
ENDBRANCH   6  28
TORSDOF 5
ENDMDL
