MODEL 1
REMARK VINA RESULT:      -9.1      0.000      0.000
REMARK  7 active torsions:
REMARK  status: ('A' for Active; 'I' for Inactive)
REMARK    1  A    between atoms: C_6  and  O_7 
REMARK    2  A    between atoms: O_7  and  C_8 
REMARK    3  A    between atoms: C_8  and  C_9 
REMARK       I    between atoms: C_9  and  N_10 
REMARK    4  A    between atoms: N_10  and  C_11 
REMARK    5  A    between atoms: C_14  and  N_15 
REMARK    6  A    between atoms: N_18  and  C_20 
REMARK    7  A    between atoms: C_20  and  C_21 
ROOT
HETATM    1  C   UNL     1      43.248 -12.355   5.721  1.00  0.00     0.034 A 
HETATM    2  C   UNL     1      42.465 -11.206   5.613  1.00  0.00     0.032 A 
HETATM    3  C   UNL     1      42.526 -10.203   6.592  1.00  0.00     0.031 A 
HETATM    4  C   UNL     1      43.359 -10.322   7.715  1.00  0.00     0.030 A 
HETATM    5  C   UNL     1      44.182 -11.450   7.775  1.00  0.00     0.031 A 
HETATM    6  C   UNL     1      44.133 -12.451   6.794  1.00  0.00     0.032 A 
ENDROOT
BRANCH   1   7
HETATM    7  N   UNL     1      43.046 -13.383   4.780  1.00  0.00    -0.325 N 
HETATM    8  C   UNL     1      41.940 -14.208   4.668  1.00  0.00     0.246 C 
HETATM    9  O   UNL     1      41.022 -14.303   5.479  1.00  0.00    -0.271 OA
HETATM   10  H   UNL     1      43.751 -13.511   4.059  1.00  0.00     0.169 HD
BRANCH   8  11
HETATM   11  C   UNL     1      41.872 -14.960   3.338  1.00  0.00     0.278 C 
BRANCH  11  12
HETATM   12  O   UNL     1      43.139 -15.447   2.903  1.00  0.00    -0.342 OA
BRANCH  12  13
HETATM   13  C   UNL     1      43.400 -16.746   3.265  1.00  0.00     0.069 A 
HETATM   14  C   UNL     1      43.299 -17.852   2.417  1.00  0.00     0.044 A 
HETATM   15  C   UNL     1      43.585 -19.151   2.878  1.00  0.00    -0.053 A 
HETATM   16  C   UNL     1      43.952 -19.341   4.222  1.00  0.00    -0.056 A 
HETATM   17  C   UNL     1      43.437 -20.308   1.926  1.00  0.00     0.049 C 
HETATM   18  C   UNL     1      44.236 -20.711   4.776  1.00  0.00     0.049 C 
HETATM   19  C   UNL     1      44.087 -18.221   5.057  1.00  0.00     0.010 A 
HETATM   20  C   UNL     1      43.820 -16.935   4.579  1.00  0.00     0.037 A 
ENDBRANCH  12  13
ENDBRANCH  11  12
ENDBRANCH   8  11
ENDBRANCH   1   7
BRANCH   4  21
HETATM   21  N   UNL     1      43.273  -9.394   8.747  1.00  0.00    -0.378 N 
HETATM   22  C   UNL     1      42.984  -9.853  10.111  1.00  0.00     0.150 C 
HETATM   23  C   UNL     1      42.219  -8.743  10.859  1.00  0.00     0.255 C 
HETATM   24  N   UNL     1      42.982  -7.412  10.823  1.00  0.00    -0.064 N 
HETATM   25  H   UNL     1      43.836  -7.549  11.376  1.00  0.00     0.280 HD
HETATM   26  C   UNL     1      43.397  -7.031   9.396  1.00  0.00     0.255 C 
HETATM   27  C   UNL     1      44.111  -8.190   8.668  1.00  0.00     0.150 C 
BRANCH  24  28
HETATM   28  C   UNL     1      42.200  -6.283  11.457  1.00  0.00     0.273 C 
BRANCH  28  29
HETATM   29  C   UNL     1      41.941  -6.461  12.928  1.00  0.00    -0.033 A 
HETATM   30  C   UNL     1      42.963  -6.875  13.794  1.00  0.00     0.009 A 
HETATM   31  C   UNL     1      42.702  -7.061  15.152  1.00  0.00     0.001 A 
HETATM   32  C   UNL     1      41.424  -6.837  15.658  1.00  0.00     0.000 A 
HETATM   33  C   UNL     1      40.401  -6.425  14.808  1.00  0.00     0.001 A 
HETATM   34  C   UNL     1      40.655  -6.236  13.451  1.00  0.00     0.009 A 
ENDBRANCH  28  29
ENDBRANCH  24  28
ENDBRANCH   4  21
TORSDOF 7
ENDMDL
MODEL 2
REMARK VINA RESULT:      -8.9      3.129     11.279
REMARK  7 active torsions:
REMARK  status: ('A' for Active; 'I' for Inactive)
REMARK    1  A    between atoms: C_6  and  O_7 
REMARK    2  A    between atoms: O_7  and  C_8 
REMARK    3  A    between atoms: C_8  and  C_9 
REMARK       I    between atoms: C_9  and  N_10 
REMARK    4  A    between atoms: N_10  and  C_11 
REMARK    5  A    between atoms: C_14  and  N_15 
REMARK    6  A    between atoms: N_18  and  C_20 
REMARK    7  A    between atoms: C_20  and  C_21 
ROOT
HETATM    1  C   UNL     1      39.945 -10.329   6.899  1.00  0.00     0.034 A 
HETATM    2  C   UNL     1      41.300 -10.549   6.645  1.00  0.00     0.032 A 
HETATM    3  C   UNL     1      41.715 -11.651   5.882  1.00  0.00     0.031 A 
HETATM    4  C   UNL     1      40.795 -12.573   5.361  1.00  0.00     0.030 A 
HETATM    5  C   UNL     1      39.440 -12.303   5.572  1.00  0.00     0.031 A 
HETATM    6  C   UNL     1      39.018 -11.198   6.324  1.00  0.00     0.032 A 
ENDROOT
BRANCH   1   7
HETATM    7  N   UNL     1      39.600  -9.286   7.779  1.00  0.00    -0.325 N 
HETATM    8  C   UNL     1      39.052  -9.408   9.044  1.00  0.00     0.246 C 
HETATM    9  O   UNL     1      38.609 -10.438   9.547  1.00  0.00    -0.271 OA
HETATM   10  H   UNL     1      39.823  -8.335   7.497  1.00  0.00     0.169 HD
BRANCH   8  11
HETATM   11  C   UNL     1      39.136  -8.123   9.871  1.00  0.00     0.278 C 
BRANCH  11  12
HETATM   12  O   UNL     1      39.888  -8.276  11.072  1.00  0.00    -0.342 OA
BRANCH  12  13
HETATM   13  C   UNL     1      41.214  -8.574  10.875  1.00  0.00     0.069 A 
HETATM   14  C   UNL     1      42.056  -7.928   9.967  1.00  0.00     0.044 A 
HETATM   15  C   UNL     1      43.406  -8.303   9.831  1.00  0.00    -0.053 A 
HETATM   16  C   UNL     1      43.907  -9.365  10.605  1.00  0.00    -0.056 A 
HETATM   17  C   UNL     1      44.261  -7.588   8.819  1.00  0.00     0.049 C 
HETATM   18  C   UNL     1      45.333  -9.830  10.477  1.00  0.00     0.049 C 
HETATM   19  C   UNL     1      43.065  -9.984  11.542  1.00  0.00     0.010 A 
HETATM   20  C   UNL     1      41.732  -9.585  11.679  1.00  0.00     0.037 A 
ENDBRANCH  12  13
ENDBRANCH  11  12
ENDBRANCH   8  11
ENDBRANCH   1   7
BRANCH   4  21
HETATM   21  N   UNL     1      41.247 -13.740   4.754  1.00  0.00    -0.378 N 
HETATM   22  C   UNL     1      41.663 -14.875   5.587  1.00  0.00     0.150 C 
HETATM   23  C   UNL     1      42.758 -15.665   4.844  1.00  0.00     0.255 C 
HETATM   24  N   UNL     1      42.293 -16.087   3.443  1.00  0.00    -0.064 N 
HETATM   25  H   UNL     1      41.538 -16.767   3.578  1.00  0.00     0.280 HD
HETATM   26  C   UNL     1      41.730 -14.902   2.648  1.00  0.00     0.255 C 
HETATM   27  C   UNL     1      40.677 -14.110   3.452  1.00  0.00     0.150 C 
BRANCH  24  28
HETATM   28  C   UNL     1      43.389 -16.769   2.654  1.00  0.00     0.273 C 
BRANCH  28  29
HETATM   29  C   UNL     1      43.578 -18.223   2.990  1.00  0.00    -0.033 A 
HETATM   30  C   UNL     1      43.237 -19.224   2.069  1.00  0.00     0.009 A 
HETATM   31  C   UNL     1      43.395 -20.570   2.402  1.00  0.00     0.001 A 
HETATM   32  C   UNL     1      43.890 -20.929   3.654  1.00  0.00     0.000 A 
HETATM   33  C   UNL     1      44.233 -19.945   4.576  1.00  0.00     0.001 A 
HETATM   34  C   UNL     1      44.080 -18.598   4.248  1.00  0.00     0.009 A 
ENDBRANCH  28  29
ENDBRANCH  24  28
ENDBRANCH   4  21
TORSDOF 7
ENDMDL
MODEL 3
REMARK VINA RESULT:      -8.7      1.424      2.007
REMARK  7 active torsions:
REMARK  status: ('A' for Active; 'I' for Inactive)
REMARK    1  A    between atoms: C_6  and  O_7 
REMARK    2  A    between atoms: O_7  and  C_8 
REMARK    3  A    between atoms: C_8  and  C_9 
REMARK       I    between atoms: C_9  and  N_10 
REMARK    4  A    between atoms: N_10  and  C_11 
REMARK    5  A    between atoms: C_14  and  N_15 
REMARK    6  A    between atoms: N_18  and  C_20 
REMARK    7  A    between atoms: C_20  and  C_21 
ROOT
HETATM    1  C   UNL     1      43.124 -12.423   5.705  1.00  0.00     0.034 A 
HETATM    2  C   UNL     1      42.561 -11.198   5.347  1.00  0.00     0.032 A 
HETATM    3  C   UNL     1      42.616 -10.102   6.223  1.00  0.00     0.031 A 
HETATM    4  C   UNL     1      43.219 -10.200   7.485  1.00  0.00     0.030 A 
HETATM    5  C   UNL     1      43.831 -11.415   7.801  1.00  0.00     0.031 A 
HETATM    6  C   UNL     1      43.790 -12.510   6.927  1.00  0.00     0.032 A 
ENDROOT
BRANCH   1   7
HETATM    7  N   UNL     1      42.922 -13.519   4.844  1.00  0.00    -0.325 N 
HETATM    8  C   UNL     1      41.806 -14.334   4.777  1.00  0.00     0.246 C 
HETATM    9  O   UNL     1      40.873 -14.354   5.577  1.00  0.00    -0.271 OA
HETATM   10  H   UNL     1      43.637 -13.712   4.148  1.00  0.00     0.169 HD
BRANCH   8  11
HETATM   11  C   UNL     1      41.749 -15.187   3.508  1.00  0.00     0.278 C 
BRANCH  11  12
HETATM   12  O   UNL     1      43.034 -15.612   3.059  1.00  0.00    -0.342 OA
BRANCH  12  13
HETATM   13  C   UNL     1      43.358 -16.899   3.411  1.00  0.00     0.069 A 
HETATM   14  C   UNL     1      43.407 -17.984   2.531  1.00  0.00     0.044 A 
HETATM   15  C   UNL     1      43.748 -19.273   2.982  1.00  0.00    -0.053 A 
HETATM   16  C   UNL     1      44.020 -19.476   4.347  1.00  0.00    -0.056 A 
HETATM   17  C   UNL     1      43.762 -20.409   1.994  1.00  0.00     0.049 C 
HETATM   18  C   UNL     1      44.358 -20.838   4.889  1.00  0.00     0.049 C 
HETATM   19  C   UNL     1      44.006 -18.374   5.217  1.00  0.00     0.010 A 
HETATM   20  C   UNL     1      43.685 -17.097   4.749  1.00  0.00     0.037 A 
ENDBRANCH  12  13
ENDBRANCH  11  12
ENDBRANCH   8  11
ENDBRANCH   1   7
BRANCH   4  21
HETATM   21  N   UNL     1      43.109  -9.151   8.392  1.00  0.00    -0.378 N 
HETATM   22  C   UNL     1      43.860  -9.202   9.652  1.00  0.00     0.150 C 
HETATM   23  C   UNL     1      43.072  -8.439  10.735  1.00  0.00     0.255 C 
HETATM   24  N   UNL     1      42.746  -7.007  10.287  1.00  0.00    -0.064 N 
HETATM   25  H   UNL     1      43.641  -6.509  10.227  1.00  0.00     0.280 HD
HETATM   26  C   UNL     1      42.092  -6.977   8.901  1.00  0.00     0.255 C 
HETATM   27  C   UNL     1      42.888  -7.798   7.864  1.00  0.00     0.150 C 
BRANCH  24  28
HETATM   28  C   UNL     1      41.880  -6.275  11.288  1.00  0.00     0.273 C 
BRANCH  28  29
HETATM   29  C   UNL     1      42.338  -4.876  11.595  1.00  0.00    -0.033 A 
HETATM   30  C   UNL     1      42.933  -4.080  10.605  1.00  0.00     0.009 A 
HETATM   31  C   UNL     1      43.377  -2.792  10.910  1.00  0.00     0.001 A 
HETATM   32  C   UNL     1      43.233  -2.288  12.200  1.00  0.00     0.000 A 
HETATM   33  C   UNL     1      42.642  -3.067  13.191  1.00  0.00     0.001 A 
HETATM   34  C   UNL     1      42.195  -4.354  12.893  1.00  0.00     0.009 A 
ENDBRANCH  28  29
ENDBRANCH  24  28
ENDBRANCH   4  21
TORSDOF 7
ENDMDL
MODEL 4
REMARK VINA RESULT:      -8.7      2.813     11.778
REMARK  7 active torsions:
REMARK  status: ('A' for Active; 'I' for Inactive)
REMARK    1  A    between atoms: C_6  and  O_7 
REMARK    2  A    between atoms: O_7  and  C_8 
REMARK    3  A    between atoms: C_8  and  C_9 
REMARK       I    between atoms: C_9  and  N_10 
REMARK    4  A    between atoms: N_10  and  C_11 
REMARK    5  A    between atoms: C_14  and  N_15 
REMARK    6  A    between atoms: N_18  and  C_20 
REMARK    7  A    between atoms: C_20  and  C_21 
ROOT
HETATM    1  C   UNL     1      39.815 -10.024   6.643  1.00  0.00     0.034 A 
HETATM    2  C   UNL     1      41.186 -10.222   6.480  1.00  0.00     0.032 A 
HETATM    3  C   UNL     1      41.672 -11.381   5.856  1.00  0.00     0.031 A 
HETATM    4  C   UNL     1      40.808 -12.382   5.390  1.00  0.00     0.030 A 
HETATM    5  C   UNL     1      39.437 -12.139   5.505  1.00  0.00     0.031 A 
HETATM    6  C   UNL     1      38.944 -10.978   6.118  1.00  0.00     0.032 A 
ENDROOT
BRANCH   1   7
HETATM    7  N   UNL     1      39.393  -8.908   7.392  1.00  0.00    -0.325 N 
HETATM    8  C   UNL     1      38.981  -8.897   8.714  1.00  0.00     0.246 C 
HETATM    9  O   UNL     1      38.742  -9.883   9.407  1.00  0.00    -0.271 OA
HETATM   10  H   UNL     1      39.447  -7.994   6.951  1.00  0.00     0.169 HD
BRANCH   8  11
HETATM   11  C   UNL     1      38.942  -7.497   9.328  1.00  0.00     0.278 C 
BRANCH  11  12
HETATM   12  O   UNL     1      40.187  -6.809   9.237  1.00  0.00    -0.342 OA
BRANCH  12  13
HETATM   13  C   UNL     1      41.012  -6.988  10.319  1.00  0.00     0.069 A 
HETATM   14  C   UNL     1      42.005  -7.967  10.418  1.00  0.00     0.044 A 
HETATM   15  C   UNL     1      42.805  -8.079  11.571  1.00  0.00    -0.053 A 
HETATM   16  C   UNL     1      42.583  -7.206  12.652  1.00  0.00    -0.056 A 
HETATM   17  C   UNL     1      43.844  -9.166  11.632  1.00  0.00     0.049 C 
HETATM   18  C   UNL     1      43.386  -7.302  13.921  1.00  0.00     0.049 C 
HETATM   19  C   UNL     1      41.609  -6.203  12.529  1.00  0.00     0.010 A 
HETATM   20  C   UNL     1      40.837  -6.092  11.370  1.00  0.00     0.037 A 
ENDBRANCH  12  13
ENDBRANCH  11  12
ENDBRANCH   8  11
ENDBRANCH   1   7
BRANCH   4  21
HETATM   21  N   UNL     1      41.325 -13.589   4.930  1.00  0.00    -0.378 N 
HETATM   22  C   UNL     1      42.114 -14.431   5.838  1.00  0.00     0.150 C 
HETATM   23  C   UNL     1      43.148 -15.222   5.012  1.00  0.00     0.255 C 
HETATM   24  N   UNL     1      42.477 -16.018   3.886  1.00  0.00    -0.064 N 
HETATM   25  H   UNL     1      41.907 -16.742   4.338  1.00  0.00     0.280 HD
HETATM   26  C   UNL     1      41.546 -15.139   3.042  1.00  0.00     0.255 C 
HETATM   27  C   UNL     1      40.565 -14.326   3.913  1.00  0.00     0.150 C 
BRANCH  24  28
HETATM   28  C   UNL     1      43.482 -16.716   2.996  1.00  0.00     0.273 C 
BRANCH  28  29
HETATM   29  C   UNL     1      43.608 -18.194   3.246  1.00  0.00    -0.033 A 
HETATM   30  C   UNL     1      44.042 -18.679   4.488  1.00  0.00     0.009 A 
HETATM   31  C   UNL     1      44.177 -20.052   4.698  1.00  0.00     0.001 A 
HETATM   32  C   UNL     1      43.883 -20.951   3.676  1.00  0.00     0.000 A 
HETATM   33  C   UNL     1      43.448 -20.481   2.439  1.00  0.00     0.001 A 
HETATM   34  C   UNL     1      43.309 -19.111   2.223  1.00  0.00     0.009 A 
ENDBRANCH  28  29
ENDBRANCH  24  28
ENDBRANCH   4  21
TORSDOF 7
ENDMDL
MODEL 5
REMARK VINA RESULT:      -8.6      2.539      4.717
REMARK  7 active torsions:
REMARK  status: ('A' for Active; 'I' for Inactive)
REMARK    1  A    between atoms: C_6  and  O_7 
REMARK    2  A    between atoms: O_7  and  C_8 
REMARK    3  A    between atoms: C_8  and  C_9 
REMARK       I    between atoms: C_9  and  N_10 
REMARK    4  A    between atoms: N_10  and  C_11 
REMARK    5  A    between atoms: C_14  and  N_15 
REMARK    6  A    between atoms: N_18  and  C_20 
REMARK    7  A    between atoms: C_20  and  C_21 
ROOT
HETATM    1  C   UNL     1      43.342 -10.086   9.488  1.00  0.00     0.034 A 
HETATM    2  C   UNL     1      42.714  -8.842   9.432  1.00  0.00     0.032 A 
HETATM    3  C   UNL     1      42.372  -8.160  10.610  1.00  0.00     0.031 A 
HETATM    4  C   UNL     1      42.632  -8.703  11.876  1.00  0.00     0.030 A 
HETATM    5  C   UNL     1      43.317  -9.920  11.913  1.00  0.00     0.031 A 
HETATM    6  C   UNL     1      43.672 -10.602  10.741  1.00  0.00     0.032 A 
ENDROOT
BRANCH   1   7
HETATM    7  N   UNL     1      43.540 -10.781   8.279  1.00  0.00    -0.325 N 
HETATM    8  C   UNL     1      44.731 -11.298   7.798  1.00  0.00     0.246 C 
HETATM    9  O   UNL     1      45.851 -11.087   8.257  1.00  0.00    -0.271 OA
HETATM   10  H   UNL     1      42.722 -10.986   7.711  1.00  0.00     0.169 HD
BRANCH   8  11
HETATM   11  C   UNL     1      44.543 -12.297   6.655  1.00  0.00     0.278 C 
BRANCH  11  12
HETATM   12  O   UNL     1      43.544 -13.277   6.923  1.00  0.00    -0.342 OA
BRANCH  12  13
HETATM   13  C   UNL     1      43.442 -14.257   5.967  1.00  0.00     0.069 A 
HETATM   14  C   UNL     1      43.779 -15.600   6.154  1.00  0.00     0.044 A 
HETATM   15  C   UNL     1      43.643 -16.537   5.113  1.00  0.00    -0.053 A 
HETATM   16  C   UNL     1      43.185 -16.108   3.854  1.00  0.00    -0.056 A 
HETATM   17  C   UNL     1      44.044 -17.966   5.364  1.00  0.00     0.049 C 
HETATM   18  C   UNL     1      43.052 -17.059   2.697  1.00  0.00     0.049 C 
HETATM   19  C   UNL     1      42.813 -14.765   3.686  1.00  0.00     0.010 A 
HETATM   20  C   UNL     1      42.934 -13.851   4.736  1.00  0.00     0.037 A 
ENDBRANCH  12  13
ENDBRANCH  11  12
ENDBRANCH   8  11
ENDBRANCH   1   7
BRANCH   4  21
HETATM   21  N   UNL     1      42.132  -8.082  13.016  1.00  0.00    -0.378 N 
HETATM   22  C   UNL     1      41.635  -6.703  12.930  1.00  0.00     0.150 C 
HETATM   23  C   UNL     1      41.857  -6.007  14.287  1.00  0.00     0.255 C 
HETATM   24  N   UNL     1      41.224  -6.803  15.436  1.00  0.00    -0.064 N 
HETATM   25  H   UNL     1      40.208  -6.764  15.294  1.00  0.00     0.280 HD
HETATM   26  C   UNL     1      41.650  -8.276  15.413  1.00  0.00     0.255 C 
HETATM   27  C   UNL     1      41.460  -8.915  14.021  1.00  0.00     0.150 C 
BRANCH  24  28
HETATM   28  C   UNL     1      41.522  -6.195  16.789  1.00  0.00     0.273 C 
BRANCH  28  29
HETATM   29  C   UNL     1      41.182  -7.085  17.954  1.00  0.00    -0.033 A 
HETATM   30  C   UNL     1      42.183  -7.551  18.819  1.00  0.00     0.009 A 
HETATM   31  C   UNL     1      41.858  -8.396  19.880  1.00  0.00     0.001 A 
HETATM   32  C   UNL     1      40.536  -8.783  20.089  1.00  0.00     0.000 A 
HETATM   33  C   UNL     1      39.533  -8.326  19.238  1.00  0.00     0.001 A 
HETATM   34  C   UNL     1      39.852  -7.480  18.177  1.00  0.00     0.009 A 
ENDBRANCH  28  29
ENDBRANCH  24  28
ENDBRANCH   4  21
TORSDOF 7
ENDMDL
MODEL 6
REMARK VINA RESULT:      -8.5      1.383      2.477
REMARK  7 active torsions:
REMARK  status: ('A' for Active; 'I' for Inactive)
REMARK    1  A    between atoms: C_6  and  O_7 
REMARK    2  A    between atoms: O_7  and  C_8 
REMARK    3  A    between atoms: C_8  and  C_9 
REMARK       I    between atoms: C_9  and  N_10 
REMARK    4  A    between atoms: N_10  and  C_11 
REMARK    5  A    between atoms: C_14  and  N_15 
REMARK    6  A    between atoms: N_18  and  C_20 
REMARK    7  A    between atoms: C_20  and  C_21 
ROOT
HETATM    1  C   UNL     1      43.627 -10.902   7.102  1.00  0.00     0.034 A 
HETATM    2  C   UNL     1      42.626  -9.930   7.108  1.00  0.00     0.032 A 
HETATM    3  C   UNL     1      42.351  -9.193   8.270  1.00  0.00     0.031 A 
HETATM    4  C   UNL     1      43.055  -9.413   9.463  1.00  0.00     0.030 A 
HETATM    5  C   UNL     1      44.095 -10.345   9.422  1.00  0.00     0.031 A 
HETATM    6  C   UNL     1      44.382 -11.077   8.261  1.00  0.00     0.032 A 
ENDROOT
BRANCH   1   7
HETATM    7  N   UNL     1      43.766 -11.698   5.949  1.00  0.00    -0.325 N 
HETATM    8  C   UNL     1      42.904 -12.686   5.507  1.00  0.00     0.246 C 
HETATM    9  O   UNL     1      41.961 -13.161   6.136  1.00  0.00    -0.271 OA
HETATM   10  H   UNL     1      44.548 -11.502   5.329  1.00  0.00     0.169 HD
BRANCH   8  11
HETATM   11  C   UNL     1      43.146 -13.101   4.054  1.00  0.00     0.278 C 
BRANCH  11  12
HETATM   12  O   UNL     1      42.157 -13.997   3.554  1.00  0.00    -0.342 OA
BRANCH  12  13
HETATM   13  C   UNL     1      42.580 -15.298   3.438  1.00  0.00     0.069 A 
HETATM   14  C   UNL     1      42.993 -16.107   4.500  1.00  0.00     0.044 A 
HETATM   15  C   UNL     1      43.414 -17.433   4.286  1.00  0.00    -0.053 A 
HETATM   16  C   UNL     1      43.445 -17.943   2.975  1.00  0.00    -0.056 A 
HETATM   17  C   UNL     1      43.869 -18.251   5.465  1.00  0.00     0.049 C 
HETATM   18  C   UNL     1      43.917 -19.342   2.684  1.00  0.00     0.049 C 
HETATM   19  C   UNL     1      42.994 -17.137   1.918  1.00  0.00     0.010 A 
HETATM   20  C   UNL     1      42.559 -15.829   2.151  1.00  0.00     0.037 A 
ENDBRANCH  12  13
ENDBRANCH  11  12
ENDBRANCH   8  11
ENDBRANCH   1   7
BRANCH   4  21
HETATM   21  N   UNL     1      42.648  -8.787  10.637  1.00  0.00    -0.378 N 
HETATM   22  C   UNL     1      41.276  -8.276  10.746  1.00  0.00     0.150 C 
HETATM   23  C   UNL     1      41.272  -7.053  11.685  1.00  0.00     0.255 C 
HETATM   24  N   UNL     1      41.898  -7.389  13.046  1.00  0.00    -0.064 N 
HETATM   25  H   UNL     1      41.268  -8.059  13.500  1.00  0.00     0.280 HD
HETATM   26  C   UNL     1      43.271  -8.055  12.894  1.00  0.00     0.255 C 
HETATM   27  C   UNL     1      43.237  -9.239  11.904  1.00  0.00     0.150 C 
BRANCH  24  28
HETATM   28  C   UNL     1      42.003  -6.176  13.945  1.00  0.00     0.273 C 
BRANCH  28  29
HETATM   29  C   UNL     1      41.398  -6.365  15.308  1.00  0.00    -0.033 A 
HETATM   30  C   UNL     1      42.172  -6.828  16.382  1.00  0.00     0.009 A 
HETATM   31  C   UNL     1      41.591  -7.022  17.636  1.00  0.00     0.001 A 
HETATM   32  C   UNL     1      40.238  -6.757  17.831  1.00  0.00     0.000 A 
HETATM   33  C   UNL     1      39.459  -6.295  16.773  1.00  0.00     0.001 A 
HETATM   34  C   UNL     1      40.033  -6.097  15.518  1.00  0.00     0.009 A 
ENDBRANCH  28  29
ENDBRANCH  24  28
ENDBRANCH   4  21
TORSDOF 7
ENDMDL
MODEL 7
REMARK VINA RESULT:      -8.3      2.641      4.833
REMARK  7 active torsions:
REMARK  status: ('A' for Active; 'I' for Inactive)
REMARK    1  A    between atoms: C_6  and  O_7 
REMARK    2  A    between atoms: O_7  and  C_8 
REMARK    3  A    between atoms: C_8  and  C_9 
REMARK       I    between atoms: C_9  and  N_10 
REMARK    4  A    between atoms: N_10  and  C_11 
REMARK    5  A    between atoms: C_14  and  N_15 
REMARK    6  A    between atoms: N_18  and  C_20 
REMARK    7  A    between atoms: C_20  and  C_21 
ROOT
HETATM    1  C   UNL     1      43.414  -9.554   9.490  1.00  0.00     0.034 A 
HETATM    2  C   UNL     1      43.218  -8.186   9.681  1.00  0.00     0.032 A 
HETATM    3  C   UNL     1      42.925  -7.675  10.955  1.00  0.00     0.031 A 
HETATM    4  C   UNL     1      42.805  -8.514  12.073  1.00  0.00     0.030 A 
HETATM    5  C   UNL     1      43.066  -9.872  11.875  1.00  0.00     0.031 A 
HETATM    6  C   UNL     1      43.369 -10.387  10.607  1.00  0.00     0.032 A 
ENDROOT
BRANCH   1   7
HETATM    7  N   UNL     1      43.572 -10.021   8.171  1.00  0.00    -0.325 N 
HETATM    8  C   UNL     1      44.564 -10.861   7.696  1.00  0.00     0.246 C 
HETATM    9  O   UNL     1      45.577 -11.203   8.302  1.00  0.00    -0.271 OA
HETATM   10  H   UNL     1      42.858  -9.773   7.492  1.00  0.00     0.169 HD
BRANCH   8  11
HETATM   11  C   UNL     1      44.248 -11.463   6.326  1.00  0.00     0.278 C 
BRANCH  11  12
HETATM   12  O   UNL     1      43.056 -12.243   6.316  1.00  0.00    -0.342 OA
BRANCH  12  13
HETATM   13  C   UNL     1      43.223 -13.525   5.854  1.00  0.00     0.069 A 
HETATM   14  C   UNL     1      42.867 -13.973   4.579  1.00  0.00     0.044 A 
HETATM   15  C   UNL     1      43.074 -15.311   4.192  1.00  0.00    -0.053 A 
HETATM   16  C   UNL     1      43.624 -16.218   5.116  1.00  0.00    -0.056 A 
HETATM   17  C   UNL     1      42.650 -15.743   2.814  1.00  0.00     0.049 C 
HETATM   18  C   UNL     1      43.836 -17.666   4.768  1.00  0.00     0.049 C 
HETATM   19  C   UNL     1      44.013 -15.752   6.382  1.00  0.00     0.010 A 
HETATM   20  C   UNL     1      43.820 -14.415   6.743  1.00  0.00     0.037 A 
ENDBRANCH  12  13
ENDBRANCH  11  12
ENDBRANCH   8  11
ENDBRANCH   1   7
BRANCH   4  21
HETATM   21  N   UNL     1      42.352  -7.999  13.283  1.00  0.00    -0.378 N 
HETATM   22  C   UNL     1      42.140  -8.904  14.420  1.00  0.00     0.150 C 
HETATM   23  C   UNL     1      41.006  -8.342  15.300  1.00  0.00     0.255 C 
HETATM   24  N   UNL     1      41.292  -6.896  15.728  1.00  0.00    -0.064 N 
HETATM   25  H   UNL     1      42.104  -6.931  16.354  1.00  0.00     0.280 HD
HETATM   26  C   UNL     1      41.651  -6.007  14.531  1.00  0.00     0.255 C 
HETATM   27  C   UNL     1      42.752  -6.635  13.650  1.00  0.00     0.150 C 
BRANCH  24  28
HETATM   28  C   UNL     1      40.143  -6.288  16.502  1.00  0.00     0.273 C 
BRANCH  28  29
HETATM   29  C   UNL     1      40.175  -6.570  17.979  1.00  0.00    -0.033 A 
HETATM   30  C   UNL     1      40.610  -5.596  18.889  1.00  0.00     0.009 A 
HETATM   31  C   UNL     1      40.658  -5.879  20.254  1.00  0.00     0.001 A 
HETATM   32  C   UNL     1      40.276  -7.134  20.724  1.00  0.00     0.000 A 
HETATM   33  C   UNL     1      39.842  -8.110  19.831  1.00  0.00     0.001 A 
HETATM   34  C   UNL     1      39.789  -7.832  18.466  1.00  0.00     0.009 A 
ENDBRANCH  28  29
ENDBRANCH  24  28
ENDBRANCH   4  21
TORSDOF 7
ENDMDL
MODEL 8
REMARK VINA RESULT:      -8.2      3.829     11.775
REMARK  7 active torsions:
REMARK  status: ('A' for Active; 'I' for Inactive)
REMARK    1  A    between atoms: C_6  and  O_7 
REMARK    2  A    between atoms: O_7  and  C_8 
REMARK    3  A    between atoms: C_8  and  C_9 
REMARK       I    between atoms: C_9  and  N_10 
REMARK    4  A    between atoms: N_10  and  C_11 
REMARK    5  A    between atoms: C_14  and  N_15 
REMARK    6  A    between atoms: N_18  and  C_20 
REMARK    7  A    between atoms: C_20  and  C_21 
ROOT
HETATM    1  C   UNL     1      43.451 -12.172   6.919  1.00  0.00     0.034 A 
HETATM    2  C   UNL     1      42.640 -11.383   6.102  1.00  0.00     0.032 A 
HETATM    3  C   UNL     1      42.117 -11.895   4.905  1.00  0.00     0.031 A 
HETATM    4  C   UNL     1      42.398 -13.202   4.480  1.00  0.00     0.030 A 
HETATM    5  C   UNL     1      43.159 -13.997   5.340  1.00  0.00     0.031 A 
HETATM    6  C   UNL     1      43.676 -13.495   6.543  1.00  0.00     0.032 A 
ENDROOT
BRANCH   1   7
HETATM    7  N   UNL     1      44.053 -11.563   8.037  1.00  0.00    -0.325 N 
HETATM    8  C   UNL     1      45.222 -10.822   8.056  1.00  0.00     0.246 C 
HETATM    9  O   UNL     1      46.029 -10.717   7.135  1.00  0.00    -0.271 OA
HETATM   10  H   UNL     1      43.561 -11.611   8.925  1.00  0.00     0.169 HD
BRANCH   8  11
HETATM   11  C   UNL     1      45.405 -10.004   9.336  1.00  0.00     0.278 C 
BRANCH  11  12
HETATM   12  O   UNL     1      44.970 -10.690  10.507  1.00  0.00    -0.342 OA
BRANCH  12  13
HETATM   13  C   UNL     1      44.020 -10.017  11.236  1.00  0.00     0.069 A 
HETATM   14  C   UNL     1      43.710  -8.662  11.095  1.00  0.00     0.044 A 
HETATM   15  C   UNL     1      42.719  -8.055  11.890  1.00  0.00    -0.053 A 
HETATM   16  C   UNL     1      42.049  -8.822  12.861  1.00  0.00    -0.056 A 
HETATM   17  C   UNL     1      42.443  -6.586  11.711  1.00  0.00     0.049 C 
HETATM   18  C   UNL     1      41.005  -8.217  13.759  1.00  0.00     0.049 C 
HETATM   19  C   UNL     1      42.340 -10.190  12.970  1.00  0.00     0.010 A 
HETATM   20  C   UNL     1      43.312 -10.783  12.159  1.00  0.00     0.037 A 
ENDBRANCH  12  13
ENDBRANCH  11  12
ENDBRANCH   8  11
ENDBRANCH   1   7
BRANCH   4  21
HETATM   21  N   UNL     1      42.004 -13.621   3.214  1.00  0.00    -0.378 N 
HETATM   22  C   UNL     1      42.246 -12.752   2.056  1.00  0.00     0.150 C 
HETATM   23  C   UNL     1      41.145 -13.002   1.005  1.00  0.00     0.255 C 
HETATM   24  N   UNL     1      41.053 -14.488   0.632  1.00  0.00    -0.064 N 
HETATM   25  H   UNL     1      41.925 -14.722   0.145  1.00  0.00     0.280 HD
HETATM   26  C   UNL     1      40.946 -15.383   1.873  1.00  0.00     0.255 C 
HETATM   27  C   UNL     1      42.034 -15.060   2.919  1.00  0.00     0.150 C 
BRANCH  24  28
HETATM   28  C   UNL     1      39.909 -14.773  -0.316  1.00  0.00     0.273 C 
BRANCH  28  29
HETATM   29  C   UNL     1      39.623 -13.663  -1.289  1.00  0.00    -0.033 A 
HETATM   30  C   UNL     1      40.557 -13.311  -2.275  1.00  0.00     0.009 A 
HETATM   31  C   UNL     1      40.289 -12.263  -3.156  1.00  0.00     0.001 A 
HETATM   32  C   UNL     1      39.092 -11.557  -3.063  1.00  0.00     0.000 A 
HETATM   33  C   UNL     1      38.156 -11.897  -2.090  1.00  0.00     0.001 A 
HETATM   34  C   UNL     1      38.416 -12.945  -1.208  1.00  0.00     0.009 A 
ENDBRANCH  28  29
ENDBRANCH  24  28
ENDBRANCH   4  21
TORSDOF 7
ENDMDL
MODEL 9
REMARK VINA RESULT:      -8.2      2.576      4.781
REMARK  7 active torsions:
REMARK  status: ('A' for Active; 'I' for Inactive)
REMARK    1  A    between atoms: C_6  and  O_7 
REMARK    2  A    between atoms: O_7  and  C_8 
REMARK    3  A    between atoms: C_8  and  C_9 
REMARK       I    between atoms: C_9  and  N_10 
REMARK    4  A    between atoms: N_10  and  C_11 
REMARK    5  A    between atoms: C_14  and  N_15 
REMARK    6  A    between atoms: N_18  and  C_20 
REMARK    7  A    between atoms: C_20  and  C_21 
ROOT
HETATM    1  C   UNL     1      43.232 -10.109   9.489  1.00  0.00     0.034 A 
HETATM    2  C   UNL     1      42.470  -8.948   9.355  1.00  0.00     0.032 A 
HETATM    3  C   UNL     1      42.070  -8.220  10.486  1.00  0.00     0.031 A 
HETATM    4  C   UNL     1      42.404  -8.636  11.784  1.00  0.00     0.030 A 
HETATM    5  C   UNL     1      43.219  -9.765  11.896  1.00  0.00     0.031 A 
HETATM    6  C   UNL     1      43.632 -10.490  10.769  1.00  0.00     0.032 A 
ENDROOT
BRANCH   1   7
HETATM    7  N   UNL     1      43.491 -10.866   8.331  1.00  0.00    -0.325 N 
HETATM    8  C   UNL     1      44.729 -11.197   7.808  1.00  0.00     0.246 C 
HETATM    9  O   UNL     1      45.812 -10.739   8.164  1.00  0.00    -0.271 OA
HETATM   10  H   UNL     1      42.696 -11.273   7.844  1.00  0.00     0.169 HD
BRANCH   8  11
HETATM   11  C   UNL     1      44.671 -12.318   6.768  1.00  0.00     0.278 C 
BRANCH  11  12
HETATM   12  O   UNL     1      43.575 -13.207   6.961  1.00  0.00    -0.342 OA
BRANCH  12  13
HETATM   13  C   UNL     1      43.459 -14.179   5.997  1.00  0.00     0.069 A 
HETATM   14  C   UNL     1      43.786 -15.526   6.172  1.00  0.00     0.044 A 
HETATM   15  C   UNL     1      43.636 -16.454   5.125  1.00  0.00    -0.053 A 
HETATM   16  C   UNL     1      43.175 -16.011   3.872  1.00  0.00    -0.056 A 
HETATM   17  C   UNL     1      44.026 -17.888   5.362  1.00  0.00     0.049 C 
HETATM   18  C   UNL     1      43.027 -16.952   2.708  1.00  0.00     0.049 C 
HETATM   19  C   UNL     1      42.813 -14.664   3.716  1.00  0.00     0.010 A 
HETATM   20  C   UNL     1      42.948 -13.759   4.773  1.00  0.00     0.037 A 
ENDBRANCH  12  13
ENDBRANCH  11  12
ENDBRANCH   8  11
ENDBRANCH   1   7
BRANCH   4  21
HETATM   21  N   UNL     1      41.853  -7.989  12.885  1.00  0.00    -0.378 N 
HETATM   22  C   UNL     1      41.438  -6.586  12.767  1.00  0.00     0.150 C 
HETATM   23  C   UNL     1      41.593  -5.902  14.140  1.00  0.00     0.255 C 
HETATM   24  N   UNL     1      40.833  -6.663  15.235  1.00  0.00    -0.064 N 
HETATM   25  H   UNL     1      39.834  -6.570  15.017  1.00  0.00     0.280 HD
HETATM   26  C   UNL     1      41.181  -8.157  15.239  1.00  0.00     0.255 C 
HETATM   27  C   UNL     1      41.063  -8.785  13.833  1.00  0.00     0.150 C 
BRANCH  24  28
HETATM   28  C   UNL     1      41.059  -6.073  16.609  1.00  0.00     0.273 C 
BRANCH  28  29
HETATM   29  C   UNL     1      40.081  -4.994  16.986  1.00  0.00    -0.033 A 
HETATM   30  C   UNL     1      38.883  -4.828  16.276  1.00  0.00     0.009 A 
HETATM   31  C   UNL     1      37.996  -3.808  16.621  1.00  0.00     0.001 A 
HETATM   32  C   UNL     1      38.295  -2.945  17.673  1.00  0.00     0.000 A 
HETATM   33  C   UNL     1      39.480  -3.100  18.387  1.00  0.00     0.001 A 
HETATM   34  C   UNL     1      40.370  -4.119  18.048  1.00  0.00     0.009 A 
ENDBRANCH  28  29
ENDBRANCH  24  28
ENDBRANCH   4  21
TORSDOF 7
ENDMDL
MODEL 10
REMARK VINA RESULT:      -8.1      1.389      2.307
REMARK  7 active torsions:
REMARK  status: ('A' for Active; 'I' for Inactive)
REMARK    1  A    between atoms: C_6  and  O_7 
REMARK    2  A    between atoms: O_7  and  C_8 
REMARK    3  A    between atoms: C_8  and  C_9 
REMARK       I    between atoms: C_9  and  N_10 
REMARK    4  A    between atoms: N_10  and  C_11 
REMARK    5  A    between atoms: C_14  and  N_15 
REMARK    6  A    between atoms: N_18  and  C_20 
REMARK    7  A    between atoms: C_20  and  C_21 
ROOT
HETATM    1  C   UNL     1      43.938 -11.507   7.289  1.00  0.00     0.034 A 
HETATM    2  C   UNL     1      42.789 -10.756   7.039  1.00  0.00     0.032 A 
HETATM    3  C   UNL     1      42.407  -9.722   7.907  1.00  0.00     0.031 A 
HETATM    4  C   UNL     1      43.149  -9.415   9.056  1.00  0.00     0.030 A 
HETATM    5  C   UNL     1      44.329 -10.135   9.258  1.00  0.00     0.031 A 
HETATM    6  C   UNL     1      44.723 -11.162   8.389  1.00  0.00     0.032 A 
ENDROOT
BRANCH   1   7
HETATM    7  N   UNL     1      44.198 -12.614   6.458  1.00  0.00    -0.325 N 
HETATM    8  C   UNL     1      43.699 -13.898   6.597  1.00  0.00     0.246 C 
HETATM    9  O   UNL     1      43.087 -14.336   7.568  1.00  0.00    -0.271 OA
HETATM   10  H   UNL     1      44.763 -12.460   5.627  1.00  0.00     0.169 HD
BRANCH   8  11
HETATM   11  C   UNL     1      43.874 -14.758   5.345  1.00  0.00     0.278 C 
BRANCH  11  12
HETATM   12  O   UNL     1      42.726 -15.546   5.039  1.00  0.00    -0.342 OA
BRANCH  12  13
HETATM   13  C   UNL     1      43.006 -16.725   4.393  1.00  0.00     0.069 A 
HETATM   14  C   UNL     1      43.545 -17.864   4.997  1.00  0.00     0.044 A 
HETATM   15  C   UNL     1      43.801 -19.031   4.253  1.00  0.00    -0.053 A 
HETATM   16  C   UNL     1      43.533 -19.041   2.872  1.00  0.00    -0.056 A 
HETATM   17  C   UNL     1      44.405 -20.220   4.951  1.00  0.00     0.049 C 
HETATM   18  C   UNL     1      43.818 -20.249   2.022  1.00  0.00     0.049 C 
HETATM   19  C   UNL     1      42.957 -17.906   2.281  1.00  0.00     0.010 A 
HETATM   20  C   UNL     1      42.689 -16.762   3.038  1.00  0.00     0.037 A 
ENDBRANCH  12  13
ENDBRANCH  11  12
ENDBRANCH   8  11
ENDBRANCH   1   7
BRANCH   4  21
HETATM   21  N   UNL     1      42.654  -8.501   9.981  1.00  0.00    -0.378 N 
HETATM   22  C   UNL     1      42.356  -8.944  11.348  1.00  0.00     0.150 C 
HETATM   23  C   UNL     1      41.200  -8.092  11.908  1.00  0.00     0.255 C 
HETATM   24  N   UNL     1      41.514  -6.592  11.818  1.00  0.00    -0.064 N 
HETATM   25  H   UNL     1      42.293  -6.416  12.462  1.00  0.00     0.280 HD
HETATM   26  C   UNL     1      41.962  -6.187  10.408  1.00  0.00     0.255 C 
HETATM   27  C   UNL     1      43.083  -7.101   9.868  1.00  0.00     0.150 C 
BRANCH  24  28
HETATM   28  C   UNL     1      40.350  -5.733  12.261  1.00  0.00     0.273 C 
BRANCH  28  29
HETATM   29  C   UNL     1      40.090  -5.763  13.742  1.00  0.00    -0.033 A 
HETATM   30  C   UNL     1      38.787  -5.907  14.241  1.00  0.00     0.009 A 
HETATM   31  C   UNL     1      38.557  -5.909  15.617  1.00  0.00     0.001 A 
HETATM   32  C   UNL     1      39.620  -5.765  16.506  1.00  0.00     0.000 A 
HETATM   33  C   UNL     1      40.918  -5.623  16.023  1.00  0.00     0.001 A 
HETATM   34  C   UNL     1      41.155  -5.623  14.649  1.00  0.00     0.009 A 
ENDBRANCH  28  29
ENDBRANCH  24  28
ENDBRANCH   4  21
TORSDOF 7
ENDMDL
