MODEL 1
REMARK VINA RESULT:      -7.7      0.000      0.000
REMARK  5 active torsions:
REMARK  status: ('A' for Active; 'I' for Inactive)
REMARK    1  A    between atoms: C_2  and  O_3 
REMARK    2  A    between atoms: C_2  and  C_5 
REMARK    3  A    between atoms: C_7  and  N_8 
REMARK    4  A    between atoms: N_8  and  C_9 
REMARK    5  A    between atoms: C_9  and  C_10 
ROOT
HETATM    1  N   UNL     1      41.754 -15.001   0.853  1.00  0.00    -0.289 NA
HETATM    2  H   UNL     1      42.146 -14.081   0.648  1.00  0.00     0.128 HD
ENDROOT
BRANCH   1   3
HETATM    3  C   UNL     1      42.367 -15.542   1.987  1.00  0.00     0.009 A 
HETATM    4  C   UNL     1      42.934 -16.822   1.866  1.00  0.00     0.033 A 
HETATM    5  C   UNL     1      43.532 -17.483   2.953  1.00  0.00    -0.028 A 
HETATM    6  C   UNL     1      43.559 -16.820   4.189  1.00  0.00     0.010 A 
HETATM    7  C   UNL     1      43.004 -15.549   4.329  1.00  0.00     0.002 A 
HETATM    8  C   UNL     1      42.403 -14.921   3.237  1.00  0.00     0.023 A 
BRANCH   5   9
HETATM    9  C   UNL     1      44.098 -18.891   2.869  1.00  0.00     0.149 C 
HETATM   10  C   UNL     1      43.226 -19.907   2.130  1.00  0.00     0.045 C 
BRANCH   9  11
HETATM   11  O   UNL     1      44.306 -19.323   4.220  1.00  0.00    -0.386 OA
HETATM   12  C   UNL     1      44.008 -20.695   4.430  1.00  0.00     0.202 C 
ENDBRANCH   9  11
ENDBRANCH   5   9
ENDBRANCH   1   3
BRANCH   1  13
HETATM   13  C   UNL     1      40.299 -15.006   0.720  1.00  0.00     0.133 C 
BRANCH  13  14
HETATM   14  C   UNL     1      39.908 -14.540  -0.666  1.00  0.00    -0.016 A 
HETATM   15  C   UNL     1      40.369 -13.351  -1.260  1.00  0.00     0.069 A 
HETATM   16  C   UNL     1      40.031 -12.938  -2.541  1.00  0.00     0.012 A 
HETATM   17  N   UNL     1      41.201 -12.371  -0.776  1.00  0.00    -0.277 N 
HETATM   18  C   UNL     1      40.685 -11.696  -2.697  1.00  0.00     0.152 A 
HETATM   19  C   UNL     1      39.197 -13.751  -3.325  1.00  0.00     0.015 A 
HETATM   20  N   UNL     1      41.392 -11.341  -1.621  1.00  0.00    -0.186 NA
HETATM   21  C   UNL     1      38.742 -14.959  -2.785  1.00  0.00     0.002 A 
HETATM   22  C   UNL     1      39.092 -15.344  -1.488  1.00  0.00     0.011 A 
HETATM   23  H   UNL     1      41.640 -12.358   0.141  1.00  0.00     0.189 HD
ENDBRANCH  13  14
ENDBRANCH   1  13
TORSDOF 5
ENDMDL
MODEL 2
REMARK VINA RESULT:      -7.6      1.799      2.337
REMARK  5 active torsions:
REMARK  status: ('A' for Active; 'I' for Inactive)
REMARK    1  A    between atoms: C_2  and  O_3 
REMARK    2  A    between atoms: C_2  and  C_5 
REMARK    3  A    between atoms: C_7  and  N_8 
REMARK    4  A    between atoms: N_8  and  C_9 
REMARK    5  A    between atoms: C_9  and  C_10 
ROOT
HETATM    1  N   UNL     1      39.848 -15.514   2.553  1.00  0.00    -0.289 NA
HETATM    2  H   UNL     1      38.927 -15.624   2.978  1.00  0.00     0.128 HD
ENDROOT
BRANCH   1   3
HETATM    3  C   UNL     1      40.838 -15.978   3.426  1.00  0.00     0.009 A 
HETATM    4  C   UNL     1      41.819 -16.832   2.893  1.00  0.00     0.033 A 
HETATM    5  C   UNL     1      42.831 -17.397   3.688  1.00  0.00    -0.028 A 
HETATM    6  C   UNL     1      42.847 -17.079   5.054  1.00  0.00     0.010 A 
HETATM    7  C   UNL     1      41.885 -16.233   5.601  1.00  0.00     0.002 A 
HETATM    8  C   UNL     1      40.881 -15.696   4.793  1.00  0.00     0.023 A 
BRANCH   5   9
HETATM    9  C   UNL     1      43.869 -18.371   3.154  1.00  0.00     0.149 C 
HETATM   10  C   UNL     1      43.332 -19.461   2.227  1.00  0.00     0.045 C 
BRANCH   9  11
HETATM   11  O   UNL     1      44.487 -18.970   4.300  1.00  0.00    -0.386 OA
HETATM   12  C   UNL     1      44.152 -20.338   4.477  1.00  0.00     0.202 C 
ENDBRANCH   9  11
ENDBRANCH   5   9
ENDBRANCH   1   3
BRANCH   1  13
HETATM   13  C   UNL     1      39.843 -15.920   1.150  1.00  0.00     0.133 C 
BRANCH  13  14
HETATM   14  C   UNL     1      40.088 -14.716   0.266  1.00  0.00    -0.016 A 
HETATM   15  C   UNL     1      39.575 -14.575  -1.037  1.00  0.00     0.069 A 
HETATM   16  C   UNL     1      39.778 -13.459  -1.838  1.00  0.00     0.012 A 
HETATM   17  N   UNL     1      38.809 -15.426  -1.796  1.00  0.00    -0.277 N 
HETATM   18  C   UNL     1      39.121 -13.769  -3.050  1.00  0.00     0.152 A 
HETATM   19  C   UNL     1      40.515 -12.378  -1.331  1.00  0.00     0.015 A 
HETATM   20  N   UNL     1      38.537 -14.970  -3.033  1.00  0.00    -0.186 NA
HETATM   21  C   UNL     1      41.016 -12.462  -0.027  1.00  0.00     0.002 A 
HETATM   22  C   UNL     1      40.804 -13.603   0.752  1.00  0.00     0.011 A 
HETATM   23  H   UNL     1      38.471 -16.341  -1.511  1.00  0.00     0.189 HD
ENDBRANCH  13  14
ENDBRANCH   1  13
TORSDOF 5
ENDMDL
MODEL 3
REMARK VINA RESULT:      -7.3      4.694      5.934
REMARK  5 active torsions:
REMARK  status: ('A' for Active; 'I' for Inactive)
REMARK    1  A    between atoms: C_2  and  O_3 
REMARK    2  A    between atoms: C_2  and  C_5 
REMARK    3  A    between atoms: C_7  and  N_8 
REMARK    4  A    between atoms: N_8  and  C_9 
REMARK    5  A    between atoms: C_9  and  C_10 
ROOT
HETATM    1  N   UNL     1      40.543 -15.083   5.482  1.00  0.00    -0.289 NA
HETATM    2  H   UNL     1      40.241 -15.139   4.509  1.00  0.00     0.128 HD
ENDROOT
BRANCH   1   3
HETATM    3  C   UNL     1      41.626 -15.941   5.698  1.00  0.00     0.009 A 
HETATM    4  C   UNL     1      42.195 -16.559   4.571  1.00  0.00     0.033 A 
HETATM    5  C   UNL     1      43.254 -17.477   4.675  1.00  0.00    -0.028 A 
HETATM    6  C   UNL     1      43.748 -17.766   5.956  1.00  0.00     0.010 A 
HETATM    7  C   UNL     1      43.199 -17.163   7.085  1.00  0.00     0.002 A 
HETATM    8  C   UNL     1      42.137 -16.266   6.956  1.00  0.00     0.023 A 
BRANCH   5   9
HETATM    9  C   UNL     1      43.850 -18.207   3.482  1.00  0.00     0.149 C 
HETATM   10  C   UNL     1      42.937 -18.328   2.262  1.00  0.00     0.045 C 
BRANCH   9  11
HETATM   11  O   UNL     1      44.212 -19.513   3.948  1.00  0.00    -0.386 OA
HETATM   12  C   UNL     1      43.747 -20.564   3.114  1.00  0.00     0.202 C 
ENDBRANCH   9  11
ENDBRANCH   5   9
ENDBRANCH   1   3
BRANCH   1  13
HETATM   13  C   UNL     1      40.583 -13.702   5.953  1.00  0.00     0.133 C 
BRANCH  13  14
HETATM   14  C   UNL     1      41.728 -12.966   5.290  1.00  0.00    -0.016 A 
HETATM   15  C   UNL     1      42.882 -12.528   5.965  1.00  0.00     0.069 A 
HETATM   16  C   UNL     1      43.944 -11.877   5.352  1.00  0.00     0.012 A 
HETATM   17  N   UNL     1      43.235 -12.617   7.290  1.00  0.00    -0.277 N 
HETATM   18  C   UNL     1      44.845 -11.600   6.404  1.00  0.00     0.152 A 
HETATM   19  C   UNL     1      43.902 -11.651   3.967  1.00  0.00     0.015 A 
HETATM   20  N   UNL     1      44.414 -12.041   7.589  1.00  0.00    -0.186 NA
HETATM   21  C   UNL     1      42.786 -12.101   3.251  1.00  0.00     0.002 A 
HETATM   22  C   UNL     1      41.728 -12.745   3.898  1.00  0.00     0.011 A 
HETATM   23  H   UNL     1      42.682 -13.045   8.028  1.00  0.00     0.189 HD
ENDBRANCH  13  14
ENDBRANCH   1  13
TORSDOF 5
ENDMDL
MODEL 4
REMARK VINA RESULT:      -7.3      4.005      5.819
REMARK  5 active torsions:
REMARK  status: ('A' for Active; 'I' for Inactive)
REMARK    1  A    between atoms: C_2  and  O_3 
REMARK    2  A    between atoms: C_2  and  C_5 
REMARK    3  A    between atoms: C_7  and  N_8 
REMARK    4  A    between atoms: N_8  and  C_9 
REMARK    5  A    between atoms: C_9  and  C_10 
ROOT
HETATM    1  N   UNL     1      40.395 -14.792   5.392  1.00  0.00    -0.289 NA
HETATM    2  H   UNL     1      39.585 -15.247   5.814  1.00  0.00     0.128 HD
ENDROOT
BRANCH   1   3
HETATM    3  C   UNL     1      40.866 -15.553   4.318  1.00  0.00     0.009 A 
HETATM    4  C   UNL     1      42.009 -16.341   4.536  1.00  0.00     0.033 A 
HETATM    5  C   UNL     1      42.598 -17.106   3.515  1.00  0.00    -0.028 A 
HETATM    6  C   UNL     1      42.004 -17.073   2.245  1.00  0.00     0.010 A 
HETATM    7  C   UNL     1      40.870 -16.299   2.008  1.00  0.00     0.002 A 
HETATM    8  C   UNL     1      40.313 -15.536   3.036  1.00  0.00     0.023 A 
BRANCH   5   9
HETATM    9  C   UNL     1      43.867 -17.920   3.705  1.00  0.00     0.149 C 
HETATM   10  C   UNL     1      43.961 -19.198   2.870  1.00  0.00     0.045 C 
BRANCH   9  11
HETATM   11  O   UNL     1      43.933 -18.247   5.099  1.00  0.00    -0.386 OA
HETATM   12  C   UNL     1      43.960 -19.643   5.356  1.00  0.00     0.202 C 
ENDBRANCH   9  11
ENDBRANCH   5   9
ENDBRANCH   1   3
BRANCH   1  13
HETATM   13  C   UNL     1      40.189 -13.353   5.250  1.00  0.00     0.133 C 
BRANCH  13  14
HETATM   14  C   UNL     1      41.495 -12.679   4.890  1.00  0.00    -0.016 A 
HETATM   15  C   UNL     1      42.619 -12.631   5.735  1.00  0.00     0.069 A 
HETATM   16  C   UNL     1      43.826 -12.036   5.393  1.00  0.00     0.012 A 
HETATM   17  N   UNL     1      42.806 -13.114   7.007  1.00  0.00    -0.277 N 
HETATM   18  C   UNL     1      44.637 -12.195   6.539  1.00  0.00     0.152 A 
HETATM   19  C   UNL     1      43.970 -11.461   4.121  1.00  0.00     0.015 A 
HETATM   20  N   UNL     1      44.017 -12.843   7.529  1.00  0.00    -0.186 NA
HETATM   21  C   UNL     1      42.887 -11.516   3.236  1.00  0.00     0.002 A 
HETATM   22  C   UNL     1      41.681 -12.113   3.612  1.00  0.00     0.011 A 
HETATM   23  H   UNL     1      42.119 -13.616   7.563  1.00  0.00     0.189 HD
ENDBRANCH  13  14
ENDBRANCH   1  13
TORSDOF 5
ENDMDL
MODEL 5
REMARK VINA RESULT:      -7.3      3.818      5.874
REMARK  5 active torsions:
REMARK  status: ('A' for Active; 'I' for Inactive)
REMARK    1  A    between atoms: C_2  and  O_3 
REMARK    2  A    between atoms: C_2  and  C_5 
REMARK    3  A    between atoms: C_7  and  N_8 
REMARK    4  A    between atoms: N_8  and  C_9 
REMARK    5  A    between atoms: C_9  and  C_10 
ROOT
HETATM    1  N   UNL     1      40.321 -15.856   4.693  1.00  0.00    -0.289 NA
HETATM    2  H   UNL     1      39.653 -15.139   4.410  1.00  0.00     0.128 HD
ENDROOT
BRANCH   1   3
HETATM    3  C   UNL     1      41.253 -16.072   3.673  1.00  0.00     0.009 A 
HETATM    4  C   UNL     1      42.089 -17.196   3.789  1.00  0.00     0.033 A 
HETATM    5  C   UNL     1      43.094 -17.483   2.850  1.00  0.00    -0.028 A 
HETATM    6  C   UNL     1      43.246 -16.608   1.764  1.00  0.00     0.010 A 
HETATM    7  C   UNL     1      42.426 -15.489   1.630  1.00  0.00     0.002 A 
HETATM    8  C   UNL     1      41.445 -15.218   2.585  1.00  0.00     0.023 A 
BRANCH   5   9
HETATM    9  C   UNL     1      44.052 -18.656   2.980  1.00  0.00     0.149 C 
HETATM   10  C   UNL     1      43.602 -19.951   2.305  1.00  0.00     0.045 C 
BRANCH   9  11
HETATM   11  O   UNL     1      44.229 -18.878   4.385  1.00  0.00    -0.386 OA
HETATM   12  C   UNL     1      44.216 -20.250   4.750  1.00  0.00     0.202 C 
ENDBRANCH   9  11
ENDBRANCH   5   9
ENDBRANCH   1   3
BRANCH   1  13
HETATM   13  C   UNL     1      40.759 -15.667   6.073  1.00  0.00     0.133 C 
BRANCH  13  14
HETATM   14  C   UNL     1      41.568 -14.393   6.186  1.00  0.00    -0.016 A 
HETATM   15  C   UNL     1      41.075 -13.114   5.871  1.00  0.00     0.069 A 
HETATM   16  C   UNL     1      41.808 -11.942   6.000  1.00  0.00     0.012 A 
HETATM   17  N   UNL     1      39.849 -12.717   5.393  1.00  0.00    -0.277 N 
HETATM   18  C   UNL     1      40.938 -10.927   5.543  1.00  0.00     0.152 A 
HETATM   19  C   UNL     1      43.119 -12.006   6.499  1.00  0.00     0.015 A 
HETATM   20  N   UNL     1      39.746 -11.395   5.164  1.00  0.00    -0.186 NA
HETATM   21  C   UNL     1      43.638 -13.256   6.856  1.00  0.00     0.002 A 
HETATM   22  C   UNL     1      42.878 -14.419   6.706  1.00  0.00     0.011 A 
HETATM   23  H   UNL     1      39.062 -13.327   5.188  1.00  0.00     0.189 HD
ENDBRANCH  13  14
ENDBRANCH   1  13
TORSDOF 5
ENDMDL
MODEL 6
REMARK VINA RESULT:      -7.2      5.380      8.024
REMARK  5 active torsions:
REMARK  status: ('A' for Active; 'I' for Inactive)
REMARK    1  A    between atoms: C_2  and  O_3 
REMARK    2  A    between atoms: C_2  and  C_5 
REMARK    3  A    between atoms: C_7  and  N_8 
REMARK    4  A    between atoms: N_8  and  C_9 
REMARK    5  A    between atoms: C_9  and  C_10 
ROOT
HETATM    1  N   UNL     1      42.675 -15.899   6.223  1.00  0.00    -0.289 NA
HETATM    2  H   UNL     1      42.411 -16.259   7.140  1.00  0.00     0.128 HD
ENDROOT
BRANCH   1   3
HETATM    3  C   UNL     1      42.419 -14.526   6.154  1.00  0.00     0.009 A 
HETATM    4  C   UNL     1      43.450 -13.656   6.549  1.00  0.00     0.033 A 
HETATM    5  C   UNL     1      43.286 -12.260   6.568  1.00  0.00    -0.028 A 
HETATM    6  C   UNL     1      42.047 -11.740   6.168  1.00  0.00     0.010 A 
HETATM    7  C   UNL     1      41.013 -12.585   5.771  1.00  0.00     0.002 A 
HETATM    8  C   UNL     1      41.196 -13.969   5.776  1.00  0.00     0.023 A 
BRANCH   5   9
HETATM    9  C   UNL     1      44.361 -11.298   7.047  1.00  0.00     0.149 C 
HETATM   10  C   UNL     1      45.696 -11.380   6.306  1.00  0.00     0.045 C 
BRANCH   9  11
HETATM   11  O   UNL     1      44.561 -11.577   8.438  1.00  0.00    -0.386 OA
HETATM   12  C   UNL     1      44.131 -10.531   9.296  1.00  0.00     0.202 C 
ENDBRANCH   9  11
ENDBRANCH   5   9
ENDBRANCH   1   3
BRANCH   1  13
HETATM   13  C   UNL     1      43.960 -16.439   5.784  1.00  0.00     0.133 C 
BRANCH  13  14
HETATM   14  C   UNL     1      43.768 -17.273   4.536  1.00  0.00    -0.016 A 
HETATM   15  C   UNL     1      43.855 -18.676   4.502  1.00  0.00     0.069 A 
HETATM   16  C   UNL     1      43.653 -19.443   3.362  1.00  0.00     0.012 A 
HETATM   17  N   UNL     1      44.139 -19.582   5.496  1.00  0.00    -0.277 N 
HETATM   18  C   UNL     1      43.873 -20.773   3.786  1.00  0.00     0.152 A 
HETATM   19  C   UNL     1      43.313 -18.804   2.160  1.00  0.00     0.015 A 
HETATM   20  N   UNL     1      44.178 -20.862   5.083  1.00  0.00    -0.186 NA
HETATM   21  C   UNL     1      43.184 -17.411   2.156  1.00  0.00     0.002 A 
HETATM   22  C   UNL     1      43.403 -16.665   3.317  1.00  0.00     0.011 A 
HETATM   23  H   UNL     1      44.336 -19.360   6.468  1.00  0.00     0.189 HD
ENDBRANCH  13  14
ENDBRANCH   1  13
TORSDOF 5
ENDMDL
MODEL 7
REMARK VINA RESULT:      -7.2      2.852      7.467
REMARK  5 active torsions:
REMARK  status: ('A' for Active; 'I' for Inactive)
REMARK    1  A    between atoms: C_2  and  O_3 
REMARK    2  A    between atoms: C_2  and  C_5 
REMARK    3  A    between atoms: C_7  and  N_8 
REMARK    4  A    between atoms: N_8  and  C_9 
REMARK    5  A    between atoms: C_9  and  C_10 
ROOT
HETATM    1  N   UNL     1      41.104 -15.858   2.173  1.00  0.00    -0.289 NA
HETATM    2  H   UNL     1      41.157 -15.710   3.181  1.00  0.00     0.128 HD
ENDROOT
BRANCH   1   3
HETATM    3  C   UNL     1      40.449 -14.784   1.564  1.00  0.00     0.009 A 
HETATM    4  C   UNL     1      40.236 -14.859   0.177  1.00  0.00     0.033 A 
HETATM    5  C   UNL     1      39.633 -13.816  -0.546  1.00  0.00    -0.028 A 
HETATM    6  C   UNL     1      39.231 -12.674   0.162  1.00  0.00     0.010 A 
HETATM    7  C   UNL     1      39.430 -12.580   1.538  1.00  0.00     0.002 A 
HETATM    8  C   UNL     1      40.046 -13.624   2.230  1.00  0.00     0.023 A 
BRANCH   5   9
HETATM    9  C   UNL     1      39.445 -13.842  -2.054  1.00  0.00     0.149 C 
HETATM   10  C   UNL     1      38.770 -15.095  -2.611  1.00  0.00     0.045 C 
BRANCH   9  11
HETATM   11  O   UNL     1      40.752 -13.701  -2.626  1.00  0.00    -0.386 OA
HETATM   12  C   UNL     1      41.041 -12.383  -3.067  1.00  0.00     0.202 C 
ENDBRANCH   9  11
ENDBRANCH   5   9
ENDBRANCH   1   3
BRANCH   1  13
HETATM   13  C   UNL     1      42.367 -16.359   1.638  1.00  0.00     0.133 C 
BRANCH  13  14
HETATM   14  C   UNL     1      43.046 -17.242   2.663  1.00  0.00    -0.016 A 
HETATM   15  C   UNL     1      43.384 -16.825   3.963  1.00  0.00     0.069 A 
HETATM   16  C   UNL     1      43.983 -17.643   4.912  1.00  0.00     0.012 A 
HETATM   17  N   UNL     1      43.228 -15.611   4.586  1.00  0.00    -0.277 N 
HETATM   18  C   UNL     1      44.165 -16.807   6.037  1.00  0.00     0.152 A 
HETATM   19  C   UNL     1      44.257 -18.981   4.589  1.00  0.00     0.015 A 
HETATM   20  N   UNL     1      43.714 -15.565   5.840  1.00  0.00    -0.186 NA
HETATM   21  C   UNL     1      43.906 -19.446   3.316  1.00  0.00     0.002 A 
HETATM   22  C   UNL     1      43.313 -18.597   2.378  1.00  0.00     0.011 A 
HETATM   23  H   UNL     1      42.813 -14.778   4.176  1.00  0.00     0.189 HD
ENDBRANCH  13  14
ENDBRANCH   1  13
TORSDOF 5
ENDMDL
MODEL 8
REMARK VINA RESULT:      -7.2      5.869      8.223
REMARK  5 active torsions:
REMARK  status: ('A' for Active; 'I' for Inactive)
REMARK    1  A    between atoms: C_2  and  O_3 
REMARK    2  A    between atoms: C_2  and  C_5 
REMARK    3  A    between atoms: C_7  and  N_8 
REMARK    4  A    between atoms: N_8  and  C_9 
REMARK    5  A    between atoms: C_9  and  C_10 
ROOT
HETATM    1  N   UNL     1      43.547 -13.243   7.388  1.00  0.00    -0.289 NA
HETATM    2  H   UNL     1      42.861 -12.606   7.792  1.00  0.00     0.128 HD
ENDROOT
BRANCH   1   3
HETATM    3  C   UNL     1      42.899 -14.309   6.757  1.00  0.00     0.009 A 
HETATM    4  C   UNL     1      43.705 -15.322   6.207  1.00  0.00     0.033 A 
HETATM    5  C   UNL     1      43.163 -16.413   5.508  1.00  0.00    -0.028 A 
HETATM    6  C   UNL     1      41.768 -16.478   5.371  1.00  0.00     0.010 A 
HETATM    7  C   UNL     1      40.952 -15.486   5.910  1.00  0.00     0.002 A 
HETATM    8  C   UNL     1      41.516 -14.404   6.588  1.00  0.00     0.023 A 
BRANCH   5   9
HETATM    9  C   UNL     1      44.010 -17.490   4.850  1.00  0.00     0.149 C 
HETATM   10  C   UNL     1      43.621 -17.850   3.416  1.00  0.00     0.045 C 
BRANCH   9  11
HETATM   11  O   UNL     1      43.907 -18.650   5.686  1.00  0.00    -0.386 OA
HETATM   12  C   UNL     1      44.165 -19.868   5.003  1.00  0.00     0.202 C 
ENDBRANCH   9  11
ENDBRANCH   5   9
ENDBRANCH   1   3
BRANCH   1  13
HETATM   13  C   UNL     1      44.619 -12.518   6.711  1.00  0.00     0.133 C 
BRANCH  13  14
HETATM   14  C   UNL     1      44.768 -11.138   7.314  1.00  0.00    -0.016 A 
HETATM   15  C   UNL     1      43.687 -10.319   7.687  1.00  0.00     0.069 A 
HETATM   16  C   UNL     1      43.824  -9.063   8.266  1.00  0.00     0.012 A 
HETATM   17  N   UNL     1      42.332 -10.520   7.588  1.00  0.00    -0.277 N 
HETATM   18  C   UNL     1      42.499  -8.604   8.434  1.00  0.00     0.152 A 
HETATM   19  C   UNL     1      45.110  -8.568   8.529  1.00  0.00     0.015 A 
HETATM   20  N   UNL     1      41.586  -9.484   8.014  1.00  0.00    -0.186 NA
HETATM   21  C   UNL     1      46.214  -9.365   8.204  1.00  0.00     0.002 A 
HETATM   22  C   UNL     1      46.045 -10.621   7.614  1.00  0.00     0.011 A 
HETATM   23  H   UNL     1      41.877 -11.347   7.211  1.00  0.00     0.189 HD
ENDBRANCH  13  14
ENDBRANCH   1  13
TORSDOF 5
ENDMDL
MODEL 9
REMARK VINA RESULT:      -7.1      4.254      7.392
REMARK  5 active torsions:
REMARK  status: ('A' for Active; 'I' for Inactive)
REMARK    1  A    between atoms: C_2  and  O_3 
REMARK    2  A    between atoms: C_2  and  C_5 
REMARK    3  A    between atoms: C_7  and  N_8 
REMARK    4  A    between atoms: N_8  and  C_9 
REMARK    5  A    between atoms: C_9  and  C_10 
ROOT
HETATM    1  N   UNL     1      42.665 -15.432   6.481  1.00  0.00    -0.289 NA
HETATM    2  H   UNL     1      42.304 -15.766   7.375  1.00  0.00     0.128 HD
ENDROOT
BRANCH   1   3
HETATM    3  C   UNL     1      42.516 -14.044   6.392  1.00  0.00     0.009 A 
HETATM    4  C   UNL     1      43.563 -13.248   6.886  1.00  0.00     0.033 A 
HETATM    5  C   UNL     1      43.499 -11.844   6.892  1.00  0.00    -0.028 A 
HETATM    6  C   UNL     1      42.343 -11.239   6.377  1.00  0.00     0.010 A 
HETATM    7  C   UNL     1      41.294 -12.010   5.881  1.00  0.00     0.002 A 
HETATM    8  C   UNL     1      41.377 -13.403   5.900  1.00  0.00     0.023 A 
BRANCH   5   9
HETATM    9  C   UNL     1      44.588 -10.959   7.474  1.00  0.00     0.149 C 
HETATM   10  C   UNL     1      45.970 -11.111   6.838  1.00  0.00     0.045 C 
BRANCH   9  11
HETATM   11  O   UNL     1      44.661 -11.273   8.871  1.00  0.00    -0.386 OA
HETATM   12  C   UNL     1      44.084 -10.282   9.708  1.00  0.00     0.202 C 
ENDBRANCH   9  11
ENDBRANCH   5   9
ENDBRANCH   1   3
BRANCH   1  13
HETATM   13  C   UNL     1      43.938 -16.065   6.146  1.00  0.00     0.133 C 
BRANCH  13  14
HETATM   14  C   UNL     1      43.783 -16.899   4.893  1.00  0.00    -0.016 A 
HETATM   15  C   UNL     1      43.468 -16.371   3.627  1.00  0.00     0.069 A 
HETATM   16  C   UNL     1      43.352 -17.133   2.472  1.00  0.00     0.012 A 
HETATM   17  N   UNL     1      43.212 -15.081   3.231  1.00  0.00    -0.277 N 
HETATM   18  C   UNL     1      42.996 -16.204   1.469  1.00  0.00     0.152 A 
HETATM   19  C   UNL     1      43.585 -18.516   2.537  1.00  0.00     0.015 A 
HETATM   20  N   UNL     1      42.900 -14.954   1.928  1.00  0.00    -0.186 NA
HETATM   21  C   UNL     1      43.934 -19.078   3.771  1.00  0.00     0.002 A 
HETATM   22  C   UNL     1      44.033 -18.286   4.919  1.00  0.00     0.011 A 
HETATM   23  H   UNL     1      43.218 -14.260   3.830  1.00  0.00     0.189 HD
ENDBRANCH  13  14
ENDBRANCH   1  13
TORSDOF 5
ENDMDL
MODEL 10
REMARK VINA RESULT:      -7.1      3.059      7.797
REMARK  5 active torsions:
REMARK  status: ('A' for Active; 'I' for Inactive)
REMARK    1  A    between atoms: C_2  and  O_3 
REMARK    2  A    between atoms: C_2  and  C_5 
REMARK    3  A    between atoms: C_7  and  N_8 
REMARK    4  A    between atoms: N_8  and  C_9 
REMARK    5  A    between atoms: C_9  and  C_10 
ROOT
HETATM    1  N   UNL     1      41.242 -16.376   1.929  1.00  0.00    -0.289 NA
HETATM    2  H   UNL     1      40.852 -16.965   2.665  1.00  0.00     0.128 HD
ENDROOT
BRANCH   1   3
HETATM    3  C   UNL     1      40.577 -15.146   1.897  1.00  0.00     0.009 A 
HETATM    4  C   UNL     1      40.339 -14.573   0.636  1.00  0.00     0.033 A 
HETATM    5  C   UNL     1      39.725 -13.318   0.488  1.00  0.00    -0.028 A 
HETATM    6  C   UNL     1      39.337 -12.636   1.651  1.00  0.00     0.010 A 
HETATM    7  C   UNL     1      39.562 -13.188   2.910  1.00  0.00     0.002 A 
HETATM    8  C   UNL     1      40.188 -14.429   3.031  1.00  0.00     0.023 A 
BRANCH   5   9
HETATM    9  C   UNL     1      39.509 -12.645  -0.858  1.00  0.00     0.149 C 
HETATM   10  C   UNL     1      38.499 -13.328  -1.780  1.00  0.00     0.045 C 
BRANCH   9  11
HETATM   11  O   UNL     1      40.792 -12.597  -1.495  1.00  0.00    -0.386 OA
HETATM   12  C   UNL     1      40.730 -12.704  -2.909  1.00  0.00     0.202 C 
ENDBRANCH   9  11
ENDBRANCH   5   9
ENDBRANCH   1   3
BRANCH   1  13
HETATM   13  C   UNL     1      42.701 -16.433   1.913  1.00  0.00     0.133 C 
BRANCH  13  14
HETATM   14  C   UNL     1      43.194 -17.314   3.041  1.00  0.00    -0.016 A 
HETATM   15  C   UNL     1      43.424 -18.697   2.921  1.00  0.00     0.069 A 
HETATM   16  C   UNL     1      43.902 -19.499   3.949  1.00  0.00     0.012 A 
HETATM   17  N   UNL     1      43.254 -19.545   1.854  1.00  0.00    -0.277 N 
HETATM   18  C   UNL     1      43.943 -20.798   3.394  1.00  0.00     0.152 A 
HETATM   19  C   UNL     1      44.206 -18.916   5.189  1.00  0.00     0.015 A 
HETATM   20  N   UNL     1      43.540 -20.833   2.121  1.00  0.00    -0.186 NA
HETATM   21  C   UNL     1      44.023 -17.536   5.341  1.00  0.00     0.002 A 
HETATM   22  C   UNL     1      43.532 -16.756   4.291  1.00  0.00     0.011 A 
HETATM   23  H   UNL     1      42.919 -19.285   0.931  1.00  0.00     0.189 HD
ENDBRANCH  13  14
ENDBRANCH   1  13
TORSDOF 5
ENDMDL
