MODEL 1
REMARK VINA RESULT:      -8.5      0.000      0.000
REMARK  9 active torsions:
REMARK  status: ('A' for Active; 'I' for Inactive)
REMARK    1  A    between atoms: S_2  and  C_3 
REMARK    2  A    between atoms: C_3  and  C_4 
REMARK    3  A    between atoms: C_5  and  C_6 
REMARK    4  A    between atoms: C_6  and  O_7 
REMARK    5  A    between atoms: O_7  and  C_8 
REMARK    6  A    between atoms: C_8  and  C_9 
REMARK       I    between atoms: C_9  and  N_10 
REMARK    7  A    between atoms: N_10  and  C_11 
REMARK    8  A    between atoms: C_12  and  C_13 
REMARK       I    between atoms: C_13  and  N_14 
REMARK    9  A    between atoms: N_14  and  C_15 
ROOT
HETATM    1  C   UNL     1      43.155 -16.616   5.898  1.00  0.00     0.246 C 
HETATM    2  N   UNL     1      44.060 -17.215   5.039  1.00  0.00    -0.324 N 
HETATM    3  O   UNL     1      41.955 -16.865   5.943  1.00  0.00    -0.271 OA
HETATM    4  H   UNL     1      44.942 -16.729   4.889  1.00  0.00     0.169 HD
ENDROOT
BRANCH   1   5
HETATM    5  C   UNL     1      43.801 -15.548   6.784  1.00  0.00     0.282 C 
BRANCH   5   6
HETATM    6  O   UNL     1      42.939 -14.418   6.924  1.00  0.00    -0.307 OA
BRANCH   6   7
HETATM    7  C   UNL     1      43.192 -13.421   6.023  1.00  0.00     0.318 C 
HETATM    8  O   UNL     1      43.106 -13.558   4.808  1.00  0.00    -0.257 OA
BRANCH   7   9
HETATM    9  C   UNL     1      43.509 -12.183   6.696  1.00  0.00     0.159 A 
HETATM   10  C   UNL     1      42.826 -10.970   6.719  1.00  0.00     0.004 A 
HETATM   11  C   UNL     1      43.590 -10.100   7.557  1.00  0.00     0.008 A 
HETATM   12  C   UNL     1      44.681 -10.841   7.989  1.00  0.00     0.087 A 
HETATM   13  C   UNL     1      43.471  -8.767   7.995  1.00  0.00     0.015 A 
HETATM   14  O   UNL     1      44.633 -12.099   7.475  1.00  0.00    -0.303 OA
HETATM   15  C   UNL     1      45.674 -10.351   8.834  1.00  0.00     0.038 A 
HETATM   16  C   UNL     1      45.536  -9.026   9.259  1.00  0.00     0.003 A 
HETATM   17  C   UNL     1      44.454  -8.245   8.847  1.00  0.00     0.001 A 
BRANCH  10  18
HETATM   18  C   UNL     1      41.542 -10.653   6.031  1.00  0.00     0.116 C 
BRANCH  18  19
HETATM   19  S   UNL     1      41.843 -10.154   4.309  1.00  0.00    -0.169 SA
HETATM   20  C   UNL     1      40.715 -11.313   3.501  1.00  0.00     0.090 C 
ENDBRANCH  18  19
ENDBRANCH  10  18
ENDBRANCH   7   9
ENDBRANCH   6   7
ENDBRANCH   5   6
ENDBRANCH   1   5
BRANCH   2  21
HETATM   21  C   UNL     1      43.847 -18.388   4.276  1.00  0.00     0.050 A 
HETATM   22  C   UNL     1      43.418 -18.289   2.937  1.00  0.00     0.058 A 
HETATM   23  C   UNL     1      43.339 -19.426   2.121  1.00  0.00     0.019 A 
HETATM   24  C   UNL     1      43.655 -20.678   2.645  1.00  0.00     0.001 A 
HETATM   25  C   UNL     1      44.042 -20.793   3.979  1.00  0.00     0.002 A 
HETATM   26  C   UNL     1      44.138 -19.657   4.790  1.00  0.00     0.030 A 
BRANCH  22  27
HETATM   27  C   UNL     1      42.948 -17.005   2.358  1.00  0.00     0.254 C 
HETATM   28  N   UNL     1      41.665 -16.650   2.734  1.00  0.00    -0.352 N 
HETATM   29  H   UNL     1      41.112 -17.337   3.237  1.00  0.00     0.163 HD
HETATM   30  O   UNL     1      43.665 -16.363   1.602  1.00  0.00    -0.268 OA
BRANCH  28  31
HETATM   31  C   UNL     1      41.009 -15.462   2.288  1.00  0.00     0.084 A 
HETATM   32  C   UNL     1      40.166 -15.483   1.044  1.00  0.00     0.027 A 
HETATM   33  C   UNL     1      39.512 -15.355   2.388  1.00  0.00     0.027 A 
ENDBRANCH  28  31
ENDBRANCH  22  27
ENDBRANCH   2  21
TORSDOF 9
ENDMDL
MODEL 2
REMARK VINA RESULT:      -8.5      3.032      8.470
REMARK  9 active torsions:
REMARK  status: ('A' for Active; 'I' for Inactive)
REMARK    1  A    between atoms: S_2  and  C_3 
REMARK    2  A    between atoms: C_3  and  C_4 
REMARK    3  A    between atoms: C_5  and  C_6 
REMARK    4  A    between atoms: C_6  and  O_7 
REMARK    5  A    between atoms: O_7  and  C_8 
REMARK    6  A    between atoms: C_8  and  C_9 
REMARK       I    between atoms: C_9  and  N_10 
REMARK    7  A    between atoms: N_10  and  C_11 
REMARK    8  A    between atoms: C_12  and  C_13 
REMARK       I    between atoms: C_13  and  N_14 
REMARK    9  A    between atoms: N_14  and  C_15 
ROOT
HETATM    1  C   UNL     1      41.518 -11.143   5.916  1.00  0.00     0.246 C 
HETATM    2  N   UNL     1      42.407 -11.625   6.862  1.00  0.00    -0.324 N 
HETATM    3  O   UNL     1      41.674 -10.120   5.259  1.00  0.00    -0.271 OA
HETATM    4  H   UNL     1      42.042 -12.295   7.535  1.00  0.00     0.169 HD
ENDROOT
BRANCH   1   5
HETATM    5  C   UNL     1      40.260 -12.007   5.794  1.00  0.00     0.282 C 
BRANCH   5   6
HETATM    6  O   UNL     1      40.499 -13.132   4.948  1.00  0.00    -0.307 OA
BRANCH   6   7
HETATM    7  C   UNL     1      40.423 -14.333   5.598  1.00  0.00     0.318 C 
HETATM    8  O   UNL     1      39.732 -14.532   6.590  1.00  0.00    -0.257 OA
BRANCH   7   9
HETATM    9  C   UNL     1      41.210 -15.338   4.922  1.00  0.00     0.159 A 
HETATM   10  C   UNL     1      41.108 -15.842   3.628  1.00  0.00     0.004 A 
HETATM   11  C   UNL     1      42.155 -16.806   3.494  1.00  0.00     0.008 A 
HETATM   12  C   UNL     1      42.824 -16.820   4.710  1.00  0.00     0.087 A 
HETATM   13  C   UNL     1      42.605 -17.664   2.473  1.00  0.00     0.015 A 
HETATM   14  O   UNL     1      42.259 -15.933   5.572  1.00  0.00    -0.303 OA
HETATM   15  C   UNL     1      43.920 -17.632   4.990  1.00  0.00     0.038 A 
HETATM   16  C   UNL     1      44.353 -18.475   3.962  1.00  0.00     0.003 A 
HETATM   17  C   UNL     1      43.708 -18.493   2.724  1.00  0.00     0.001 A 
BRANCH  10  18
HETATM   18  C   UNL     1      40.122 -15.439   2.586  1.00  0.00     0.116 C 
BRANCH  18  19
HETATM   19  S   UNL     1      40.863 -14.244   1.432  1.00  0.00    -0.169 SA
HETATM   20  C   UNL     1      39.963 -14.731  -0.059  1.00  0.00     0.090 C 
ENDBRANCH  18  19
ENDBRANCH  10  18
ENDBRANCH   7   9
ENDBRANCH   6   7
ENDBRANCH   5   6
ENDBRANCH   1   5
BRANCH   2  21
HETATM   21  C   UNL     1      43.748 -11.212   7.043  1.00  0.00     0.050 A 
HETATM   22  C   UNL     1      44.099 -10.434   8.165  1.00  0.00     0.058 A 
HETATM   23  C   UNL     1      45.441 -10.136   8.441  1.00  0.00     0.019 A 
HETATM   24  C   UNL     1      46.441 -10.582   7.581  1.00  0.00     0.001 A 
HETATM   25  C   UNL     1      46.103 -11.318   6.447  1.00  0.00     0.002 A 
HETATM   26  C   UNL     1      44.766 -11.632   6.179  1.00  0.00     0.030 A 
BRANCH  22  27
HETATM   27  C   UNL     1      43.073  -9.825   9.048  1.00  0.00     0.254 C 
HETATM   28  N   UNL     1      43.129 -10.256  10.362  1.00  0.00    -0.352 N 
HETATM   29  H   UNL     1      43.746 -11.032  10.579  1.00  0.00     0.163 HD
HETATM   30  O   UNL     1      42.257  -9.031   8.601  1.00  0.00    -0.268 OA
BRANCH  28  31
HETATM   31  C   UNL     1      42.232  -9.810  11.380  1.00  0.00     0.084 A 
HETATM   32  C   UNL     1      42.458 -10.203  12.814  1.00  0.00     0.027 A 
HETATM   33  C   UNL     1      42.692  -8.786  12.382  1.00  0.00     0.027 A 
ENDBRANCH  28  31
ENDBRANCH  22  27
ENDBRANCH   2  21
TORSDOF 9
ENDMDL
MODEL 3
REMARK VINA RESULT:      -8.2      1.577      1.941
REMARK  9 active torsions:
REMARK  status: ('A' for Active; 'I' for Inactive)
REMARK    1  A    between atoms: S_2  and  C_3 
REMARK    2  A    between atoms: C_3  and  C_4 
REMARK    3  A    between atoms: C_5  and  C_6 
REMARK    4  A    between atoms: C_6  and  O_7 
REMARK    5  A    between atoms: O_7  and  C_8 
REMARK    6  A    between atoms: C_8  and  C_9 
REMARK       I    between atoms: C_9  and  N_10 
REMARK    7  A    between atoms: N_10  and  C_11 
REMARK    8  A    between atoms: C_12  and  C_13 
REMARK       I    between atoms: C_13  and  N_14 
REMARK    9  A    between atoms: N_14  and  C_15 
ROOT
HETATM    1  C   UNL     1      42.575 -15.237   6.289  1.00  0.00     0.246 C 
HETATM    2  N   UNL     1      43.061 -15.399   5.003  1.00  0.00    -0.324 N 
HETATM    3  O   UNL     1      41.987 -16.097   6.935  1.00  0.00    -0.271 OA
HETATM    4  H   UNL     1      43.256 -14.552   4.475  1.00  0.00     0.169 HD
ENDROOT
BRANCH   1   5
HETATM    5  C   UNL     1      42.807 -13.825   6.832  1.00  0.00     0.282 C 
BRANCH   5   6
HETATM    6  O   UNL     1      44.136 -13.385   6.550  1.00  0.00    -0.307 OA
BRANCH   6   7
HETATM    7  C   UNL     1      44.207 -12.081   6.144  1.00  0.00     0.318 C 
HETATM    8  O   UNL     1      44.399 -11.734   4.985  1.00  0.00    -0.257 OA
BRANCH   7   9
HETATM    9  C   UNL     1      43.965 -11.182   7.249  1.00  0.00     0.159 A 
HETATM   10  C   UNL     1      43.068 -10.123   7.367  1.00  0.00     0.004 A 
HETATM   11  C   UNL     1      43.251  -9.595   8.683  1.00  0.00     0.008 A 
HETATM   12  C   UNL     1      44.240 -10.368   9.275  1.00  0.00     0.087 A 
HETATM   13  C   UNL     1      42.682  -8.548   9.433  1.00  0.00     0.015 A 
HETATM   14  O   UNL     1      44.670 -11.328   8.414  1.00  0.00    -0.303 OA
HETATM   15  C   UNL     1      44.711 -10.176  10.572  1.00  0.00     0.038 A 
HETATM   16  C   UNL     1      44.132  -9.133  11.300  1.00  0.00     0.003 A 
HETATM   17  C   UNL     1      43.134  -8.330  10.742  1.00  0.00     0.001 A 
BRANCH  10  18
HETATM   18  C   UNL     1      42.096  -9.654   6.340  1.00  0.00     0.116 C 
BRANCH  18  19
HETATM   19  S   UNL     1      40.593 -10.676   6.365  1.00  0.00    -0.169 SA
HETATM   20  C   UNL     1      40.768 -11.437   4.734  1.00  0.00     0.090 C 
ENDBRANCH  18  19
ENDBRANCH  10  18
ENDBRANCH   7   9
ENDBRANCH   6   7
ENDBRANCH   5   6
ENDBRANCH   1   5
BRANCH   2  21
HETATM   21  C   UNL     1      43.227 -16.626   4.316  1.00  0.00     0.050 A 
HETATM   22  C   UNL     1      42.415 -16.925   3.203  1.00  0.00     0.058 A 
HETATM   23  C   UNL     1      42.657 -18.063   2.421  1.00  0.00     0.019 A 
HETATM   24  C   UNL     1      43.690 -18.932   2.764  1.00  0.00     0.001 A 
HETATM   25  C   UNL     1      44.475 -18.667   3.885  1.00  0.00     0.002 A 
HETATM   26  C   UNL     1      44.246 -17.522   4.656  1.00  0.00     0.030 A 
BRANCH  22  27
HETATM   27  C   UNL     1      41.223 -16.108   2.861  1.00  0.00     0.254 C 
HETATM   28  N   UNL     1      41.273 -15.533   1.603  1.00  0.00    -0.352 N 
HETATM   29  H   UNL     1      42.148 -15.591   1.091  1.00  0.00     0.163 HD
HETATM   30  O   UNL     1      40.311 -15.968   3.664  1.00  0.00    -0.268 OA
BRANCH  28  31
HETATM   31  C   UNL     1      40.242 -14.700   1.072  1.00  0.00     0.084 A 
HETATM   32  C   UNL     1      40.581 -13.586   0.121  1.00  0.00     0.027 A 
HETATM   33  C   UNL     1      39.872 -14.808  -0.383  1.00  0.00     0.027 A 
ENDBRANCH  28  31
ENDBRANCH  22  27
ENDBRANCH   2  21
TORSDOF 9
ENDMDL
MODEL 4
REMARK VINA RESULT:      -7.9      3.762      9.117
REMARK  9 active torsions:
REMARK  status: ('A' for Active; 'I' for Inactive)
REMARK    1  A    between atoms: S_2  and  C_3 
REMARK    2  A    between atoms: C_3  and  C_4 
REMARK    3  A    between atoms: C_5  and  C_6 
REMARK    4  A    between atoms: C_6  and  O_7 
REMARK    5  A    between atoms: O_7  and  C_8 
REMARK    6  A    between atoms: C_8  and  C_9 
REMARK       I    between atoms: C_9  and  N_10 
REMARK    7  A    between atoms: N_10  and  C_11 
REMARK    8  A    between atoms: C_12  and  C_13 
REMARK       I    between atoms: C_13  and  N_14 
REMARK    9  A    between atoms: N_14  and  C_15 
ROOT
HETATM    1  C   UNL     1      41.859  -9.890   6.579  1.00  0.00     0.246 C 
HETATM    2  N   UNL     1      42.368 -10.546   7.687  1.00  0.00    -0.324 N 
HETATM    3  O   UNL     1      42.069  -8.716   6.296  1.00  0.00    -0.271 OA
HETATM    4  H   UNL     1      41.899 -11.403   7.970  1.00  0.00     0.169 HD
ENDROOT
BRANCH   1   5
HETATM    5  C   UNL     1      40.944 -10.782   5.736  1.00  0.00     0.282 C 
BRANCH   5   6
HETATM    6  O   UNL     1      41.163 -12.160   6.037  1.00  0.00    -0.307 OA
BRANCH   6   7
HETATM    7  C   UNL     1      40.317 -13.007   5.375  1.00  0.00     0.318 C 
HETATM    8  O   UNL     1      39.100 -12.870   5.339  1.00  0.00    -0.257 OA
BRANCH   7   9
HETATM    9  C   UNL     1      41.055 -14.037   4.680  1.00  0.00     0.159 A 
HETATM   10  C   UNL     1      41.533 -15.263   5.134  1.00  0.00     0.004 A 
HETATM   11  C   UNL     1      42.177 -15.876   4.015  1.00  0.00     0.008 A 
HETATM   12  C   UNL     1      42.043 -14.986   2.959  1.00  0.00     0.087 A 
HETATM   13  C   UNL     1      42.854 -17.089   3.787  1.00  0.00     0.015 A 
HETATM   14  O   UNL     1      41.364 -13.877   3.356  1.00  0.00    -0.303 OA
HETATM   15  C   UNL     1      42.539 -15.214   1.677  1.00  0.00     0.038 A 
HETATM   16  C   UNL     1      43.206 -16.425   1.470  1.00  0.00     0.003 A 
HETATM   17  C   UNL     1      43.363 -17.349   2.506  1.00  0.00     0.001 A 
BRANCH  10  18
HETATM   18  C   UNL     1      41.380 -15.832   6.503  1.00  0.00     0.116 C 
BRANCH  18  19
HETATM   19  S   UNL     1      42.824 -15.429   7.531  1.00  0.00    -0.169 SA
HETATM   20  C   UNL     1      43.717 -16.990   7.350  1.00  0.00     0.090 C 
ENDBRANCH  18  19
ENDBRANCH  10  18
ENDBRANCH   7   9
ENDBRANCH   6   7
ENDBRANCH   5   6
ENDBRANCH   1   5
BRANCH   2  21
HETATM   21  C   UNL     1      43.420 -10.096   8.521  1.00  0.00     0.050 A 
HETATM   22  C   UNL     1      43.131  -9.570   9.797  1.00  0.00     0.058 A 
HETATM   23  C   UNL     1      44.161  -9.254  10.694  1.00  0.00     0.019 A 
HETATM   24  C   UNL     1      45.489  -9.426  10.313  1.00  0.00     0.001 A 
HETATM   25  C   UNL     1      45.788  -9.908   9.040  1.00  0.00     0.002 A 
HETATM   26  C   UNL     1      44.761 -10.241   8.149  1.00  0.00     0.030 A 
BRANCH  22  27
HETATM   27  C   UNL     1      41.743  -9.246  10.214  1.00  0.00     0.254 C 
HETATM   28  N   UNL     1      41.230 -10.094  11.179  1.00  0.00    -0.352 N 
HETATM   29  H   UNL     1      41.765 -10.926  11.411  1.00  0.00     0.163 HD
HETATM   30  O   UNL     1      41.141  -8.311   9.705  1.00  0.00    -0.268 OA
BRANCH  28  31
HETATM   31  C   UNL     1      39.913  -9.975  11.719  1.00  0.00     0.084 A 
HETATM   32  C   UNL     1      39.587 -10.569  13.061  1.00  0.00     0.027 A 
HETATM   33  C   UNL     1      39.671  -9.080  12.904  1.00  0.00     0.027 A 
ENDBRANCH  28  31
ENDBRANCH  22  27
ENDBRANCH   2  21
TORSDOF 9
ENDMDL
MODEL 5
REMARK VINA RESULT:      -7.7      2.716      8.367
REMARK  9 active torsions:
REMARK  status: ('A' for Active; 'I' for Inactive)
REMARK    1  A    between atoms: S_2  and  C_3 
REMARK    2  A    between atoms: C_3  and  C_4 
REMARK    3  A    between atoms: C_5  and  C_6 
REMARK    4  A    between atoms: C_6  and  O_7 
REMARK    5  A    between atoms: O_7  and  C_8 
REMARK    6  A    between atoms: C_8  and  C_9 
REMARK       I    between atoms: C_9  and  N_10 
REMARK    7  A    between atoms: N_10  and  C_11 
REMARK    8  A    between atoms: C_12  and  C_13 
REMARK       I    between atoms: C_13  and  N_14 
REMARK    9  A    between atoms: N_14  and  C_15 
ROOT
HETATM    1  C   UNL     1      44.593 -11.740   7.247  1.00  0.00     0.246 C 
HETATM    2  N   UNL     1      43.551 -11.369   8.079  1.00  0.00    -0.324 N 
HETATM    3  O   UNL     1      45.592 -11.065   7.023  1.00  0.00    -0.271 OA
HETATM    4  H   UNL     1      42.668 -11.859   7.956  1.00  0.00     0.169 HD
ENDROOT
BRANCH   1   5
HETATM    5  C   UNL     1      44.357 -13.095   6.576  1.00  0.00     0.282 C 
BRANCH   5   6
HETATM    6  O   UNL     1      43.253 -13.027   5.673  1.00  0.00    -0.307 OA
BRANCH   6   7
HETATM    7  C   UNL     1      42.327 -14.017   5.865  1.00  0.00     0.318 C 
HETATM    8  O   UNL     1      41.329 -13.894   6.565  1.00  0.00    -0.257 OA
BRANCH   7   9
HETATM    9  C   UNL     1      42.654 -15.189   5.087  1.00  0.00     0.159 A 
HETATM   10  C   UNL     1      42.530 -15.424   3.720  1.00  0.00     0.004 A 
HETATM   11  C   UNL     1      43.019 -16.750   3.501  1.00  0.00     0.008 A 
HETATM   12  C   UNL     1      43.409 -17.227   4.744  1.00  0.00     0.087 A 
HETATM   13  C   UNL     1      43.173 -17.591   2.383  1.00  0.00     0.015 A 
HETATM   14  O   UNL     1      43.194 -16.287   5.702  1.00  0.00    -0.303 OA
HETATM   15  C   UNL     1      43.947 -18.493   4.962  1.00  0.00     0.038 A 
HETATM   16  C   UNL     1      44.094 -19.312   3.838  1.00  0.00     0.003 A 
HETATM   17  C   UNL     1      43.713 -18.872   2.569  1.00  0.00     0.001 A 
BRANCH  10  18
HETATM   18  C   UNL     1      42.018 -14.476   2.691  1.00  0.00     0.116 C 
BRANCH  18  19
HETATM   19  S   UNL     1      40.200 -14.490   2.654  1.00  0.00    -0.169 SA
HETATM   20  C   UNL     1      39.975 -15.759   1.386  1.00  0.00     0.090 C 
ENDBRANCH  18  19
ENDBRANCH  10  18
ENDBRANCH   7   9
ENDBRANCH   6   7
ENDBRANCH   5   6
ENDBRANCH   1   5
BRANCH   2  21
HETATM   21  C   UNL     1      43.562 -10.313   9.022  1.00  0.00     0.050 A 
HETATM   22  C   UNL     1      42.626  -9.264   8.916  1.00  0.00     0.058 A 
HETATM   23  C   UNL     1      42.524  -8.288   9.917  1.00  0.00     0.019 A 
HETATM   24  C   UNL     1      43.381  -8.329  11.014  1.00  0.00     0.001 A 
HETATM   25  C   UNL     1      44.337  -9.338  11.110  1.00  0.00     0.002 A 
HETATM   26  C   UNL     1      44.428 -10.324  10.121  1.00  0.00     0.030 A 
BRANCH  22  27
HETATM   27  C   UNL     1      41.773  -9.094   7.713  1.00  0.00     0.254 C 
HETATM   28  N   UNL     1      40.666  -9.924   7.682  1.00  0.00    -0.352 N 
HETATM   29  H   UNL     1      40.604 -10.657   8.382  1.00  0.00     0.163 HD
HETATM   30  O   UNL     1      42.077  -8.291   6.841  1.00  0.00    -0.268 OA
BRANCH  28  31
HETATM   31  C   UNL     1      39.716  -9.937   6.616  1.00  0.00     0.084 A 
HETATM   32  C   UNL     1      39.895 -10.872   5.452  1.00  0.00     0.027 A 
HETATM   33  C   UNL     1      38.801 -11.120   6.448  1.00  0.00     0.027 A 
ENDBRANCH  28  31
ENDBRANCH  22  27
ENDBRANCH   2  21
TORSDOF 9
ENDMDL
MODEL 6
REMARK VINA RESULT:      -7.7      2.859      8.882
REMARK  9 active torsions:
REMARK  status: ('A' for Active; 'I' for Inactive)
REMARK    1  A    between atoms: S_2  and  C_3 
REMARK    2  A    between atoms: C_3  and  C_4 
REMARK    3  A    between atoms: C_5  and  C_6 
REMARK    4  A    between atoms: C_6  and  O_7 
REMARK    5  A    between atoms: O_7  and  C_8 
REMARK    6  A    between atoms: C_8  and  C_9 
REMARK       I    between atoms: C_9  and  N_10 
REMARK    7  A    between atoms: N_10  and  C_11 
REMARK    8  A    between atoms: C_12  and  C_13 
REMARK       I    between atoms: C_13  and  N_14 
REMARK    9  A    between atoms: N_14  and  C_15 
ROOT
HETATM    1  C   UNL     1      39.971 -12.249   5.598  1.00  0.00     0.246 C 
HETATM    2  N   UNL     1      40.809 -11.167   5.390  1.00  0.00    -0.324 N 
HETATM    3  O   UNL     1      39.084 -12.302   6.443  1.00  0.00    -0.271 OA
HETATM    4  H   UNL     1      41.673 -11.346   4.883  1.00  0.00     0.169 HD
ENDROOT
BRANCH   1   5
HETATM    5  C   UNL     1      40.292 -13.429   4.678  1.00  0.00     0.282 C 
BRANCH   5   6
HETATM    6  O   UNL     1      41.301 -14.260   5.253  1.00  0.00    -0.307 OA
BRANCH   6   7
HETATM    7  C   UNL     1      42.455 -14.308   4.520  1.00  0.00     0.318 C 
HETATM    8  O   UNL     1      43.160 -13.334   4.288  1.00  0.00    -0.257 OA
BRANCH   7   9
HETATM    9  C   UNL     1      42.755 -15.663   4.117  1.00  0.00     0.159 A 
HETATM   10  C   UNL     1      42.603 -16.289   2.883  1.00  0.00     0.004 A 
HETATM   11  C   UNL     1      43.074 -17.627   3.056  1.00  0.00     0.008 A 
HETATM   12  C   UNL     1      43.484 -17.723   4.379  1.00  0.00     0.087 A 
HETATM   13  C   UNL     1      43.197 -18.763   2.234  1.00  0.00     0.015 A 
HETATM   14  O   UNL     1      43.297 -16.538   5.020  1.00  0.00    -0.303 OA
HETATM   15  C   UNL     1      44.014 -18.876   4.951  1.00  0.00     0.038 A 
HETATM   16  C   UNL     1      44.131 -19.992   4.117  1.00  0.00     0.003 A 
HETATM   17  C   UNL     1      43.729 -19.940   2.781  1.00  0.00     0.001 A 
BRANCH  10  18
HETATM   18  C   UNL     1      42.079 -15.679   1.628  1.00  0.00     0.116 C 
BRANCH  18  19
HETATM   19  S   UNL     1      40.261 -15.707   1.610  1.00  0.00    -0.169 SA
HETATM   20  C   UNL     1      39.999 -14.672   0.151  1.00  0.00     0.090 C 
ENDBRANCH  18  19
ENDBRANCH  10  18
ENDBRANCH   7   9
ENDBRANCH   6   7
ENDBRANCH   5   6
ENDBRANCH   1   5
BRANCH   2  21
HETATM   21  C   UNL     1      40.630  -9.856   5.891  1.00  0.00     0.050 A 
HETATM   22  C   UNL     1      41.602  -9.286   6.738  1.00  0.00     0.058 A 
HETATM   23  C   UNL     1      41.518  -7.942   7.128  1.00  0.00     0.019 A 
HETATM   24  C   UNL     1      40.442  -7.164   6.705  1.00  0.00     0.001 A 
HETATM   25  C   UNL     1      39.454  -7.728   5.900  1.00  0.00     0.002 A 
HETATM   26  C   UNL     1      39.546  -9.064   5.495  1.00  0.00     0.030 A 
BRANCH  22  27
HETATM   27  C   UNL     1      42.702 -10.095   7.323  1.00  0.00     0.254 C 
HETATM   28  N   UNL     1      42.889  -9.898   8.680  1.00  0.00    -0.352 N 
HETATM   29  H   UNL     1      42.379  -9.139   9.123  1.00  0.00     0.163 HD
HETATM   30  O   UNL     1      43.370 -10.840   6.620  1.00  0.00    -0.268 OA
BRANCH  28  31
HETATM   31  C   UNL     1      43.895 -10.563   9.445  1.00  0.00     0.084 A 
HETATM   32  C   UNL     1      45.332 -10.134   9.343  1.00  0.00     0.027 A 
HETATM   33  C   UNL     1      44.554  -9.846  10.592  1.00  0.00     0.027 A 
ENDBRANCH  28  31
ENDBRANCH  22  27
ENDBRANCH   2  21
TORSDOF 9
ENDMDL
MODEL 7
REMARK VINA RESULT:      -7.5      2.860      6.341
REMARK  9 active torsions:
REMARK  status: ('A' for Active; 'I' for Inactive)
REMARK    1  A    between atoms: S_2  and  C_3 
REMARK    2  A    between atoms: C_3  and  C_4 
REMARK    3  A    between atoms: C_5  and  C_6 
REMARK    4  A    between atoms: C_6  and  O_7 
REMARK    5  A    between atoms: O_7  and  C_8 
REMARK    6  A    between atoms: C_8  and  C_9 
REMARK       I    between atoms: C_9  and  N_10 
REMARK    7  A    between atoms: N_10  and  C_11 
REMARK    8  A    between atoms: C_12  and  C_13 
REMARK       I    between atoms: C_13  and  N_14 
REMARK    9  A    between atoms: N_14  and  C_15 
ROOT
HETATM    1  C   UNL     1      40.494 -11.105   0.989  1.00  0.00     0.246 C 
HETATM    2  N   UNL     1      41.087 -11.793  -0.056  1.00  0.00    -0.324 N 
HETATM    3  O   UNL     1      39.286 -10.997   1.166  1.00  0.00    -0.271 OA
HETATM    4  H   UNL     1      42.057 -11.568  -0.263  1.00  0.00     0.169 HD
ENDROOT
BRANCH   1   5
HETATM    5  C   UNL     1      41.517 -10.431   1.906  1.00  0.00     0.282 C 
BRANCH   5   6
HETATM    6  O   UNL     1      41.524 -11.046   3.195  1.00  0.00    -0.307 OA
BRANCH   6   7
HETATM    7  C   UNL     1      42.759 -11.482   3.588  1.00  0.00     0.318 C 
HETATM    8  O   UNL     1      43.812 -10.967   3.233  1.00  0.00    -0.257 OA
BRANCH   7   9
HETATM    9  C   UNL     1      42.648 -12.581   4.519  1.00  0.00     0.159 A 
HETATM   10  C   UNL     1      43.400 -12.880   5.652  1.00  0.00     0.004 A 
HETATM   11  C   UNL     1      42.838 -14.077   6.196  1.00  0.00     0.008 A 
HETATM   12  C   UNL     1      41.783 -14.420   5.362  1.00  0.00     0.087 A 
HETATM   13  C   UNL     1      43.110 -14.900   7.305  1.00  0.00     0.015 A 
HETATM   14  O   UNL     1      41.663 -13.518   4.352  1.00  0.00    -0.303 OA
HETATM   15  C   UNL     1      40.968 -15.535   5.551  1.00  0.00     0.038 A 
HETATM   16  C   UNL     1      41.254 -16.338   6.659  1.00  0.00     0.003 A 
HETATM   17  C   UNL     1      42.307 -16.029   7.523  1.00  0.00     0.001 A 
BRANCH  10  18
HETATM   18  C   UNL     1      44.542 -12.096   6.201  1.00  0.00     0.116 C 
BRANCH  18  19
HETATM   19  S   UNL     1      43.981 -10.991   7.532  1.00  0.00    -0.169 SA
HETATM   20  C   UNL     1      45.595 -10.349   8.035  1.00  0.00     0.090 C 
ENDBRANCH  18  19
ENDBRANCH  10  18
ENDBRANCH   7   9
ENDBRANCH   6   7
ENDBRANCH   5   6
ENDBRANCH   1   5
BRANCH   2  21
HETATM   21  C   UNL     1      40.452 -12.713  -0.925  1.00  0.00     0.050 A 
HETATM   22  C   UNL     1      40.100 -13.995  -0.458  1.00  0.00     0.058 A 
HETATM   23  C   UNL     1      39.343 -14.868  -1.252  1.00  0.00     0.019 A 
HETATM   24  C   UNL     1      38.961 -14.481  -2.535  1.00  0.00     0.001 A 
HETATM   25  C   UNL     1      39.336 -13.231  -3.022  1.00  0.00     0.002 A 
HETATM   26  C   UNL     1      40.076 -12.352  -2.224  1.00  0.00     0.030 A 
BRANCH  22  27
HETATM   27  C   UNL     1      40.583 -14.513   0.848  1.00  0.00     0.254 C 
HETATM   28  N   UNL     1      41.852 -15.062   0.805  1.00  0.00    -0.352 N 
HETATM   29  H   UNL     1      42.279 -15.196  -0.107  1.00  0.00     0.163 HD
HETATM   30  O   UNL     1      39.874 -14.454   1.843  1.00  0.00    -0.268 OA
BRANCH  28  31
HETATM   31  C   UNL     1      42.509 -15.627   1.939  1.00  0.00     0.084 A 
HETATM   32  C   UNL     1      42.081 -16.965   2.475  1.00  0.00     0.027 A 
HETATM   33  C   UNL     1      43.396 -16.831   1.764  1.00  0.00     0.027 A 
ENDBRANCH  28  31
ENDBRANCH  22  27
ENDBRANCH   2  21
TORSDOF 9
ENDMDL
MODEL 8
REMARK VINA RESULT:      -7.5      2.317      3.352
REMARK  9 active torsions:
REMARK  status: ('A' for Active; 'I' for Inactive)
REMARK    1  A    between atoms: S_2  and  C_3 
REMARK    2  A    between atoms: C_3  and  C_4 
REMARK    3  A    between atoms: C_5  and  C_6 
REMARK    4  A    between atoms: C_6  and  O_7 
REMARK    5  A    between atoms: O_7  and  C_8 
REMARK    6  A    between atoms: C_8  and  C_9 
REMARK       I    between atoms: C_9  and  N_10 
REMARK    7  A    between atoms: N_10  and  C_11 
REMARK    8  A    between atoms: C_12  and  C_13 
REMARK       I    between atoms: C_13  and  N_14 
REMARK    9  A    between atoms: N_14  and  C_15 
ROOT
HETATM    1  C   UNL     1      41.320 -13.780   4.530  1.00  0.00     0.246 C 
HETATM    2  N   UNL     1      41.072 -15.142   4.564  1.00  0.00    -0.324 N 
HETATM    3  O   UNL     1      42.380 -13.265   4.192  1.00  0.00    -0.271 OA
HETATM    4  H   UNL     1      40.285 -15.451   5.130  1.00  0.00     0.169 HD
ENDROOT
BRANCH   1   5
HETATM    5  C   UNL     1      40.127 -12.951   5.012  1.00  0.00     0.282 C 
BRANCH   5   6
HETATM    6  O   UNL     1      40.449 -12.255   6.217  1.00  0.00    -0.307 OA
BRANCH   6   7
HETATM    7  C   UNL     1      40.621 -10.909   6.042  1.00  0.00     0.318 C 
HETATM    8  O   UNL     1      39.809 -10.181   5.483  1.00  0.00    -0.257 OA
BRANCH   7   9
HETATM    9  C   UNL     1      41.849 -10.460   6.658  1.00  0.00     0.159 A 
HETATM   10  C   UNL     1      42.088  -9.385   7.509  1.00  0.00     0.004 A 
HETATM   11  C   UNL     1      43.483  -9.427   7.818  1.00  0.00     0.008 A 
HETATM   12  C   UNL     1      43.995 -10.524   7.138  1.00  0.00     0.087 A 
HETATM   13  C   UNL     1      44.362  -8.655   8.601  1.00  0.00     0.015 A 
HETATM   14  O   UNL     1      43.011 -11.151   6.441  1.00  0.00    -0.303 OA
HETATM   15  C   UNL     1      45.332 -10.915   7.180  1.00  0.00     0.038 A 
HETATM   16  C   UNL     1      46.188 -10.136   7.964  1.00  0.00     0.003 A 
HETATM   17  C   UNL     1      45.714  -9.024   8.663  1.00  0.00     0.001 A 
BRANCH  10  18
HETATM   18  C   UNL     1      41.087  -8.406   8.018  1.00  0.00     0.116 C 
BRANCH  18  19
HETATM   19  S   UNL     1      40.129  -9.121   9.389  1.00  0.00    -0.169 SA
HETATM   20  C   UNL     1      41.208  -8.617  10.750  1.00  0.00     0.090 C 
ENDBRANCH  18  19
ENDBRANCH  10  18
ENDBRANCH   7   9
ENDBRANCH   6   7
ENDBRANCH   5   6
ENDBRANCH   1   5
BRANCH   2  21
HETATM   21  C   UNL     1      41.858 -16.155   3.965  1.00  0.00     0.050 A 
HETATM   22  C   UNL     1      41.793 -16.365   2.573  1.00  0.00     0.058 A 
HETATM   23  C   UNL     1      42.666 -17.261   1.939  1.00  0.00     0.019 A 
HETATM   24  C   UNL     1      43.588 -17.981   2.695  1.00  0.00     0.001 A 
HETATM   25  C   UNL     1      43.635 -17.811   4.077  1.00  0.00     0.002 A 
HETATM   26  C   UNL     1      42.777 -16.904   4.709  1.00  0.00     0.030 A 
BRANCH  22  27
HETATM   27  C   UNL     1      40.751 -15.724   1.731  1.00  0.00     0.254 C 
HETATM   28  N   UNL     1      41.248 -14.833   0.797  1.00  0.00    -0.352 N 
HETATM   29  H   UNL     1      42.232 -14.586   0.854  1.00  0.00     0.163 HD
HETATM   30  O   UNL     1      39.567 -15.978   1.902  1.00  0.00    -0.268 OA
BRANCH  28  31
HETATM   31  C   UNL     1      40.427 -14.095  -0.109  1.00  0.00     0.084 A 
HETATM   32  C   UNL     1      39.654 -12.898   0.370  1.00  0.00     0.027 A 
HETATM   33  C   UNL     1      40.838 -12.711  -0.531  1.00  0.00     0.027 A 
ENDBRANCH  28  31
ENDBRANCH  22  27
ENDBRANCH   2  21
TORSDOF 9
ENDMDL
MODEL 9
REMARK VINA RESULT:      -7.4      1.781      3.579
REMARK  9 active torsions:
REMARK  status: ('A' for Active; 'I' for Inactive)
REMARK    1  A    between atoms: S_2  and  C_3 
REMARK    2  A    between atoms: C_3  and  C_4 
REMARK    3  A    between atoms: C_5  and  C_6 
REMARK    4  A    between atoms: C_6  and  O_7 
REMARK    5  A    between atoms: O_7  and  C_8 
REMARK    6  A    between atoms: C_8  and  C_9 
REMARK       I    between atoms: C_9  and  N_10 
REMARK    7  A    between atoms: N_10  and  C_11 
REMARK    8  A    between atoms: C_12  and  C_13 
REMARK       I    between atoms: C_13  and  N_14 
REMARK    9  A    between atoms: N_14  and  C_15 
ROOT
HETATM    1  C   UNL     1      42.818 -15.660   2.075  1.00  0.00     0.246 C 
HETATM    2  N   UNL     1      42.415 -16.673   2.930  1.00  0.00    -0.324 N 
HETATM    3  O   UNL     1      43.885 -15.630   1.472  1.00  0.00    -0.271 OA
HETATM    4  H   UNL     1      41.668 -16.452   3.584  1.00  0.00     0.169 HD
ENDROOT
BRANCH   1   5
HETATM    5  C   UNL     1      41.796 -14.524   1.985  1.00  0.00     0.282 C 
BRANCH   5   6
HETATM    6  O   UNL     1      42.451 -13.255   1.972  1.00  0.00    -0.307 OA
BRANCH   6   7
HETATM    7  C   UNL     1      41.762 -12.276   2.636  1.00  0.00     0.318 C 
HETATM    8  O   UNL     1      40.693 -11.814   2.256  1.00  0.00    -0.257 OA
BRANCH   7   9
HETATM    9  C   UNL     1      42.432 -11.914   3.863  1.00  0.00     0.159 A 
HETATM   10  C   UNL     1      41.907 -11.567   5.106  1.00  0.00     0.004 A 
HETATM   11  C   UNL     1      43.030 -11.321   5.955  1.00  0.00     0.008 A 
HETATM   12  C   UNL     1      44.158 -11.539   5.176  1.00  0.00     0.087 A 
HETATM   13  C   UNL     1      43.209 -10.940   7.299  1.00  0.00     0.015 A 
HETATM   14  O   UNL     1      43.800 -11.900   3.915  1.00  0.00    -0.303 OA
HETATM   15  C   UNL     1      45.465 -11.405   5.638  1.00  0.00     0.038 A 
HETATM   16  C   UNL     1      45.621 -11.028   6.975  1.00  0.00     0.003 A 
HETATM   17  C   UNL     1      44.513 -10.798   7.794  1.00  0.00     0.001 A 
BRANCH  10  18
HETATM   18  C   UNL     1      40.467 -11.494   5.480  1.00  0.00     0.116 C 
BRANCH  18  19
HETATM   19  S   UNL     1      39.860  -9.784   5.368  1.00  0.00    -0.169 SA
HETATM   20  C   UNL     1      39.563  -9.496   7.128  1.00  0.00     0.090 C 
ENDBRANCH  18  19
ENDBRANCH  10  18
ENDBRANCH   7   9
ENDBRANCH   6   7
ENDBRANCH   5   6
ENDBRANCH   1   5
BRANCH   2  21
HETATM   21  C   UNL     1      43.000 -17.957   3.047  1.00  0.00     0.050 A 
HETATM   22  C   UNL     1      43.602 -18.348   4.260  1.00  0.00     0.058 A 
HETATM   23  C   UNL     1      44.057 -19.661   4.446  1.00  0.00     0.019 A 
HETATM   24  C   UNL     1      43.947 -20.586   3.410  1.00  0.00     0.001 A 
HETATM   25  C   UNL     1      43.389 -20.199   2.193  1.00  0.00     0.002 A 
HETATM   26  C   UNL     1      42.918 -18.894   2.011  1.00  0.00     0.030 A 
BRANCH  22  27
HETATM   27  C   UNL     1      43.861 -17.379   5.354  1.00  0.00     0.254 C 
HETATM   28  N   UNL     1      42.728 -16.989   6.046  1.00  0.00    -0.352 N 
HETATM   29  H   UNL     1      41.826 -17.272   5.674  1.00  0.00     0.163 HD
HETATM   30  O   UNL     1      44.995 -16.973   5.572  1.00  0.00    -0.268 OA
BRANCH  28  31
HETATM   31  C   UNL     1      42.742 -16.059   7.129  1.00  0.00     0.084 A 
HETATM   32  C   UNL     1      43.464 -14.747   6.992  1.00  0.00     0.027 A 
HETATM   33  C   UNL     1      41.964 -14.775   7.019  1.00  0.00     0.027 A 
ENDBRANCH  28  31
ENDBRANCH  22  27
ENDBRANCH   2  21
TORSDOF 9
ENDMDL
MODEL 10
REMARK VINA RESULT:      -7.3      3.199      4.394
REMARK  9 active torsions:
REMARK  status: ('A' for Active; 'I' for Inactive)
REMARK    1  A    between atoms: S_2  and  C_3 
REMARK    2  A    between atoms: C_3  and  C_4 
REMARK    3  A    between atoms: C_5  and  C_6 
REMARK    4  A    between atoms: C_6  and  O_7 
REMARK    5  A    between atoms: O_7  and  C_8 
REMARK    6  A    between atoms: C_8  and  C_9 
REMARK       I    between atoms: C_9  and  N_10 
REMARK    7  A    between atoms: N_10  and  C_11 
REMARK    8  A    between atoms: C_12  and  C_13 
REMARK       I    between atoms: C_13  and  N_14 
REMARK    9  A    between atoms: N_14  and  C_15 
ROOT
HETATM    1  C   UNL     1      40.522 -13.278   4.662  1.00  0.00     0.246 C 
HETATM    2  N   UNL     1      40.254 -14.359   3.839  1.00  0.00    -0.324 N 
HETATM    3  O   UNL     1      41.578 -13.088   5.256  1.00  0.00    -0.271 OA
HETATM    4  H   UNL     1      39.275 -14.559   3.648  1.00  0.00     0.169 HD
ENDROOT
BRANCH   1   5
HETATM    5  C   UNL     1      39.326 -12.333   4.802  1.00  0.00     0.282 C 
BRANCH   5   6
HETATM    6  O   UNL     1      39.081 -12.028   6.176  1.00  0.00    -0.307 OA
BRANCH   6   7
HETATM    7  C   UNL     1      38.712 -10.728   6.391  1.00  0.00     0.318 C 
HETATM    8  O   UNL     1      37.836 -10.151   5.759  1.00  0.00    -0.257 OA
BRANCH   7   9
HETATM    9  C   UNL     1      39.449 -10.158   7.496  1.00  0.00     0.159 A 
HETATM   10  C   UNL     1      40.722  -9.596   7.534  1.00  0.00     0.004 A 
HETATM   11  C   UNL     1      40.932  -9.183   8.886  1.00  0.00     0.008 A 
HETATM   12  C   UNL     1      39.775  -9.517   9.575  1.00  0.00     0.087 A 
HETATM   13  C   UNL     1      41.978  -8.562   9.595  1.00  0.00     0.015 A 
HETATM   14  O   UNL     1      38.877 -10.101   8.739  1.00  0.00    -0.303 OA
HETATM   15  C   UNL     1      39.576  -9.276  10.933  1.00  0.00     0.038 A 
HETATM   16  C   UNL     1      40.625  -8.656  11.618  1.00  0.00     0.003 A 
HETATM   17  C   UNL     1      41.808  -8.304  10.963  1.00  0.00     0.001 A 
BRANCH  10  18
HETATM   18  C   UNL     1      41.663  -9.434   6.390  1.00  0.00     0.116 C 
BRANCH  18  19
HETATM   19  S   UNL     1      41.111  -8.097   5.289  1.00  0.00    -0.169 SA
HETATM   20  C   UNL     1      41.744  -6.696   6.242  1.00  0.00     0.090 C 
ENDBRANCH  18  19
ENDBRANCH  10  18
ENDBRANCH   7   9
ENDBRANCH   6   7
ENDBRANCH   5   6
ENDBRANCH   1   5
BRANCH   2  21
HETATM   21  C   UNL     1      41.201 -15.269   3.312  1.00  0.00     0.050 A 
HETATM   22  C   UNL     1      41.681 -15.102   1.997  1.00  0.00     0.058 A 
HETATM   23  C   UNL     1      42.722 -15.902   1.505  1.00  0.00     0.019 A 
HETATM   24  C   UNL     1      43.270 -16.898   2.309  1.00  0.00     0.001 A 
HETATM   25  C   UNL     1      42.777 -17.098   3.597  1.00  0.00     0.002 A 
HETATM   26  C   UNL     1      41.750 -16.290   4.096  1.00  0.00     0.030 A 
BRANCH  22  27
HETATM   27  C   UNL     1      41.055 -14.144   1.050  1.00  0.00     0.254 C 
HETATM   28  N   UNL     1      40.299 -14.742   0.057  1.00  0.00    -0.352 N 
HETATM   29  H   UNL     1      40.349 -15.752  -0.031  1.00  0.00     0.163 HD
HETATM   30  O   UNL     1      41.240 -12.941   1.168  1.00  0.00    -0.268 OA
BRANCH  28  31
HETATM   31  C   UNL     1      39.617 -14.014  -0.965  1.00  0.00     0.084 A 
HETATM   32  C   UNL     1      40.201 -13.920  -2.347  1.00  0.00     0.027 A 
HETATM   33  C   UNL     1      38.978 -14.755  -2.108  1.00  0.00     0.027 A 
ENDBRANCH  28  31
ENDBRANCH  22  27
ENDBRANCH   2  21
TORSDOF 9
ENDMDL
