MODEL 1
REMARK VINA RESULT:      -9.7      0.000      0.000
REMARK  6 active torsions:
REMARK  status: ('A' for Active; 'I' for Inactive)
REMARK    1  A    between atoms: C_7  and  C_8 
REMARK    2  A    between atoms: C_8  and  O_9 
REMARK    3  A    between atoms: O_9  and  C_10 
REMARK    4  A    between atoms: C_10  and  C_11 
REMARK       I    between atoms: C_11  and  N_12 
REMARK    5  A    between atoms: N_12  and  N_13 
REMARK    6  A    between atoms: C_17  and  C_18 
ROOT
HETATM    1  C   UNL     1      44.801 -11.553   6.656  1.00  0.00     0.261 C 
HETATM    2  N   UNL     1      43.825 -12.248   7.342  1.00  0.00    -0.255 N 
HETATM    3  O   UNL     1      44.845 -11.463   5.429  1.00  0.00    -0.269 OA
HETATM    4  H   UNL     1      43.996 -12.518   8.313  1.00  0.00     0.191 HD
ENDROOT
BRANCH   1   5
HETATM    5  C   UNL     1      45.815 -10.855   7.567  1.00  0.00     0.283 C 
BRANCH   5   6
HETATM    6  O   UNL     1      45.415 -10.730   8.933  1.00  0.00    -0.308 OA
BRANCH   6   7
HETATM    7  C   UNL     1      45.120  -9.473   9.343  1.00  0.00     0.293 C 
HETATM    8  O   UNL     1      45.475  -8.452   8.769  1.00  0.00    -0.259 OA
BRANCH   7   9
HETATM    9  C   UNL     1      44.293  -9.481  10.578  1.00  0.00     0.040 A 
HETATM   10  C   UNL     1      43.977 -10.721  11.146  1.00  0.00     0.020 A 
HETATM   11  C   UNL     1      43.204 -10.812  12.308  1.00  0.00     0.031 A 
HETATM   12  C   UNL     1      42.758  -9.616  12.880  1.00  0.00     0.043 A 
HETATM   13  C   UNL     1      43.044  -8.363  12.342  1.00  0.00    -0.001 A 
HETATM   14  N   UNL     1      42.002  -9.409  14.009  1.00  0.00    -0.359 N 
HETATM   15  C   UNL     1      42.424  -7.383  13.184  1.00  0.00    -0.027 A 
HETATM   16  C   UNL     1      43.828  -8.294  11.171  1.00  0.00     0.032 A 
HETATM   17  C   UNL     1      42.458  -5.906  13.004  1.00  0.00     0.051 C 
HETATM   18  C   UNL     1      41.798  -8.068  14.214  1.00  0.00     0.012 A 
HETATM   19  C   UNL     1      41.022  -7.568  15.378  1.00  0.00     0.068 C 
HETATM   20  H   UNL     1      41.656 -10.148  14.606  1.00  0.00     0.166 HD
ENDBRANCH   7   9
ENDBRANCH   6   7
ENDBRANCH   5   6
ENDBRANCH   1   5
BRANCH   2  21
HETATM   21  N   UNL     1      42.993 -13.075   6.614  1.00  0.00    -0.167 N 
HETATM   22  C   UNL     1      41.857 -12.650   5.981  1.00  0.00     0.345 A 
HETATM   23  O   UNL     1      41.421 -11.513   5.895  1.00  0.00    -0.245 OA
HETATM   24  N   UNL     1      41.277 -13.749   5.380  1.00  0.00    -0.319 N 
HETATM   25  C   UNL     1      42.113 -14.938   5.475  1.00  0.00     0.141 A 
HETATM   26  H   UNL     1      40.496 -13.631   4.749  1.00  0.00     0.166 HD
HETATM   27  C   UNL     1      41.393 -16.055   6.236  1.00  0.00     0.055 C 
HETATM   28  C   UNL     1      43.252 -14.402   6.381  1.00  0.00     0.279 A 
HETATM   29  O   UNL     1      44.217 -15.044   6.782  1.00  0.00    -0.268 OA
BRANCH  25  30
HETATM   30  C   UNL     1      42.546 -15.359   4.071  1.00  0.00    -0.021 A 
HETATM   31  C   UNL     1      42.982 -14.439   3.102  1.00  0.00     0.010 A 
HETATM   32  C   UNL     1      43.341 -14.860   1.817  1.00  0.00     0.001 A 
HETATM   33  C   UNL     1      43.269 -16.208   1.474  1.00  0.00     0.000 A 
HETATM   34  C   UNL     1      42.839 -17.136   2.415  1.00  0.00     0.001 A 
HETATM   35  C   UNL     1      42.479 -16.718   3.698  1.00  0.00     0.010 A 
ENDBRANCH  25  30
ENDBRANCH   2  21
TORSDOF 6
ENDMDL
MODEL 2
REMARK VINA RESULT:      -9.4      1.140      1.909
REMARK  6 active torsions:
REMARK  status: ('A' for Active; 'I' for Inactive)
REMARK    1  A    between atoms: C_7  and  C_8 
REMARK    2  A    between atoms: C_8  and  O_9 
REMARK    3  A    between atoms: O_9  and  C_10 
REMARK    4  A    between atoms: C_10  and  C_11 
REMARK       I    between atoms: C_11  and  N_12 
REMARK    5  A    between atoms: N_12  and  N_13 
REMARK    6  A    between atoms: C_17  and  C_18 
ROOT
HETATM    1  C   UNL     1      44.585 -11.644   6.692  1.00  0.00     0.261 C 
HETATM    2  N   UNL     1      43.563 -12.306   7.342  1.00  0.00    -0.255 N 
HETATM    3  O   UNL     1      44.695 -11.588   5.468  1.00  0.00    -0.269 OA
HETATM    4  H   UNL     1      43.678 -12.552   8.328  1.00  0.00     0.191 HD
ENDROOT
BRANCH   1   5
HETATM    5  C   UNL     1      45.559 -10.935   7.637  1.00  0.00     0.283 C 
BRANCH   5   6
HETATM    6  O   UNL     1      45.023  -9.798   8.316  1.00  0.00    -0.308 OA
BRANCH   6   7
HETATM    7  C   UNL     1      44.904  -9.922   9.660  1.00  0.00     0.293 C 
HETATM    8  O   UNL     1      45.424 -10.806  10.327  1.00  0.00    -0.259 OA
BRANCH   7   9
HETATM    9  C   UNL     1      44.067  -8.837  10.237  1.00  0.00     0.040 A 
HETATM   10  C   UNL     1      43.780  -7.732   9.427  1.00  0.00     0.020 A 
HETATM   11  C   UNL     1      43.000  -6.671   9.897  1.00  0.00     0.031 A 
HETATM   12  C   UNL     1      42.518  -6.756  11.207  1.00  0.00     0.043 A 
HETATM   13  C   UNL     1      42.786  -7.835  12.048  1.00  0.00    -0.001 A 
HETATM   14  N   UNL     1      41.732  -5.878  11.916  1.00  0.00    -0.359 N 
HETATM   15  C   UNL     1      42.141  -7.575  13.300  1.00  0.00    -0.027 A 
HETATM   16  C   UNL     1      43.574  -8.896  11.552  1.00  0.00     0.032 A 
HETATM   17  C   UNL     1      42.150  -8.450  14.504  1.00  0.00     0.051 C 
HETATM   18  C   UNL     1      41.487  -6.359  13.177  1.00  0.00     0.012 A 
HETATM   19  C   UNL     1      40.647  -5.608  14.146  1.00  0.00     0.068 C 
HETATM   20  H   UNL     1      41.380  -5.005  11.547  1.00  0.00     0.166 HD
ENDBRANCH   7   9
ENDBRANCH   6   7
ENDBRANCH   5   6
ENDBRANCH   1   5
BRANCH   2  21
HETATM   21  N   UNL     1      42.758 -13.141   6.593  1.00  0.00    -0.167 N 
HETATM   22  C   UNL     1      41.627 -12.731   5.943  1.00  0.00     0.345 A 
HETATM   23  O   UNL     1      41.173 -11.601   5.859  1.00  0.00    -0.245 OA
HETATM   24  N   UNL     1      41.077 -13.834   5.323  1.00  0.00    -0.319 N 
HETATM   25  C   UNL     1      41.931 -15.009   5.423  1.00  0.00     0.141 A 
HETATM   26  H   UNL     1      40.305 -13.724   4.679  1.00  0.00     0.166 HD
HETATM   27  C   UNL     1      41.217 -16.145   6.162  1.00  0.00     0.055 C 
HETATM   28  C   UNL     1      43.045 -14.461   6.354  1.00  0.00     0.279 A 
HETATM   29  O   UNL     1      44.013 -15.090   6.767  1.00  0.00    -0.268 OA
BRANCH  25  30
HETATM   30  C   UNL     1      42.396 -15.412   4.024  1.00  0.00    -0.021 A 
HETATM   31  C   UNL     1      42.464 -16.751   3.602  1.00  0.00     0.010 A 
HETATM   32  C   UNL     1      42.925 -17.081   2.323  1.00  0.00     0.001 A 
HETATM   33  C   UNL     1      43.328 -16.082   1.442  1.00  0.00     0.000 A 
HETATM   34  C   UNL     1      43.272 -14.750   1.838  1.00  0.00     0.001 A 
HETATM   35  C   UNL     1      42.814 -14.418   3.114  1.00  0.00     0.010 A 
ENDBRANCH  25  30
ENDBRANCH   2  21
TORSDOF 6
ENDMDL
MODEL 3
REMARK VINA RESULT:      -9.3      7.481     11.271
REMARK  6 active torsions:
REMARK  status: ('A' for Active; 'I' for Inactive)
REMARK    1  A    between atoms: C_7  and  C_8 
REMARK    2  A    between atoms: C_8  and  O_9 
REMARK    3  A    between atoms: O_9  and  C_10 
REMARK    4  A    between atoms: C_10  and  C_11 
REMARK       I    between atoms: C_11  and  N_12 
REMARK    5  A    between atoms: N_12  and  N_13 
REMARK    6  A    between atoms: C_17  and  C_18 
ROOT
HETATM    1  C   UNL     1      40.214 -13.516  -0.100  1.00  0.00     0.261 C 
HETATM    2  N   UNL     1      38.918 -13.631  -0.560  1.00  0.00    -0.255 N 
HETATM    3  O   UNL     1      40.917 -12.520  -0.272  1.00  0.00    -0.269 OA
HETATM    4  H   UNL     1      38.496 -14.559  -0.633  1.00  0.00     0.191 HD
ENDROOT
BRANCH   1   5
HETATM    5  C   UNL     1      40.695 -14.732   0.695  1.00  0.00     0.283 C 
BRANCH   5   6
HETATM    6  O   UNL     1      41.123 -14.453   2.030  1.00  0.00    -0.308 OA
BRANCH   6   7
HETATM    7  C   UNL     1      42.462 -14.490   2.234  1.00  0.00     0.293 C 
HETATM    8  O   UNL     1      43.263 -13.703   1.748  1.00  0.00    -0.259 OA
BRANCH   7   9
HETATM    9  C   UNL     1      42.845 -15.604   3.141  1.00  0.00     0.040 A 
HETATM   10  C   UNL     1      42.954 -15.326   4.509  1.00  0.00     0.020 A 
HETATM   11  C   UNL     1      43.309 -16.320   5.426  1.00  0.00     0.031 A 
HETATM   12  C   UNL     1      43.551 -17.603   4.924  1.00  0.00     0.043 A 
HETATM   13  C   UNL     1      43.459 -17.919   3.570  1.00  0.00    -0.001 A 
HETATM   14  N   UNL     1      43.902 -18.756   5.586  1.00  0.00    -0.359 N 
HETATM   15  C   UNL     1      43.778 -19.310   3.431  1.00  0.00    -0.027 A 
HETATM   16  C   UNL     1      43.098 -16.901   2.663  1.00  0.00     0.032 A 
HETATM   17  C   UNL     1      43.810 -20.093   2.166  1.00  0.00     0.051 C 
HETATM   18  C   UNL     1      44.035 -19.798   4.704  1.00  0.00     0.012 A 
HETATM   19  C   UNL     1      44.393 -21.164   5.162  1.00  0.00     0.068 C 
HETATM   20  H   UNL     1      44.033 -18.820   6.586  1.00  0.00     0.166 HD
ENDBRANCH   7   9
ENDBRANCH   6   7
ENDBRANCH   5   6
ENDBRANCH   1   5
BRANCH   2  21
HETATM   21  N   UNL     1      38.467 -12.682  -1.457  1.00  0.00    -0.167 N 
HETATM   22  C   UNL     1      38.680 -12.743  -2.806  1.00  0.00     0.345 A 
HETATM   23  O   UNL     1      39.226 -13.629  -3.444  1.00  0.00    -0.245 OA
HETATM   24  N   UNL     1      38.110 -11.621  -3.372  1.00  0.00    -0.319 N 
HETATM   25  C   UNL     1      37.353 -10.838  -2.405  1.00  0.00     0.141 A 
HETATM   26  H   UNL     1      38.040 -11.537  -4.377  1.00  0.00     0.166 HD
HETATM   27  C   UNL     1      37.926  -9.424  -2.277  1.00  0.00     0.055 C 
HETATM   28  C   UNL     1      37.691 -11.608  -1.102  1.00  0.00     0.279 A 
HETATM   29  O   UNL     1      37.303 -11.322   0.026  1.00  0.00    -0.268 OA
BRANCH  25  30
HETATM   30  C   UNL     1      35.876 -10.846  -2.799  1.00  0.00    -0.021 A 
HETATM   31  C   UNL     1      34.958  -9.894  -2.324  1.00  0.00     0.010 A 
HETATM   32  C   UNL     1      33.607  -9.952  -2.683  1.00  0.00     0.001 A 
HETATM   33  C   UNL     1      33.147 -10.965  -3.520  1.00  0.00     0.000 A 
HETATM   34  C   UNL     1      34.035 -11.920  -4.000  1.00  0.00     0.001 A 
HETATM   35  C   UNL     1      35.384 -11.864  -3.643  1.00  0.00     0.010 A 
ENDBRANCH  25  30
ENDBRANCH   2  21
TORSDOF 6
ENDMDL
MODEL 4
REMARK VINA RESULT:      -9.3      1.434      1.964
REMARK  6 active torsions:
REMARK  status: ('A' for Active; 'I' for Inactive)
REMARK    1  A    between atoms: C_7  and  C_8 
REMARK    2  A    between atoms: C_8  and  O_9 
REMARK    3  A    between atoms: O_9  and  C_10 
REMARK    4  A    between atoms: C_10  and  C_11 
REMARK       I    between atoms: C_11  and  N_12 
REMARK    5  A    between atoms: N_12  and  N_13 
REMARK    6  A    between atoms: C_17  and  C_18 
ROOT
HETATM    1  C   UNL     1      43.716 -11.958   6.724  1.00  0.00     0.261 C 
HETATM    2  N   UNL     1      42.786 -11.692   5.739  1.00  0.00    -0.255 N 
HETATM    3  O   UNL     1      44.555 -12.856   6.650  1.00  0.00    -0.269 OA
HETATM    4  H   UNL     1      41.960 -11.137   5.972  1.00  0.00     0.191 HD
ENDROOT
BRANCH   1   5
HETATM    5  C   UNL     1      43.645 -10.997   7.914  1.00  0.00     0.283 C 
BRANCH   5   6
HETATM    6  O   UNL     1      44.733 -11.094   8.835  1.00  0.00    -0.308 OA
BRANCH   6   7
HETATM    7  C   UNL     1      45.051  -9.948   9.486  1.00  0.00     0.293 C 
HETATM    8  O   UNL     1      45.923  -9.166   9.133  1.00  0.00    -0.259 OA
BRANCH   7   9
HETATM    9  C   UNL     1      44.196  -9.746  10.684  1.00  0.00     0.040 A 
HETATM   10  C   UNL     1      43.878 -10.868  11.458  1.00  0.00     0.020 A 
HETATM   11  C   UNL     1      43.079 -10.759  12.601  1.00  0.00     0.031 A 
HETATM   12  C   UNL     1      42.609  -9.486  12.940  1.00  0.00     0.043 A 
HETATM   13  C   UNL     1      42.897  -8.345  12.193  1.00  0.00    -0.001 A 
HETATM   14  N   UNL     1      41.825  -9.089  13.998  1.00  0.00    -0.359 N 
HETATM   15  C   UNL     1      42.249  -7.238  12.832  1.00  0.00    -0.027 A 
HETATM   16  C   UNL     1      43.707  -8.478  11.045  1.00  0.00     0.032 A 
HETATM   17  C   UNL     1      42.274  -5.817  12.390  1.00  0.00     0.051 C 
HETATM   18  C   UNL     1      41.605  -7.736  13.954  1.00  0.00     0.012 A 
HETATM   19  C   UNL     1      40.798  -7.045  14.993  1.00  0.00     0.068 C 
HETATM   20  H   UNL     1      41.473  -9.713  14.710  1.00  0.00     0.166 HD
ENDBRANCH   7   9
ENDBRANCH   6   7
ENDBRANCH   5   6
ENDBRANCH   1   5
BRANCH   2  21
HETATM   21  N   UNL     1      42.635 -12.621   4.729  1.00  0.00    -0.167 N 
HETATM   22  C   UNL     1      43.286 -12.557   3.528  1.00  0.00     0.345 A 
HETATM   23  O   UNL     1      44.122 -11.745   3.165  1.00  0.00    -0.245 OA
HETATM   24  N   UNL     1      42.872 -13.633   2.769  1.00  0.00    -0.319 N 
HETATM   25  C   UNL     1      42.026 -14.548   3.522  1.00  0.00     0.141 A 
HETATM   26  H   UNL     1      43.332 -13.846   1.895  1.00  0.00     0.166 HD
HETATM   27  C   UNL     1      40.641 -14.667   2.880  1.00  0.00     0.055 C 
HETATM   28  C   UNL     1      41.871 -13.754   4.846  1.00  0.00     0.279 A 
HETATM   29  O   UNL     1      41.212 -14.099   5.821  1.00  0.00    -0.268 OA
BRANCH  25  30
HETATM   30  C   UNL     1      42.736 -15.895   3.654  1.00  0.00    -0.021 A 
HETATM   31  C   UNL     1      43.486 -16.250   4.789  1.00  0.00     0.010 A 
HETATM   32  C   UNL     1      44.148 -17.480   4.861  1.00  0.00     0.001 A 
HETATM   33  C   UNL     1      44.076 -18.379   3.799  1.00  0.00     0.000 A 
HETATM   34  C   UNL     1      43.343 -18.049   2.665  1.00  0.00     0.001 A 
HETATM   35  C   UNL     1      42.682 -16.821   2.592  1.00  0.00     0.010 A 
ENDBRANCH  25  30
ENDBRANCH   2  21
TORSDOF 6
ENDMDL
MODEL 5
REMARK VINA RESULT:      -9.2      2.420      9.940
REMARK  6 active torsions:
REMARK  status: ('A' for Active; 'I' for Inactive)
REMARK    1  A    between atoms: C_7  and  C_8 
REMARK    2  A    between atoms: C_8  and  O_9 
REMARK    3  A    between atoms: O_9  and  C_10 
REMARK    4  A    between atoms: C_10  and  C_11 
REMARK       I    between atoms: C_11  and  N_12 
REMARK    5  A    between atoms: N_12  and  N_13 
REMARK    6  A    between atoms: C_17  and  C_18 
ROOT
HETATM    1  C   UNL     1      43.220 -11.801   5.399  1.00  0.00     0.261 C 
HETATM    2  N   UNL     1      42.615 -11.707   6.636  1.00  0.00    -0.255 N 
HETATM    3  O   UNL     1      44.122 -11.056   5.019  1.00  0.00    -0.269 OA
HETATM    4  H   UNL     1      41.708 -12.155   6.782  1.00  0.00     0.191 HD
ENDROOT
BRANCH   1   5
HETATM    5  C   UNL     1      42.697 -12.959   4.545  1.00  0.00     0.283 C 
BRANCH   5   6
HETATM    6  O   UNL     1      43.396 -13.169   3.317  1.00  0.00    -0.308 OA
BRANCH   6   7
HETATM    7  C   UNL     1      42.770 -13.965   2.417  1.00  0.00     0.293 C 
HETATM    8  O   UNL     1      42.056 -13.561   1.508  1.00  0.00    -0.259 OA
BRANCH   7   9
HETATM    9  C   UNL     1      43.066 -15.401   2.658  1.00  0.00     0.040 A 
HETATM   10  C   UNL     1      43.226 -16.232   1.543  1.00  0.00     0.020 A 
HETATM   11  C   UNL     1      43.507 -17.594   1.686  1.00  0.00     0.031 A 
HETATM   12  C   UNL     1      43.623 -18.095   2.987  1.00  0.00     0.043 A 
HETATM   13  C   UNL     1      43.465 -17.303   4.124  1.00  0.00    -0.001 A 
HETATM   14  N   UNL     1      43.898 -19.371   3.420  1.00  0.00    -0.359 N 
HETATM   15  C   UNL     1      43.645 -18.149   5.266  1.00  0.00    -0.027 A 
HETATM   16  C   UNL     1      43.183 -15.930   3.955  1.00  0.00     0.032 A 
HETATM   17  C   UNL     1      43.568 -17.743   6.695  1.00  0.00     0.051 C 
HETATM   18  C   UNL     1      43.925 -19.421   4.790  1.00  0.00     0.012 A 
HETATM   19  C   UNL     1      44.217 -20.684   5.516  1.00  0.00     0.068 C 
HETATM   20  H   UNL     1      44.067 -20.155   2.805  1.00  0.00     0.166 HD
ENDBRANCH   7   9
ENDBRANCH   6   7
ENDBRANCH   5   6
ENDBRANCH   1   5
BRANCH   2  21
HETATM   21  N   UNL     1      42.869 -10.579   7.392  1.00  0.00    -0.167 N 
HETATM   22  C   UNL     1      42.101  -9.448   7.359  1.00  0.00     0.345 A 
HETATM   23  O   UNL     1      41.070  -9.254   6.736  1.00  0.00    -0.245 OA
HETATM   24  N   UNL     1      42.669  -8.531   8.221  1.00  0.00    -0.319 N 
HETATM   25  C   UNL     1      43.773  -9.097   8.983  1.00  0.00     0.141 A 
HETATM   26  H   UNL     1      42.182  -7.674   8.444  1.00  0.00     0.166 HD
HETATM   27  C   UNL     1      45.076  -8.343   8.701  1.00  0.00     0.055 C 
HETATM   28  C   UNL     1      43.878 -10.495   8.317  1.00  0.00     0.279 A 
HETATM   29  O   UNL     1      44.695 -11.367   8.596  1.00  0.00    -0.268 OA
BRANCH  25  30
HETATM   30  C   UNL     1      43.404  -9.112  10.465  1.00  0.00    -0.021 A 
HETATM   31  C   UNL     1      43.104 -10.296  11.162  1.00  0.00     0.010 A 
HETATM   32  C   UNL     1      42.741 -10.266  12.512  1.00  0.00     0.001 A 
HETATM   33  C   UNL     1      42.668  -9.054  13.193  1.00  0.00     0.000 A 
HETATM   34  C   UNL     1      42.958  -7.870  12.525  1.00  0.00     0.001 A 
HETATM   35  C   UNL     1      43.320  -7.897  11.177  1.00  0.00     0.010 A 
ENDBRANCH  25  30
ENDBRANCH   2  21
TORSDOF 6
ENDMDL
MODEL 6
REMARK VINA RESULT:      -9.2      2.649      9.895
REMARK  6 active torsions:
REMARK  status: ('A' for Active; 'I' for Inactive)
REMARK    1  A    between atoms: C_7  and  C_8 
REMARK    2  A    between atoms: C_8  and  O_9 
REMARK    3  A    between atoms: O_9  and  C_10 
REMARK    4  A    between atoms: C_10  and  C_11 
REMARK       I    between atoms: C_11  and  N_12 
REMARK    5  A    between atoms: N_12  and  N_13 
REMARK    6  A    between atoms: C_17  and  C_18 
ROOT
HETATM    1  C   UNL     1      43.136 -11.529   4.541  1.00  0.00     0.261 C 
HETATM    2  N   UNL     1      42.346 -11.372   5.662  1.00  0.00    -0.255 N 
HETATM    3  O   UNL     1      44.272 -11.068   4.433  1.00  0.00    -0.269 OA
HETATM    4  H   UNL     1      41.339 -11.528   5.586  1.00  0.00     0.191 HD
ENDROOT
BRANCH   1   5
HETATM    5  C   UNL     1      42.487 -12.377   3.444  1.00  0.00     0.283 C 
BRANCH   5   6
HETATM    6  O   UNL     1      43.379 -13.245   2.742  1.00  0.00    -0.308 OA
BRANCH   6   7
HETATM    7  C   UNL     1      42.823 -14.379   2.249  1.00  0.00     0.293 C 
HETATM    8  O   UNL     1      42.168 -14.442   1.218  1.00  0.00    -0.259 OA
BRANCH   7   9
HETATM    9  C   UNL     1      43.120 -15.552   3.112  1.00  0.00     0.040 A 
HETATM   10  C   UNL     1      43.305 -15.328   4.481  1.00  0.00     0.020 A 
HETATM   11  C   UNL     1      43.586 -16.380   5.359  1.00  0.00     0.031 A 
HETATM   12  C   UNL     1      43.677 -17.665   4.815  1.00  0.00     0.043 A 
HETATM   13  C   UNL     1      43.506 -17.930   3.457  1.00  0.00    -0.001 A 
HETATM   14  N   UNL     1      43.929 -18.867   5.433  1.00  0.00    -0.359 N 
HETATM   15  C   UNL     1      43.674 -19.341   3.271  1.00  0.00    -0.027 A 
HETATM   16  C   UNL     1      43.221 -16.854   2.591  1.00  0.00     0.032 A 
HETATM   17  C   UNL     1      43.582 -20.086   1.986  1.00  0.00     0.051 C 
HETATM   18  C   UNL     1      43.923 -19.890   4.520  1.00  0.00     0.012 A 
HETATM   19  C   UNL     1      44.154 -21.300   4.929  1.00  0.00     0.068 C 
HETATM   20  H   UNL     1      44.087 -18.974   6.426  1.00  0.00     0.166 HD
ENDBRANCH   7   9
ENDBRANCH   6   7
ENDBRANCH   5   6
ENDBRANCH   1   5
BRANCH   2  21
HETATM   21  N   UNL     1      42.755 -10.460   6.614  1.00  0.00    -0.167 N 
HETATM   22  C   UNL     1      42.335  -9.159   6.656  1.00  0.00     0.345 A 
HETATM   23  O   UNL     1      41.520  -8.606   5.936  1.00  0.00    -0.245 OA
HETATM   24  N   UNL     1      42.966  -8.549   7.722  1.00  0.00    -0.319 N 
HETATM   25  C   UNL     1      43.728  -9.493   8.528  1.00  0.00     0.141 A 
HETATM   26  H   UNL     1      42.694  -7.619   8.010  1.00  0.00     0.166 HD
HETATM   27  C   UNL     1      45.213  -9.120   8.551  1.00  0.00     0.055 C 
HETATM   28  C   UNL     1      43.572 -10.776   7.670  1.00  0.00     0.279 A 
HETATM   29  O   UNL     1      44.063 -11.873   7.917  1.00  0.00    -0.268 OA
BRANCH  25  30
HETATM   30  C   UNL     1      43.114  -9.569   9.925  1.00  0.00    -0.021 A 
HETATM   31  C   UNL     1      43.868  -9.873  11.072  1.00  0.00     0.010 A 
HETATM   32  C   UNL     1      43.265  -9.964  12.330  1.00  0.00     0.001 A 
HETATM   33  C   UNL     1      41.895  -9.755  12.468  1.00  0.00     0.000 A 
HETATM   34  C   UNL     1      41.127  -9.456  11.349  1.00  0.00     0.001 A 
HETATM   35  C   UNL     1      41.728  -9.366  10.091  1.00  0.00     0.010 A 
ENDBRANCH  25  30
ENDBRANCH   2  21
TORSDOF 6
ENDMDL
MODEL 7
REMARK VINA RESULT:      -9.1      3.269      5.097
REMARK  6 active torsions:
REMARK  status: ('A' for Active; 'I' for Inactive)
REMARK    1  A    between atoms: C_7  and  C_8 
REMARK    2  A    between atoms: C_8  and  O_9 
REMARK    3  A    between atoms: O_9  and  C_10 
REMARK    4  A    between atoms: C_10  and  C_11 
REMARK       I    between atoms: C_11  and  N_12 
REMARK    5  A    between atoms: N_12  and  N_13 
REMARK    6  A    between atoms: C_17  and  C_18 
ROOT
HETATM    1  C   UNL     1      40.304 -13.756   4.024  1.00  0.00     0.261 C 
HETATM    2  N   UNL     1      40.912 -13.815   5.262  1.00  0.00    -0.255 N 
HETATM    3  O   UNL     1      40.208 -14.716   3.261  1.00  0.00    -0.269 OA
HETATM    4  H   UNL     1      41.205 -12.947   5.715  1.00  0.00     0.191 HD
ENDROOT
BRANCH   1   5
HETATM    5  C   UNL     1      39.710 -12.383   3.696  1.00  0.00     0.283 C 
BRANCH   5   6
HETATM    6  O   UNL     1      40.667 -11.359   3.421  1.00  0.00    -0.308 OA
BRANCH   6   7
HETATM    7  C   UNL     1      40.698 -10.335   4.308  1.00  0.00     0.293 C 
HETATM    8  O   UNL     1      39.886  -9.420   4.344  1.00  0.00    -0.259 OA
BRANCH   7   9
HETATM    9  C   UNL     1      41.841 -10.463   5.250  1.00  0.00     0.040 A 
HETATM   10  C   UNL     1      43.006 -11.083   4.786  1.00  0.00     0.020 A 
HETATM   11  C   UNL     1      44.123 -11.241   5.611  1.00  0.00     0.031 A 
HETATM   12  C   UNL     1      44.032 -10.756   6.920  1.00  0.00     0.043 A 
HETATM   13  C   UNL     1      42.888 -10.138   7.423  1.00  0.00    -0.001 A 
HETATM   14  N   UNL     1      44.963 -10.766   7.931  1.00  0.00    -0.359 N 
HETATM   15  C   UNL     1      43.157  -9.781   8.785  1.00  0.00    -0.027 A 
HETATM   16  C   UNL     1      41.773  -9.988   6.571  1.00  0.00     0.032 A 
HETATM   17  C   UNL     1      42.226  -9.100   9.726  1.00  0.00     0.051 C 
HETATM   18  C   UNL     1      44.457 -10.175   9.060  1.00  0.00     0.012 A 
HETATM   19  C   UNL     1      45.267 -10.042  10.298  1.00  0.00     0.068 C 
HETATM   20  H   UNL     1      45.894 -11.150   7.842  1.00  0.00     0.166 HD
ENDBRANCH   7   9
ENDBRANCH   6   7
ENDBRANCH   5   6
ENDBRANCH   1   5
BRANCH   2  21
HETATM   21  N   UNL     1      41.653 -14.941   5.561  1.00  0.00    -0.167 N 
HETATM   22  C   UNL     1      41.212 -15.955   6.365  1.00  0.00     0.345 A 
HETATM   23  O   UNL     1      40.118 -16.078   6.893  1.00  0.00    -0.245 OA
HETATM   24  N   UNL     1      42.222 -16.891   6.452  1.00  0.00    -0.319 N 
HETATM   25  C   UNL     1      43.336 -16.588   5.564  1.00  0.00     0.141 A 
HETATM   26  H   UNL     1      42.052 -17.784   6.894  1.00  0.00     0.166 HD
HETATM   27  C   UNL     1      44.630 -16.386   6.358  1.00  0.00     0.055 C 
HETATM   28  C   UNL     1      42.888 -15.205   5.024  1.00  0.00     0.279 A 
HETATM   29  O   UNL     1      43.513 -14.501   4.237  1.00  0.00    -0.268 OA
BRANCH  25  30
HETATM   30  C   UNL     1      43.451 -17.689   4.511  1.00  0.00    -0.021 A 
HETATM   31  C   UNL     1      42.983 -17.533   3.195  1.00  0.00     0.010 A 
HETATM   32  C   UNL     1      43.078 -18.575   2.266  1.00  0.00     0.001 A 
HETATM   33  C   UNL     1      43.642 -19.794   2.635  1.00  0.00     0.000 A 
HETATM   34  C   UNL     1      44.110 -19.973   3.931  1.00  0.00     0.001 A 
HETATM   35  C   UNL     1      44.015 -18.934   4.860  1.00  0.00     0.010 A 
ENDBRANCH  25  30
ENDBRANCH   2  21
TORSDOF 6
ENDMDL
MODEL 8
REMARK VINA RESULT:      -9.0      2.241      9.599
REMARK  6 active torsions:
REMARK  status: ('A' for Active; 'I' for Inactive)
REMARK    1  A    between atoms: C_7  and  C_8 
REMARK    2  A    between atoms: C_8  and  O_9 
REMARK    3  A    between atoms: O_9  and  C_10 
REMARK    4  A    between atoms: C_10  and  C_11 
REMARK       I    between atoms: C_11  and  N_12 
REMARK    5  A    between atoms: N_12  and  N_13 
REMARK    6  A    between atoms: C_17  and  C_18 
ROOT
HETATM    1  C   UNL     1      41.108 -10.179   6.716  1.00  0.00     0.261 C 
HETATM    2  N   UNL     1      42.446  -9.881   6.556  1.00  0.00    -0.255 N 
HETATM    3  O   UNL     1      40.438  -9.824   7.685  1.00  0.00    -0.269 OA
HETATM    4  H   UNL     1      43.002 -10.427   5.894  1.00  0.00     0.191 HD
ENDROOT
BRANCH   1   5
HETATM    5  C   UNL     1      40.508 -10.963   5.546  1.00  0.00     0.283 C 
BRANCH   5   6
HETATM    6  O   UNL     1      41.107 -12.236   5.299  1.00  0.00    -0.308 OA
BRANCH   6   7
HETATM    7  C   UNL     1      40.539 -13.284   5.943  1.00  0.00     0.293 C 
HETATM    8  O   UNL     1      39.513 -13.221   6.606  1.00  0.00    -0.259 OA
BRANCH   7   9
HETATM    9  C   UNL     1      41.311 -14.537   5.734  1.00  0.00     0.040 A 
HETATM   10  C   UNL     1      41.582 -15.333   6.853  1.00  0.00     0.020 A 
HETATM   11  C   UNL     1      42.302 -16.526   6.738  1.00  0.00     0.031 A 
HETATM   12  C   UNL     1      42.741 -16.894   5.462  1.00  0.00     0.043 A 
HETATM   13  C   UNL     1      42.497 -16.127   4.324  1.00  0.00    -0.001 A 
HETATM   14  N   UNL     1      43.450 -18.001   5.059  1.00  0.00    -0.359 N 
HETATM   15  C   UNL     1      43.095 -16.806   3.212  1.00  0.00    -0.027 A 
HETATM   16  C   UNL     1      41.767 -14.927   4.463  1.00  0.00     0.032 A 
HETATM   17  C   UNL     1      43.092 -16.362   1.792  1.00  0.00     0.051 C 
HETATM   18  C   UNL     1      43.665 -17.970   3.705  1.00  0.00     0.012 A 
HETATM   19  C   UNL     1      44.396 -19.060   3.009  1.00  0.00     0.068 C 
HETATM   20  H   UNL     1      43.757 -18.737   5.681  1.00  0.00     0.166 HD
ENDBRANCH   7   9
ENDBRANCH   6   7
ENDBRANCH   5   6
ENDBRANCH   1   5
BRANCH   2  21
HETATM   21  N   UNL     1      43.124  -9.362   7.642  1.00  0.00    -0.167 N 
HETATM   22  C   UNL     1      43.204  -8.026   7.925  1.00  0.00     0.345 A 
HETATM   23  O   UNL     1      42.672  -7.098   7.338  1.00  0.00    -0.245 OA
HETATM   24  N   UNL     1      43.974  -7.885   9.061  1.00  0.00    -0.319 N 
HETATM   25  C   UNL     1      44.310  -9.167   9.666  1.00  0.00     0.141 A 
HETATM   26  H   UNL     1      44.049  -6.985   9.516  1.00  0.00     0.166 HD
HETATM   27  C   UNL     1      45.827  -9.370   9.709  1.00  0.00     0.055 C 
HETATM   28  C   UNL     1      43.730 -10.133   8.601  1.00  0.00     0.279 A 
HETATM   29  O   UNL     1      43.780 -11.358   8.635  1.00  0.00    -0.268 OA
BRANCH  25  30
HETATM   30  C   UNL     1      43.660  -9.257  11.045  1.00  0.00    -0.021 A 
HETATM   31  C   UNL     1      43.308 -10.480  11.641  1.00  0.00     0.010 A 
HETATM   32  C   UNL     1      42.686 -10.521  12.893  1.00  0.00     0.001 A 
HETATM   33  C   UNL     1      42.401  -9.340  13.574  1.00  0.00     0.000 A 
HETATM   34  C   UNL     1      42.738  -8.118  13.005  1.00  0.00     0.001 A 
HETATM   35  C   UNL     1      43.358  -8.075  11.754  1.00  0.00     0.010 A 
ENDBRANCH  25  30
ENDBRANCH   2  21
TORSDOF 6
ENDMDL
MODEL 9
REMARK VINA RESULT:      -9.0      6.340      9.782
REMARK  6 active torsions:
REMARK  status: ('A' for Active; 'I' for Inactive)
REMARK    1  A    between atoms: C_7  and  C_8 
REMARK    2  A    between atoms: C_8  and  O_9 
REMARK    3  A    between atoms: O_9  and  C_10 
REMARK    4  A    between atoms: C_10  and  C_11 
REMARK       I    between atoms: C_11  and  N_12 
REMARK    5  A    between atoms: N_12  and  N_13 
REMARK    6  A    between atoms: C_17  and  C_18 
ROOT
HETATM    1  C   UNL     1      40.958 -11.166   3.940  1.00  0.00     0.261 C 
HETATM    2  N   UNL     1      41.628 -12.171   3.272  1.00  0.00    -0.255 N 
HETATM    3  O   UNL     1      40.257 -11.353   4.935  1.00  0.00    -0.269 OA
HETATM    4  H   UNL     1      41.952 -12.003   2.317  1.00  0.00     0.191 HD
ENDROOT
BRANCH   1   5
HETATM    5  C   UNL     1      41.201  -9.771   3.358  1.00  0.00     0.283 C 
BRANCH   5   6
HETATM    6  O   UNL     1      40.094  -9.210   2.650  1.00  0.00    -0.308 OA
BRANCH   6   7
HETATM    7  C   UNL     1      40.258  -9.089   1.310  1.00  0.00     0.293 C 
HETATM    8  O   UNL     1      40.918  -8.215   0.765  1.00  0.00    -0.259 OA
BRANCH   7   9
HETATM    9  C   UNL     1      39.544 -10.165   0.573  1.00  0.00     0.040 A 
HETATM   10  C   UNL     1      38.240 -10.479   0.975  1.00  0.00     0.020 A 
HETATM   11  C   UNL     1      37.503 -11.478   0.331  1.00  0.00     0.031 A 
HETATM   12  C   UNL     1      38.119 -12.152  -0.729  1.00  0.00     0.043 A 
HETATM   13  C   UNL     1      39.417 -11.874  -1.155  1.00  0.00    -0.001 A 
HETATM   14  N   UNL     1      37.635 -13.156  -1.534  1.00  0.00    -0.359 N 
HETATM   15  C   UNL     1      39.708 -12.756  -2.246  1.00  0.00    -0.027 A 
HETATM   16  C   UNL     1      40.141 -10.860  -0.492  1.00  0.00     0.032 A 
HETATM   17  C   UNL     1      40.977 -12.824  -3.020  1.00  0.00     0.051 C 
HETATM   18  C   UNL     1      38.576 -13.527  -2.460  1.00  0.00     0.012 A 
HETATM   19  C   UNL     1      38.301 -14.585  -3.466  1.00  0.00     0.068 C 
HETATM   20  H   UNL     1      36.709 -13.553  -1.453  1.00  0.00     0.166 HD
ENDBRANCH   7   9
ENDBRANCH   6   7
ENDBRANCH   5   6
ENDBRANCH   1   5
BRANCH   2  21
HETATM   21  N   UNL     1      41.312 -13.477   3.591  1.00  0.00    -0.167 N 
HETATM   22  C   UNL     1      40.337 -14.203   2.963  1.00  0.00     0.345 A 
HETATM   23  O   UNL     1      39.643 -13.871   2.015  1.00  0.00    -0.245 OA
HETATM   24  N   UNL     1      40.292 -15.446   3.559  1.00  0.00    -0.319 N 
HETATM   25  C   UNL     1      41.364 -15.637   4.525  1.00  0.00     0.141 A 
HETATM   26  H   UNL     1      39.728 -16.183   3.157  1.00  0.00     0.166 HD
HETATM   27  C   UNL     1      40.800 -15.901   5.924  1.00  0.00     0.055 C 
HETATM   28  C   UNL     1      41.991 -14.218   4.524  1.00  0.00     0.279 A 
HETATM   29  O   UNL     1      42.938 -13.848   5.210  1.00  0.00    -0.268 OA
BRANCH  25  30
HETATM   30  C   UNL     1      42.287 -16.753   4.037  1.00  0.00    -0.021 A 
HETATM   31  C   UNL     1      43.283 -17.325   4.848  1.00  0.00     0.010 A 
HETATM   32  C   UNL     1      44.128 -18.324   4.355  1.00  0.00     0.001 A 
HETATM   33  C   UNL     1      43.998 -18.770   3.043  1.00  0.00     0.000 A 
HETATM   34  C   UNL     1      43.022 -18.218   2.221  1.00  0.00     0.001 A 
HETATM   35  C   UNL     1      42.177 -17.220   2.710  1.00  0.00     0.010 A 
ENDBRANCH  25  30
ENDBRANCH   2  21
TORSDOF 6
ENDMDL
MODEL 10
REMARK VINA RESULT:      -8.9      2.070      3.457
REMARK  6 active torsions:
REMARK  status: ('A' for Active; 'I' for Inactive)
REMARK    1  A    between atoms: C_7  and  C_8 
REMARK    2  A    between atoms: C_8  and  O_9 
REMARK    3  A    between atoms: O_9  and  C_10 
REMARK    4  A    between atoms: C_10  and  C_11 
REMARK       I    between atoms: C_11  and  N_12 
REMARK    5  A    between atoms: N_12  and  N_13 
REMARK    6  A    between atoms: C_17  and  C_18 
ROOT
HETATM    1  C   UNL     1      40.820 -11.844   5.264  1.00  0.00     0.261 C 
HETATM    2  N   UNL     1      41.801 -12.806   5.398  1.00  0.00    -0.255 N 
HETATM    3  O   UNL     1      39.960 -11.859   4.385  1.00  0.00    -0.269 OA
HETATM    4  H   UNL     1      42.632 -12.596   5.955  1.00  0.00     0.191 HD
ENDROOT
BRANCH   1   5
HETATM    5  C   UNL     1      40.865 -10.764   6.349  1.00  0.00     0.283 C 
BRANCH   5   6
HETATM    6  O   UNL     1      41.887  -9.780   6.180  1.00  0.00    -0.308 OA
BRANCH   6   7
HETATM    7  C   UNL     1      43.003  -9.962   6.928  1.00  0.00     0.293 C 
HETATM    8  O   UNL     1      43.930 -10.701   6.627  1.00  0.00    -0.259 OA
BRANCH   7   9
HETATM    9  C   UNL     1      42.973  -9.135   8.163  1.00  0.00     0.040 A 
HETATM   10  C   UNL     1      42.939  -7.744   8.019  1.00  0.00     0.020 A 
HETATM   11  C   UNL     1      42.909  -6.898   9.132  1.00  0.00     0.031 A 
HETATM   12  C   UNL     1      42.915  -7.497  10.396  1.00  0.00     0.043 A 
HETATM   13  C   UNL     1      42.955  -8.878  10.583  1.00  0.00    -0.001 A 
HETATM   14  N   UNL     1      42.882  -6.921  11.644  1.00  0.00    -0.359 N 
HETATM   15  C   UNL     1      42.954  -9.120  11.996  1.00  0.00    -0.027 A 
HETATM   16  C   UNL     1      42.982  -9.712   9.445  1.00  0.00     0.032 A 
HETATM   17  C   UNL     1      42.990 -10.446  12.671  1.00  0.00     0.051 C 
HETATM   18  C   UNL     1      42.896  -7.884  12.621  1.00  0.00     0.012 A 
HETATM   19  C   UNL     1      42.850  -7.530  14.063  1.00  0.00     0.068 C 
HETATM   20  H   UNL     1      42.842  -5.925  11.810  1.00  0.00     0.166 HD
ENDBRANCH   7   9
ENDBRANCH   6   7
ENDBRANCH   5   6
ENDBRANCH   1   5
BRANCH   2  21
HETATM   21  N   UNL     1      41.970 -13.700   4.359  1.00  0.00    -0.167 N 
HETATM   22  C   UNL     1      42.825 -13.500   3.310  1.00  0.00     0.345 A 
HETATM   23  O   UNL     1      43.601 -12.573   3.136  1.00  0.00    -0.245 OA
HETATM   24  N   UNL     1      42.711 -14.584   2.464  1.00  0.00    -0.319 N 
HETATM   25  C   UNL     1      41.864 -15.631   3.017  1.00  0.00     0.141 A 
HETATM   26  H   UNL     1      43.354 -14.697   1.692  1.00  0.00     0.166 HD
HETATM   27  C   UNL     1      40.656 -15.893   2.113  1.00  0.00     0.055 C 
HETATM   28  C   UNL     1      41.354 -14.924   4.300  1.00  0.00     0.279 A 
HETATM   29  O   UNL     1      40.572 -15.394   5.119  1.00  0.00    -0.268 OA
BRANCH  25  30
HETATM   30  C   UNL     1      42.707 -16.882   3.258  1.00  0.00    -0.021 A 
HETATM   31  C   UNL     1      43.535 -17.035   4.384  1.00  0.00     0.010 A 
HETATM   32  C   UNL     1      44.316 -18.183   4.556  1.00  0.00     0.001 A 
HETATM   33  C   UNL     1      44.288 -19.199   3.605  1.00  0.00     0.000 A 
HETATM   34  C   UNL     1      43.479 -19.070   2.481  1.00  0.00     0.001 A 
HETATM   35  C   UNL     1      42.699 -17.925   2.308  1.00  0.00     0.010 A 
ENDBRANCH  25  30
ENDBRANCH   2  21
TORSDOF 6
ENDMDL
