MODEL 1
REMARK VINA RESULT:      -8.8      0.000      0.000
REMARK  5 active torsions:
REMARK  status: ('A' for Active; 'I' for Inactive)
REMARK    1  A    between atoms: C_4  and  C_5 
REMARK    2  A    between atoms: C_5  and  C_6 
REMARK    3  A    between atoms: C_12  and  S_13 
REMARK    4  A    between atoms: S_13  and  C_14 
REMARK    5  A    between atoms: C_14  and  C_15 
ROOT
HETATM    1  C   UNL     1      41.663 -16.498   2.594  1.00  0.00     0.283 C 
HETATM    2  O   UNL     1      41.367 -16.608   3.976  1.00  0.00    -0.303 OA
HETATM    3  C   UNL     1      42.457 -16.253   4.725  1.00  0.00     0.201 A 
HETATM    4  C   UNL     1      43.522 -17.125   4.861  1.00  0.00     0.144 A 
HETATM    5  N   UNL     1      44.532 -16.771   5.679  1.00  0.00    -0.142 NA
HETATM    6  N   UNL     1      44.465 -15.568   6.328  1.00  0.00    -0.122 NA
HETATM    7  C   UNL     1      43.395 -14.761   6.146  1.00  0.00     0.212 A 
HETATM    8  N   UNL     1      42.352 -15.070   5.359  1.00  0.00    -0.195 NA
HETATM    9  C   UNL     1      43.601 -18.407   4.162  1.00  0.00     0.020 A 
HETATM   10  C   UNL     1      43.090 -18.564   2.854  1.00  0.00     0.023 A 
HETATM   11  N   UNL     1      42.599 -17.517   2.064  1.00  0.00    -0.259 NA
HETATM   12  C   UNL     1      44.202 -19.516   4.793  1.00  0.00     0.016 A 
HETATM   13  C   UNL     1      44.316 -20.748   4.149  1.00  0.00     0.001 A 
HETATM   14  C   UNL     1      43.849 -20.888   2.849  1.00  0.00     0.002 A 
HETATM   15  C   UNL     1      43.262 -19.800   2.206  1.00  0.00     0.024 A 
HETATM   16  H   UNL     1      43.389 -17.030   1.624  1.00  0.00     0.130 HD
ENDROOT
BRANCH   7  17
HETATM   17  S   UNL     1      43.325 -13.209   6.997  1.00  0.00    -0.084 SA
BRANCH  17  18
HETATM   18  C   UNL     1      44.217 -12.172   5.798  1.00  0.00     0.121 C 
BRANCH  18  19
HETATM   19  C   UNL     1      43.260 -11.398   4.923  1.00  0.00    -0.048 A 
HETATM   20  C   UNL     1      43.286 -11.555   3.529  1.00  0.00     0.009 A 
HETATM   21  C   UNL     1      42.408 -10.831   2.718  1.00  0.00     0.024 A 
HETATM   22  C   UNL     1      41.505  -9.942   3.296  1.00  0.00     0.034 A 
HETATM   23 CL   UNL     1      40.425  -9.050   2.296  1.00  0.00    -0.084 Cl
HETATM   24  C   UNL     1      41.472  -9.769   4.678  1.00  0.00     0.024 A 
HETATM   25  C   UNL     1      42.348 -10.493   5.489  1.00  0.00     0.009 A 
ENDBRANCH  18  19
ENDBRANCH  17  18
ENDBRANCH   7  17
BRANCH   1  26
HETATM   26  C   UNL     1      42.095 -15.088   2.103  1.00  0.00     0.203 C 
HETATM   27  O   UNL     1      43.284 -14.824   1.896  1.00  0.00    -0.288 OA
BRANCH  26  28
HETATM   28  C   UNL     1      41.048 -14.051   1.842  1.00  0.00     0.014 A 
HETATM   29  C   UNL     1      40.103 -13.668   2.802  1.00  0.00     0.015 A 
HETATM   30  C   UNL     1      39.133 -12.711   2.491  1.00  0.00     0.001 A 
HETATM   31  C   UNL     1      39.099 -12.130   1.224  1.00  0.00     0.000 A 
HETATM   32  C   UNL     1      40.038 -12.501   0.265  1.00  0.00     0.001 A 
HETATM   33  C   UNL     1      41.009 -13.457   0.572  1.00  0.00     0.015 A 
ENDBRANCH  26  28
ENDBRANCH   1  26
TORSDOF 5
ENDMDL
MODEL 2
REMARK VINA RESULT:      -8.7      3.309      6.803
REMARK  5 active torsions:
REMARK  status: ('A' for Active; 'I' for Inactive)
REMARK    1  A    between atoms: C_4  and  C_5 
REMARK    2  A    between atoms: C_5  and  C_6 
REMARK    3  A    between atoms: C_12  and  S_13 
REMARK    4  A    between atoms: S_13  and  C_14 
REMARK    5  A    between atoms: C_14  and  C_15 
ROOT
HETATM    1  C   UNL     1      40.823 -14.831   0.458  1.00  0.00     0.283 C 
HETATM    2  O   UNL     1      41.314 -13.513   0.626  1.00  0.00    -0.303 OA
HETATM    3  C   UNL     1      40.452 -12.780   1.399  1.00  0.00     0.201 A 
HETATM    4  C   UNL     1      39.273 -12.297   0.861  1.00  0.00     0.144 A 
HETATM    5  N   UNL     1      38.501 -11.507   1.632  1.00  0.00    -0.142 NA
HETATM    6  N   UNL     1      38.909 -11.227   2.908  1.00  0.00    -0.122 NA
HETATM    7  C   UNL     1      40.072 -11.737   3.372  1.00  0.00     0.212 A 
HETATM    8  N   UNL     1      40.891 -12.513   2.644  1.00  0.00    -0.195 NA
HETATM    9  C   UNL     1      38.830 -12.601  -0.498  1.00  0.00     0.020 A 
HETATM   10  C   UNL     1      39.079 -13.861  -1.088  1.00  0.00     0.023 A 
HETATM   11  N   UNL     1      39.630 -14.957  -0.412  1.00  0.00    -0.259 NA
HETATM   12  C   UNL     1      38.134 -11.628  -1.245  1.00  0.00     0.016 A 
HETATM   13  C   UNL     1      37.676 -11.890  -2.537  1.00  0.00     0.001 A 
HETATM   14  C   UNL     1      37.886 -13.142  -3.097  1.00  0.00     0.002 A 
HETATM   15  C   UNL     1      38.564 -14.120  -2.370  1.00  0.00     0.024 A 
HETATM   16  H   UNL     1      38.890 -15.429   0.121  1.00  0.00     0.130 HD
ENDROOT
BRANCH   7  17
HETATM   17  S   UNL     1      40.585 -11.361   5.026  1.00  0.00    -0.084 SA
BRANCH  17  18
HETATM   18  C   UNL     1      39.828 -12.766   5.899  1.00  0.00     0.121 C 
BRANCH  18  19
HETATM   19  C   UNL     1      40.869 -13.778   6.315  1.00  0.00    -0.048 A 
HETATM   20  C   UNL     1      40.512 -15.119   6.525  1.00  0.00     0.009 A 
HETATM   21  C   UNL     1      41.473 -16.053   6.921  1.00  0.00     0.024 A 
HETATM   22  C   UNL     1      42.792 -15.651   7.116  1.00  0.00     0.034 A 
HETATM   23 CL   UNL     1      43.973 -16.803   7.605  1.00  0.00    -0.084 Cl
HETATM   24  C   UNL     1      43.160 -14.322   6.919  1.00  0.00     0.024 A 
HETATM   25  C   UNL     1      42.201 -13.388   6.523  1.00  0.00     0.009 A 
ENDBRANCH  18  19
ENDBRANCH  17  18
ENDBRANCH   7  17
BRANCH   1  26
HETATM   26  C   UNL     1      40.602 -15.645   1.764  1.00  0.00     0.203 C 
HETATM   27  O   UNL     1      39.485 -15.718   2.287  1.00  0.00    -0.288 OA
BRANCH  26  28
HETATM   28  C   UNL     1      41.755 -16.381   2.371  1.00  0.00     0.014 A 
HETATM   29  C   UNL     1      42.079 -17.701   2.029  1.00  0.00     0.015 A 
HETATM   30  C   UNL     1      43.154 -18.344   2.649  1.00  0.00     0.001 A 
HETATM   31  C   UNL     1      43.911 -17.679   3.611  1.00  0.00     0.000 A 
HETATM   32  C   UNL     1      43.601 -16.366   3.953  1.00  0.00     0.001 A 
HETATM   33  C   UNL     1      42.528 -15.718   3.336  1.00  0.00     0.015 A 
ENDBRANCH  26  28
ENDBRANCH   1  26
TORSDOF 5
ENDMDL
MODEL 3
REMARK VINA RESULT:      -8.5      1.149      1.522
REMARK  5 active torsions:
REMARK  status: ('A' for Active; 'I' for Inactive)
REMARK    1  A    between atoms: C_4  and  C_5 
REMARK    2  A    between atoms: C_5  and  C_6 
REMARK    3  A    between atoms: C_12  and  S_13 
REMARK    4  A    between atoms: S_13  and  C_14 
REMARK    5  A    between atoms: C_14  and  C_15 
ROOT
HETATM    1  C   UNL     1      42.040 -16.783   2.228  1.00  0.00     0.283 C 
HETATM    2  O   UNL     1      41.446 -16.680   3.511  1.00  0.00    -0.303 OA
HETATM    3  C   UNL     1      42.351 -16.190   4.415  1.00  0.00     0.201 A 
HETATM    4  C   UNL     1      43.347 -17.008   4.917  1.00  0.00     0.144 A 
HETATM    5  N   UNL     1      44.158 -16.509   5.870  1.00  0.00    -0.142 NA
HETATM    6  N   UNL     1      43.968 -15.221   6.290  1.00  0.00    -0.122 NA
HETATM    7  C   UNL     1      42.977 -14.474   5.752  1.00  0.00     0.212 A 
HETATM    8  N   UNL     1      42.127 -14.923   4.815  1.00  0.00    -0.195 NA
HETATM    9  C   UNL     1      43.558 -18.382   4.464  1.00  0.00     0.020 A 
HETATM   10  C   UNL     1      43.344 -18.753   3.117  1.00  0.00     0.023 A 
HETATM   11  N   UNL     1      43.054 -17.853   2.084  1.00  0.00    -0.259 NA
HETATM   12  C   UNL     1      43.989 -19.365   5.379  1.00  0.00     0.016 A 
HETATM   13  C   UNL     1      44.222 -20.681   4.978  1.00  0.00     0.001 A 
HETATM   14  C   UNL     1      44.051 -21.033   3.647  1.00  0.00     0.002 A 
HETATM   15  C   UNL     1      43.635 -20.072   2.726  1.00  0.00     0.024 A 
HETATM   16  H   UNL     1      43.929 -17.426   1.756  1.00  0.00     0.130 HD
ENDROOT
BRANCH   7  17
HETATM   17  S   UNL     1      42.745 -12.808   6.311  1.00  0.00    -0.084 SA
BRANCH  17  18
HETATM   18  C   UNL     1      40.969 -12.623   5.963  1.00  0.00     0.121 C 
BRANCH  18  19
HETATM   19  C   UNL     1      40.704 -11.415   5.097  1.00  0.00    -0.048 A 
HETATM   20  C   UNL     1      39.396 -11.105   4.690  1.00  0.00     0.009 A 
HETATM   21  C   UNL     1      39.151  -9.994   3.880  1.00  0.00     0.024 A 
HETATM   22  C   UNL     1      40.211  -9.190   3.467  1.00  0.00     0.034 A 
HETATM   23 CL   UNL     1      39.908  -7.822   2.468  1.00  0.00    -0.084 Cl
HETATM   24  C   UNL     1      41.515  -9.488   3.856  1.00  0.00     0.024 A 
HETATM   25  C   UNL     1      41.761 -10.598   4.666  1.00  0.00     0.009 A 
ENDBRANCH  18  19
ENDBRANCH  17  18
ENDBRANCH   7  17
BRANCH   1  26
HETATM   26  C   UNL     1      42.591 -15.460   1.627  1.00  0.00     0.203 C 
HETATM   27  O   UNL     1      43.803 -15.295   1.456  1.00  0.00    -0.288 OA
BRANCH  26  28
HETATM   28  C   UNL     1      41.631 -14.388   1.214  1.00  0.00     0.014 A 
HETATM   29  C   UNL     1      41.700 -13.077   1.703  1.00  0.00     0.015 A 
HETATM   30  C   UNL     1      40.760 -12.126   1.299  1.00  0.00     0.001 A 
HETATM   31  C   UNL     1      39.747 -12.473   0.406  1.00  0.00     0.000 A 
HETATM   32  C   UNL     1      39.674 -13.772  -0.089  1.00  0.00     0.001 A 
HETATM   33  C   UNL     1      40.612 -14.726   0.311  1.00  0.00     0.015 A 
ENDBRANCH  26  28
ENDBRANCH   1  26
TORSDOF 5
ENDMDL
MODEL 4
REMARK VINA RESULT:      -8.5      2.865      6.278
REMARK  5 active torsions:
REMARK  status: ('A' for Active; 'I' for Inactive)
REMARK    1  A    between atoms: C_4  and  C_5 
REMARK    2  A    between atoms: C_5  and  C_6 
REMARK    3  A    between atoms: C_12  and  S_13 
REMARK    4  A    between atoms: S_13  and  C_14 
REMARK    5  A    between atoms: C_14  and  C_15 
ROOT
HETATM    1  C   UNL     1      41.046 -14.928   0.941  1.00  0.00     0.283 C 
HETATM    2  O   UNL     1      41.528 -13.632   1.250  1.00  0.00    -0.303 OA
HETATM    3  C   UNL     1      40.607 -12.948   1.998  1.00  0.00     0.201 A 
HETATM    4  C   UNL     1      39.482 -12.411   1.398  1.00  0.00     0.144 A 
HETATM    5  N   UNL     1      38.650 -11.671   2.157  1.00  0.00    -0.142 NA
HETATM    6  N   UNL     1      38.947 -11.492   3.480  1.00  0.00    -0.122 NA
HETATM    7  C   UNL     1      40.063 -12.050   4.004  1.00  0.00     0.212 A 
HETATM    8  N   UNL     1      40.937 -12.780   3.293  1.00  0.00    -0.195 NA
HETATM    9  C   UNL     1      39.157 -12.609  -0.013  1.00  0.00     0.020 A 
HETATM   10  C   UNL     1      39.449 -13.824  -0.672  1.00  0.00     0.023 A 
HETATM   11  N   UNL     1      39.933 -14.973  -0.036  1.00  0.00    -0.259 NA
HETATM   12  C   UNL     1      38.535 -11.574  -0.742  1.00  0.00     0.016 A 
HETATM   13  C   UNL     1      38.189 -11.733  -2.085  1.00  0.00     0.001 A 
HETATM   14  C   UNL     1      38.440 -12.943  -2.718  1.00  0.00     0.002 A 
HETATM   15  C   UNL     1      39.046 -13.980  -2.010  1.00  0.00     0.024 A 
HETATM   16  H   UNL     1      39.147 -15.475   0.395  1.00  0.00     0.130 HD
ENDROOT
BRANCH   7  17
HETATM   17  S   UNL     1      40.432 -11.804   5.719  1.00  0.00    -0.084 SA
BRANCH  17  18
HETATM   18  C   UNL     1      41.999 -12.721   5.820  1.00  0.00     0.121 C 
BRANCH  18  19
HETATM   19  C   UNL     1      43.098 -11.867   6.405  1.00  0.00    -0.048 A 
HETATM   20  C   UNL     1      44.434 -12.295   6.356  1.00  0.00     0.009 A 
HETATM   21  C   UNL     1      45.450 -11.509   6.906  1.00  0.00     0.024 A 
HETATM   22  C   UNL     1      45.136 -10.297   7.515  1.00  0.00     0.034 A 
HETATM   23 CL   UNL     1      46.388  -9.332   8.195  1.00  0.00    -0.084 Cl
HETATM   24  C   UNL     1      43.814  -9.862   7.580  1.00  0.00     0.024 A 
HETATM   25  C   UNL     1      42.798 -10.646   7.028  1.00  0.00     0.009 A 
ENDBRANCH  18  19
ENDBRANCH  17  18
ENDBRANCH   7  17
BRANCH   1  26
HETATM   26  C   UNL     1      40.708 -15.834   2.158  1.00  0.00     0.203 C 
HETATM   27  O   UNL     1      39.537 -16.028   2.500  1.00  0.00    -0.288 OA
BRANCH  26  28
HETATM   28  C   UNL     1      41.819 -16.509   2.899  1.00  0.00     0.014 A 
HETATM   29  C   UNL     1      42.232 -16.111   4.177  1.00  0.00     0.015 A 
HETATM   30  C   UNL     1      43.293 -16.765   4.809  1.00  0.00     0.001 A 
HETATM   31  C   UNL     1      43.947 -17.819   4.173  1.00  0.00     0.000 A 
HETATM   32  C   UNL     1      43.540 -18.226   2.905  1.00  0.00     0.001 A 
HETATM   33  C   UNL     1      42.480 -17.575   2.270  1.00  0.00     0.015 A 
ENDBRANCH  26  28
ENDBRANCH   1  26
TORSDOF 5
ENDMDL
MODEL 5
REMARK VINA RESULT:      -8.5      2.731      5.527
REMARK  5 active torsions:
REMARK  status: ('A' for Active; 'I' for Inactive)
REMARK    1  A    between atoms: C_4  and  C_5 
REMARK    2  A    between atoms: C_5  and  C_6 
REMARK    3  A    between atoms: C_12  and  S_13 
REMARK    4  A    between atoms: S_13  and  C_14 
REMARK    5  A    between atoms: C_14  and  C_15 
ROOT
HETATM    1  C   UNL     1      43.452 -14.807   4.966  1.00  0.00     0.283 C 
HETATM    2  O   UNL     1      43.322 -14.396   3.616  1.00  0.00    -0.303 OA
HETATM    3  C   UNL     1      42.051 -14.636   3.167  1.00  0.00     0.201 A 
HETATM    4  C   UNL     1      41.658 -15.921   2.838  1.00  0.00     0.144 A 
HETATM    5  N   UNL     1      40.429 -16.094   2.317  1.00  0.00    -0.142 NA
HETATM    6  N   UNL     1      39.623 -15.002   2.146  1.00  0.00    -0.122 NA
HETATM    7  C   UNL     1      40.069 -13.773   2.495  1.00  0.00     0.212 A 
HETATM    8  N   UNL     1      41.290 -13.537   3.000  1.00  0.00    -0.195 NA
HETATM    9  C   UNL     1      42.513 -17.091   3.028  1.00  0.00     0.020 A 
HETATM   10  C   UNL     1      43.396 -17.187   4.126  1.00  0.00     0.023 A 
HETATM   11  N   UNL     1      43.445 -16.272   5.186  1.00  0.00    -0.259 NA
HETATM   12  C   UNL     1      42.462 -18.156   2.104  1.00  0.00     0.016 A 
HETATM   13  C   UNL     1      43.246 -19.299   2.264  1.00  0.00     0.001 A 
HETATM   14  C   UNL     1      44.082 -19.407   3.367  1.00  0.00     0.002 A 
HETATM   15  C   UNL     1      44.138 -18.369   4.295  1.00  0.00     0.024 A 
HETATM   16  H   UNL     1      42.697 -16.493   5.854  1.00  0.00     0.130 HD
ENDROOT
BRANCH   7  17
HETATM   17  S   UNL     1      39.012 -12.370   2.264  1.00  0.00    -0.084 SA
BRANCH  17  18
HETATM   18  C   UNL     1      39.737 -11.701   0.735  1.00  0.00     0.121 C 
BRANCH  18  19
HETATM   19  C   UNL     1      39.300 -12.496  -0.472  1.00  0.00    -0.048 A 
HETATM   20  C   UNL     1      40.185 -13.391  -1.092  1.00  0.00     0.009 A 
HETATM   21  C   UNL     1      39.785 -14.118  -2.216  1.00  0.00     0.024 A 
HETATM   22  C   UNL     1      38.502 -13.950  -2.730  1.00  0.00     0.034 A 
HETATM   23 CL   UNL     1      38.011 -14.845  -4.115  1.00  0.00    -0.084 Cl
HETATM   24  C   UNL     1      37.613 -13.060  -2.131  1.00  0.00     0.024 A 
HETATM   25  C   UNL     1      38.012 -12.333  -1.006  1.00  0.00     0.009 A 
ENDBRANCH  18  19
ENDBRANCH  17  18
ENDBRANCH   7  17
BRANCH   1  26
HETATM   26  C   UNL     1      42.492 -14.123   5.980  1.00  0.00     0.203 C 
HETATM   27  O   UNL     1      41.522 -14.730   6.444  1.00  0.00    -0.288 OA
BRANCH  26  28
HETATM   28  C   UNL     1      42.774 -12.723   6.424  1.00  0.00     0.014 A 
HETATM   29  C   UNL     1      41.955 -11.638   6.084  1.00  0.00     0.015 A 
HETATM   30  C   UNL     1      42.284 -10.348   6.509  1.00  0.00     0.001 A 
HETATM   31  C   UNL     1      43.428 -10.130   7.274  1.00  0.00     0.000 A 
HETATM   32  C   UNL     1      44.245 -11.202   7.622  1.00  0.00     0.001 A 
HETATM   33  C   UNL     1      43.920 -12.494   7.200  1.00  0.00     0.015 A 
ENDBRANCH  26  28
ENDBRANCH   1  26
TORSDOF 5
ENDMDL
MODEL 6
REMARK VINA RESULT:      -8.4      2.940      6.250
REMARK  5 active torsions:
REMARK  status: ('A' for Active; 'I' for Inactive)
REMARK    1  A    between atoms: C_4  and  C_5 
REMARK    2  A    between atoms: C_5  and  C_6 
REMARK    3  A    between atoms: C_12  and  S_13 
REMARK    4  A    between atoms: S_13  and  C_14 
REMARK    5  A    between atoms: C_14  and  C_15 
ROOT
HETATM    1  C   UNL     1      42.030 -15.284   1.493  1.00  0.00     0.283 C 
HETATM    2  O   UNL     1      43.030 -14.309   1.735  1.00  0.00    -0.303 OA
HETATM    3  C   UNL     1      42.621 -13.442   2.713  1.00  0.00     0.201 A 
HETATM    4  C   UNL     1      41.695 -12.455   2.427  1.00  0.00     0.144 A 
HETATM    5  N   UNL     1      41.391 -11.570   3.396  1.00  0.00    -0.142 NA
HETATM    6  N   UNL     1      41.998 -11.691   4.615  1.00  0.00    -0.122 NA
HETATM    7  C   UNL     1      42.891 -12.685   4.829  1.00  0.00     0.212 A 
HETATM    8  N   UNL     1      43.248 -13.582   3.897  1.00  0.00    -0.195 NA
HETATM    9  C   UNL     1      41.038 -12.328   1.127  1.00  0.00     0.020 A 
HETATM   10  C   UNL     1      40.693 -13.465   0.363  1.00  0.00     0.023 A 
HETATM   11  N   UNL     1      40.813 -14.786   0.811  1.00  0.00    -0.259 NA
HETATM   12  C   UNL     1      40.731 -11.049   0.617  1.00  0.00     0.016 A 
HETATM   13  C   UNL     1      40.084 -10.889  -0.609  1.00  0.00     0.001 A 
HETATM   14  C   UNL     1      39.711 -12.010  -1.338  1.00  0.00     0.002 A 
HETATM   15  C   UNL     1      39.997 -13.282  -0.844  1.00  0.00     0.024 A 
HETATM   16  H   UNL     1      39.999 -15.017   1.395  1.00  0.00     0.130 HD
ENDROOT
BRANCH   7  17
HETATM   17  S   UNL     1      43.670 -12.824   6.415  1.00  0.00    -0.084 SA
BRANCH  17  18
HETATM   18  C   UNL     1      44.499 -11.207   6.481  1.00  0.00     0.121 C 
BRANCH  18  19
HETATM   19  C   UNL     1      44.324 -10.555   7.833  1.00  0.00    -0.048 A 
HETATM   20  C   UNL     1      43.092  -9.986   8.192  1.00  0.00     0.009 A 
HETATM   21  C   UNL     1      42.932  -9.374   9.438  1.00  0.00     0.024 A 
HETATM   22  C   UNL     1      44.003  -9.321  10.327  1.00  0.00     0.034 A 
HETATM   23 CL   UNL     1      43.805  -8.565  11.860  1.00  0.00    -0.084 Cl
HETATM   24  C   UNL     1      45.234  -9.874   9.982  1.00  0.00     0.024 A 
HETATM   25  C   UNL     1      45.394 -10.488   8.737  1.00  0.00     0.009 A 
ENDBRANCH  18  19
ENDBRANCH  17  18
ENDBRANCH   7  17
BRANCH   1  26
HETATM   26  C   UNL     1      41.624 -16.157   2.713  1.00  0.00     0.203 C 
HETATM   27  O   UNL     1      40.495 -16.071   3.209  1.00  0.00    -0.288 OA
BRANCH  26  28
HETATM   28  C   UNL     1      42.605 -17.141   3.268  1.00  0.00     0.014 A 
HETATM   29  C   UNL     1      43.124 -17.047   4.566  1.00  0.00     0.015 A 
HETATM   30  C   UNL     1      44.057 -17.983   5.020  1.00  0.00     0.001 A 
HETATM   31  C   UNL     1      44.477 -19.018   4.186  1.00  0.00     0.000 A 
HETATM   32  C   UNL     1      43.962 -19.123   2.897  1.00  0.00     0.001 A 
HETATM   33  C   UNL     1      43.029 -18.190   2.439  1.00  0.00     0.015 A 
ENDBRANCH  26  28
ENDBRANCH   1  26
TORSDOF 5
ENDMDL
MODEL 7
REMARK VINA RESULT:      -8.3      2.545      3.219
REMARK  5 active torsions:
REMARK  status: ('A' for Active; 'I' for Inactive)
REMARK    1  A    between atoms: C_4  and  C_5 
REMARK    2  A    between atoms: C_5  and  C_6 
REMARK    3  A    between atoms: C_12  and  S_13 
REMARK    4  A    between atoms: S_13  and  C_14 
REMARK    5  A    between atoms: C_14  and  C_15 
ROOT
HETATM    1  C   UNL     1      40.987 -15.755   1.826  1.00  0.00     0.283 C 
HETATM    2  O   UNL     1      40.391 -15.773   3.112  1.00  0.00    -0.303 OA
HETATM    3  C   UNL     1      41.157 -15.066   4.000  1.00  0.00     0.201 A 
HETATM    4  C   UNL     1      42.322 -15.615   4.506  1.00  0.00     0.144 A 
HETATM    5  N   UNL     1      42.994 -14.920   5.444  1.00  0.00    -0.142 NA
HETATM    6  N   UNL     1      42.506 -13.707   5.845  1.00  0.00    -0.122 NA
HETATM    7  C   UNL     1      41.363 -13.227   5.304  1.00  0.00     0.212 A 
HETATM    8  N   UNL     1      40.640 -13.882   4.381  1.00  0.00    -0.195 NA
HETATM    9  C   UNL     1      42.852 -16.907   4.074  1.00  0.00     0.020 A 
HETATM   10  C   UNL     1      42.726 -17.343   2.736  1.00  0.00     0.023 A 
HETATM   11  N   UNL     1      42.226 -16.556   1.691  1.00  0.00    -0.259 NA
HETATM   12  C   UNL     1      43.508 -17.743   5.001  1.00  0.00     0.016 A 
HETATM   13  C   UNL     1      44.046 -18.973   4.621  1.00  0.00     0.001 A 
HETATM   14  C   UNL     1      43.957 -19.379   3.296  1.00  0.00     0.002 A 
HETATM   15  C   UNL     1      43.321 -18.561   2.364  1.00  0.00     0.024 A 
HETATM   16  H   UNL     1      42.972 -15.939   1.348  1.00  0.00     0.130 HD
ENDROOT
BRANCH   7  17
HETATM   17  S   UNL     1      40.744 -11.655   5.837  1.00  0.00    -0.084 SA
BRANCH  17  18
HETATM   18  C   UNL     1      42.203 -10.627   5.487  1.00  0.00     0.121 C 
BRANCH  18  19
HETATM   19  C   UNL     1      43.028 -10.403   6.732  1.00  0.00    -0.048 A 
HETATM   20  C   UNL     1      44.325 -10.930   6.830  1.00  0.00     0.009 A 
HETATM   21  C   UNL     1      45.084 -10.732   7.985  1.00  0.00     0.024 A 
HETATM   22  C   UNL     1      44.549 -10.013   9.052  1.00  0.00     0.034 A 
HETATM   23 CL   UNL     1      45.486  -9.772  10.475  1.00  0.00    -0.084 Cl
HETATM   24  C   UNL     1      43.260  -9.491   8.974  1.00  0.00     0.024 A 
HETATM   25  C   UNL     1      42.501  -9.687   7.818  1.00  0.00     0.009 A 
ENDBRANCH  18  19
ENDBRANCH  17  18
ENDBRANCH   7  17
BRANCH   1  26
HETATM   26  C   UNL     1      41.204 -14.350   1.198  1.00  0.00     0.203 C 
HETATM   27  O   UNL     1      42.229 -13.700   1.433  1.00  0.00    -0.288 OA
BRANCH  26  28
HETATM   28  C   UNL     1      40.172 -13.797   0.267  1.00  0.00     0.014 A 
HETATM   29  C   UNL     1      39.533 -12.568   0.484  1.00  0.00     0.015 A 
HETATM   30  C   UNL     1      38.559 -12.115  -0.410  1.00  0.00     0.001 A 
HETATM   31  C   UNL     1      38.214 -12.881  -1.522  1.00  0.00     0.000 A 
HETATM   32  C   UNL     1      38.847 -14.100  -1.749  1.00  0.00     0.001 A 
HETATM   33  C   UNL     1      39.823 -14.557  -0.859  1.00  0.00     0.015 A 
ENDBRANCH  26  28
ENDBRANCH   1  26
TORSDOF 5
ENDMDL
MODEL 8
REMARK VINA RESULT:      -8.2      3.001      6.751
REMARK  5 active torsions:
REMARK  status: ('A' for Active; 'I' for Inactive)
REMARK    1  A    between atoms: C_4  and  C_5 
REMARK    2  A    between atoms: C_5  and  C_6 
REMARK    3  A    between atoms: C_12  and  S_13 
REMARK    4  A    between atoms: S_13  and  C_14 
REMARK    5  A    between atoms: C_14  and  C_15 
ROOT
HETATM    1  C   UNL     1      42.546 -11.989   3.271  1.00  0.00     0.283 C 
HETATM    2  O   UNL     1      43.096 -11.903   4.574  1.00  0.00    -0.303 OA
HETATM    3  C   UNL     1      42.692 -12.971   5.331  1.00  0.00     0.201 A 
HETATM    4  C   UNL     1      41.410 -13.012   5.849  1.00  0.00     0.144 A 
HETATM    5  N   UNL     1      41.087 -14.038   6.660  1.00  0.00    -0.142 NA
HETATM    6  N   UNL     1      42.031 -14.992   6.927  1.00  0.00    -0.122 NA
HETATM    7  C   UNL     1      43.265 -14.892   6.382  1.00  0.00     0.212 A 
HETATM    8  N   UNL     1      43.649 -13.884   5.583  1.00  0.00    -0.195 NA
HETATM    9  C   UNL     1      40.397 -11.999   5.559  1.00  0.00     0.020 A 
HETATM   10  C   UNL     1      40.321 -11.376   4.293  1.00  0.00     0.023 A 
HETATM   11  N   UNL     1      41.088 -11.746   3.181  1.00  0.00    -0.259 NA
HETATM   12  C   UNL     1      39.467 -11.631   6.553  1.00  0.00     0.016 A 
HETATM   13  C   UNL     1      38.472 -10.685   6.306  1.00  0.00     0.001 A 
HETATM   14  C   UNL     1      38.375 -10.105   5.049  1.00  0.00     0.002 A 
HETATM   15  C   UNL     1      39.280 -10.464   4.051  1.00  0.00     0.024 A 
HETATM   16  H   UNL     1      40.653 -12.561   2.730  1.00  0.00     0.130 HD
ENDROOT
BRANCH   7  17
HETATM   17  S   UNL     1      44.474 -16.136   6.742  1.00  0.00    -0.084 SA
BRANCH  17  18
HETATM   18  C   UNL     1      43.402 -17.605   6.728  1.00  0.00     0.121 C 
BRANCH  18  19
HETATM   19  C   UNL     1      43.542 -18.374   5.435  1.00  0.00    -0.048 A 
HETATM   20  C   UNL     1      43.796 -19.754   5.453  1.00  0.00     0.009 A 
HETATM   21  C   UNL     1      43.936 -20.464   4.258  1.00  0.00     0.024 A 
HETATM   22  C   UNL     1      43.831 -19.798   3.040  1.00  0.00     0.034 A 
HETATM   23 CL   UNL     1      44.006 -20.673   1.569  1.00  0.00    -0.084 Cl
HETATM   24  C   UNL     1      43.587 -18.427   3.005  1.00  0.00     0.024 A 
HETATM   25  C   UNL     1      43.445 -17.716   4.199  1.00  0.00     0.009 A 
ENDBRANCH  18  19
ENDBRANCH  17  18
ENDBRANCH   7  17
BRANCH   1  26
HETATM   26  C   UNL     1      42.913 -13.265   2.462  1.00  0.00     0.203 C 
HETATM   27  O   UNL     1      44.091 -13.553   2.229  1.00  0.00    -0.288 OA
BRANCH  26  28
HETATM   28  C   UNL     1      41.821 -14.174   1.994  1.00  0.00     0.014 A 
HETATM   29  C   UNL     1      41.211 -14.046   0.739  1.00  0.00     0.015 A 
HETATM   30  C   UNL     1      40.177 -14.911   0.368  1.00  0.00     0.001 A 
HETATM   31  C   UNL     1      39.746 -15.907   1.242  1.00  0.00     0.000 A 
HETATM   32  C   UNL     1      40.350 -16.045   2.489  1.00  0.00     0.001 A 
HETATM   33  C   UNL     1      41.383 -15.184   2.864  1.00  0.00     0.015 A 
ENDBRANCH  26  28
ENDBRANCH   1  26
TORSDOF 5
ENDMDL
MODEL 9
REMARK VINA RESULT:      -8.1      2.153      4.432
REMARK  5 active torsions:
REMARK  status: ('A' for Active; 'I' for Inactive)
REMARK    1  A    between atoms: C_4  and  C_5 
REMARK    2  A    between atoms: C_5  and  C_6 
REMARK    3  A    between atoms: C_12  and  S_13 
REMARK    4  A    between atoms: S_13  and  C_14 
REMARK    5  A    between atoms: C_14  and  C_15 
ROOT
HETATM    1  C   UNL     1      43.842 -15.758   4.753  1.00  0.00     0.283 C 
HETATM    2  O   UNL     1      43.930 -15.433   3.377  1.00  0.00    -0.303 OA
HETATM    3  C   UNL     1      42.697 -15.523   2.788  1.00  0.00     0.201 A 
HETATM    4  C   UNL     1      42.157 -16.760   2.486  1.00  0.00     0.144 A 
HETATM    5  N   UNL     1      40.983 -16.796   1.827  1.00  0.00    -0.142 NA
HETATM    6  N   UNL     1      40.375 -15.616   1.496  1.00  0.00    -0.122 NA
HETATM    7  C   UNL     1      40.956 -14.440   1.827  1.00  0.00     0.212 A 
HETATM    8  N   UNL     1      42.133 -14.343   2.466  1.00  0.00    -0.195 NA
HETATM    9  C   UNL     1      42.800 -18.023   2.845  1.00  0.00     0.020 A 
HETATM   10  C   UNL     1      43.527 -18.161   4.049  1.00  0.00     0.023 A 
HETATM   11  N   UNL     1      43.590 -17.186   5.052  1.00  0.00    -0.259 NA
HETATM   12  C   UNL     1      42.695 -19.135   1.984  1.00  0.00     0.016 A 
HETATM   13  C   UNL     1      43.276 -20.362   2.304  1.00  0.00     0.001 A 
HETATM   14  C   UNL     1      43.954 -20.506   3.506  1.00  0.00     0.002 A 
HETATM   15  C   UNL     1      44.059 -19.421   4.375  1.00  0.00     0.024 A 
HETATM   16  H   UNL     1      42.746 -17.249   5.635  1.00  0.00     0.130 HD
ENDROOT
BRANCH   7  17
HETATM   17  S   UNL     1      40.155 -12.922   1.388  1.00  0.00    -0.084 SA
BRANCH  17  18
HETATM   18  C   UNL     1      38.889 -12.866   2.693  1.00  0.00     0.121 C 
BRANCH  18  19
HETATM   19  C   UNL     1      39.377 -12.100   3.899  1.00  0.00    -0.048 A 
HETATM   20  C   UNL     1      39.478 -12.730   5.149  1.00  0.00     0.009 A 
HETATM   21  C   UNL     1      39.920 -12.018   6.267  1.00  0.00     0.024 A 
HETATM   22  C   UNL     1      40.257 -10.673   6.143  1.00  0.00     0.034 A 
HETATM   23 CL   UNL     1      40.799  -9.797   7.522  1.00  0.00    -0.084 Cl
HETATM   24  C   UNL     1      40.155 -10.030   4.911  1.00  0.00     0.024 A 
HETATM   25  C   UNL     1      39.714 -10.741   3.793  1.00  0.00     0.009 A 
ENDBRANCH  18  19
ENDBRANCH  17  18
ENDBRANCH   7  17
BRANCH   1  26
HETATM   26  C   UNL     1      42.886 -14.871   5.600  1.00  0.00     0.203 C 
HETATM   27  O   UNL     1      41.832 -15.328   6.054  1.00  0.00    -0.288 OA
BRANCH  26  28
HETATM   28  C   UNL     1      43.271 -13.457   5.897  1.00  0.00     0.014 A 
HETATM   29  C   UNL     1      43.317 -12.459   4.915  1.00  0.00     0.015 A 
HETATM   30  C   UNL     1      43.708 -11.160   5.249  1.00  0.00     0.001 A 
HETATM   31  C   UNL     1      44.055 -10.846   6.562  1.00  0.00     0.000 A 
HETATM   32  C   UNL     1      44.007 -11.830   7.547  1.00  0.00     0.001 A 
HETATM   33  C   UNL     1      43.616 -13.129   7.217  1.00  0.00     0.015 A 
ENDBRANCH  26  28
ENDBRANCH   1  26
TORSDOF 5
ENDMDL
MODEL 10
REMARK VINA RESULT:      -7.9      2.139      3.141
REMARK  5 active torsions:
REMARK  status: ('A' for Active; 'I' for Inactive)
REMARK    1  A    between atoms: C_4  and  C_5 
REMARK    2  A    between atoms: C_5  and  C_6 
REMARK    3  A    between atoms: C_12  and  S_13 
REMARK    4  A    between atoms: S_13  and  C_14 
REMARK    5  A    between atoms: C_14  and  C_15 
ROOT
HETATM    1  C   UNL     1      40.824 -15.659   1.509  1.00  0.00     0.283 C 
HETATM    2  O   UNL     1      40.049 -15.658   2.695  1.00  0.00    -0.303 OA
HETATM    3  C   UNL     1      40.574 -14.777   3.604  1.00  0.00     0.201 A 
HETATM    4  C   UNL     1      41.711 -15.109   4.319  1.00  0.00     0.144 A 
HETATM    5  N   UNL     1      42.139 -14.251   5.264  1.00  0.00    -0.142 NA
HETATM    6  N   UNL     1      41.441 -13.091   5.468  1.00  0.00    -0.122 NA
HETATM    7  C   UNL     1      40.340 -12.827   4.729  1.00  0.00     0.212 A 
HETATM    8  N   UNL     1      39.856 -13.653   3.787  1.00  0.00    -0.195 NA
HETATM    9  C   UNL     1      42.463 -16.343   4.098  1.00  0.00     0.020 A 
HETATM   10  C   UNL     1      42.598 -16.901   2.807  1.00  0.00     0.023 A 
HETATM   11  N   UNL     1      42.163 -16.283   1.628  1.00  0.00    -0.259 NA
HETATM   12  C   UNL     1      43.076 -16.997   5.187  1.00  0.00     0.016 A 
HETATM   13  C   UNL     1      43.821 -18.164   5.011  1.00  0.00     0.001 A 
HETATM   14  C   UNL     1      43.986 -18.686   3.736  1.00  0.00     0.002 A 
HETATM   15  C   UNL     1      43.395 -18.047   2.646  1.00  0.00     0.024 A 
HETATM   16  H   UNL     1      42.866 -15.595   1.330  1.00  0.00     0.130 HD
ENDROOT
BRANCH   7  17
HETATM   17  S   UNL     1      39.448 -11.321   5.009  1.00  0.00    -0.084 SA
BRANCH  17  18
HETATM   18  C   UNL     1      40.706 -10.126   4.463  1.00  0.00     0.121 C 
BRANCH  18  19
HETATM   19  C   UNL     1      40.639  -9.904   2.970  1.00  0.00    -0.048 A 
HETATM   20  C   UNL     1      41.699 -10.310   2.144  1.00  0.00     0.009 A 
HETATM   21  C   UNL     1      41.643 -10.095   0.765  1.00  0.00     0.024 A 
HETATM   22  C   UNL     1      40.532  -9.468   0.205  1.00  0.00     0.034 A 
HETATM   23 CL   UNL     1      40.466  -9.203  -1.494  1.00  0.00    -0.084 Cl
HETATM   24  C   UNL     1      39.476  -9.052   1.012  1.00  0.00     0.024 A 
HETATM   25  C   UNL     1      39.531  -9.268   2.392  1.00  0.00     0.009 A 
ENDBRANCH  18  19
ENDBRANCH  17  18
ENDBRANCH   7  17
BRANCH   1  26
HETATM   26  C   UNL     1      40.948 -14.294   0.777  1.00  0.00     0.203 C 
HETATM   27  O   UNL     1      41.917 -13.553   0.974  1.00  0.00    -0.288 OA
BRANCH  26  28
HETATM   28  C   UNL     1      39.896 -13.893  -0.209  1.00  0.00     0.014 A 
HETATM   29  C   UNL     1      39.605 -14.643  -1.356  1.00  0.00     0.015 A 
HETATM   30  C   UNL     1      38.627 -14.204  -2.253  1.00  0.00     0.001 A 
HETATM   31  C   UNL     1      37.934 -13.019  -2.013  1.00  0.00     0.000 A 
HETATM   32  C   UNL     1      38.212 -12.271  -0.873  1.00  0.00     0.001 A 
HETATM   33  C   UNL     1      39.188 -12.705   0.027  1.00  0.00     0.015 A 
ENDBRANCH  26  28
ENDBRANCH   1  26
TORSDOF 5
ENDMDL
