MODEL 1
REMARK VINA RESULT:      -8.5      0.000      0.000
REMARK  6 active torsions:
REMARK  status: ('A' for Active; 'I' for Inactive)
REMARK    1  A    between atoms: C_4  and  C_5 
REMARK    2  A    between atoms: C_14  and  C_15 
REMARK       I    between atoms: C_15  and  N_16 
REMARK    3  A    between atoms: N_16  and  C_17 
REMARK    4  A    between atoms: C_17  and  C_18 
REMARK    5  A    between atoms: C_18  and  N_19 
REMARK       I    between atoms: N_19  and  C_20 
REMARK    6  A    between atoms: C_20  and  C_21 
ROOT
HETATM    1  C   UNL     1      42.958 -16.660   2.956  1.00  0.00     0.069 A 
HETATM    2  N   UNL     1      42.318 -16.417   1.782  1.00  0.00    -0.230 NA
HETATM    3  C   UNL     1      41.994 -15.128   1.587  1.00  0.00     0.139 A 
HETATM    4  C   UNL     1      42.229 -14.051   2.430  1.00  0.00     0.027 A 
HETATM    5  C   UNL     1      42.883 -14.333   3.639  1.00  0.00     0.018 A 
HETATM    6  C   UNL     1      43.244 -15.660   3.892  1.00  0.00     0.033 A 
HETATM    7  N   UNL     1      41.353 -14.659   0.477  1.00  0.00    -0.349 N 
HETATM    8  H   UNL     1      41.074 -15.250  -0.293  1.00  0.00     0.167 HD
HETATM    9  C   UNL     1      41.162 -13.304   0.583  1.00  0.00     0.108 A 
HETATM   10  C   UNL     1      41.694 -12.878   1.796  1.00  0.00     0.061 A 
ENDROOT
BRANCH  10  11
HETATM   11  C   UNL     1      41.719 -11.519   2.337  1.00  0.00     0.254 C 
HETATM   12  N   UNL     1      40.499 -11.005   2.717  1.00  0.00    -0.355 N 
HETATM   13  H   UNL     1      39.660 -11.553   2.603  1.00  0.00     0.162 HD
HETATM   14  O   UNL     1      42.758 -10.876   2.447  1.00  0.00    -0.268 OA
BRANCH  12  15
HETATM   15  C   UNL     1      40.381  -9.674   3.286  1.00  0.00     0.142 C 
BRANCH  15  16
HETATM   16  C   UNL     1      40.368  -9.688   4.819  1.00  0.00     0.142 C 
BRANCH  16  17
HETATM   17  N   UNL     1      41.697  -9.844   5.386  1.00  0.00    -0.355 N 
HETATM   18  C   UNL     1      42.151 -11.054   5.868  1.00  0.00     0.258 C 
HETATM   19  O   UNL     1      41.442 -12.057   5.835  1.00  0.00    -0.267 OA
HETATM   20  H   UNL     1      42.292  -9.031   5.472  1.00  0.00     0.162 HD
BRANCH  18  21
HETATM   21  C   UNL     1      43.499 -11.059   6.419  1.00  0.00     0.072 A 
HETATM   22  S   UNL     1      43.852 -10.507   8.004  1.00  0.00    -0.097 SA
HETATM   23  C   UNL     1      45.520 -10.845   7.827  1.00  0.00     0.050 A 
HETATM   24  C   UNL     1      45.811 -11.369   6.588  1.00  0.00     0.009 A 
HETATM   25  C   UNL     1      44.647 -11.495   5.779  1.00  0.00     0.025 A 
ENDBRANCH  18  21
ENDBRANCH  16  17
ENDBRANCH  15  16
ENDBRANCH  12  15
ENDBRANCH  10  11
BRANCH   1  26
HETATM   26  C   UNL     1      43.322 -18.077   3.190  1.00  0.00    -0.007 A 
HETATM   27  C   UNL     1      43.880 -18.515   4.405  1.00  0.00     0.014 A 
HETATM   28  C   UNL     1      44.209 -19.859   4.614  1.00  0.00     0.001 A 
HETATM   29  C   UNL     1      43.991 -20.796   3.608  1.00  0.00     0.000 A 
HETATM   30  C   UNL     1      43.450 -20.390   2.392  1.00  0.00     0.001 A 
HETATM   31  C   UNL     1      43.122 -19.045   2.188  1.00  0.00     0.014 A 
ENDBRANCH   1  26
TORSDOF 6
ENDMDL
MODEL 2
REMARK VINA RESULT:      -8.5      3.148      5.653
REMARK  6 active torsions:
REMARK  status: ('A' for Active; 'I' for Inactive)
REMARK    1  A    between atoms: C_4  and  C_5 
REMARK    2  A    between atoms: C_14  and  C_15 
REMARK       I    between atoms: C_15  and  N_16 
REMARK    3  A    between atoms: N_16  and  C_17 
REMARK    4  A    between atoms: C_17  and  C_18 
REMARK    5  A    between atoms: C_18  and  N_19 
REMARK       I    between atoms: N_19  and  C_20 
REMARK    6  A    between atoms: C_20  and  C_21 
ROOT
HETATM    1  C   UNL     1      43.293 -16.840   3.475  1.00  0.00     0.069 A 
HETATM    2  N   UNL     1      43.088 -16.288   4.700  1.00  0.00    -0.230 NA
HETATM    3  C   UNL     1      42.868 -14.964   4.678  1.00  0.00     0.139 A 
HETATM    4  C   UNL     1      42.833 -14.122   3.575  1.00  0.00     0.027 A 
HETATM    5  C   UNL     1      43.057 -14.717   2.324  1.00  0.00     0.018 A 
HETATM    6  C   UNL     1      43.291 -16.096   2.290  1.00  0.00     0.033 A 
HETATM    7  N   UNL     1      42.634 -14.208   5.790  1.00  0.00    -0.349 N 
HETATM    8  H   UNL     1      42.604 -14.591   6.723  1.00  0.00     0.167 HD
HETATM    9  C   UNL     1      42.454 -12.895   5.434  1.00  0.00     0.108 A 
HETATM   10  C   UNL     1      42.573 -12.792   4.052  1.00  0.00     0.061 A 
ENDROOT
BRANCH  10  11
HETATM   11  C   UNL     1      42.460 -11.588   3.228  1.00  0.00     0.254 C 
HETATM   12  N   UNL     1      41.252 -11.414   2.589  1.00  0.00    -0.355 N 
HETATM   13  H   UNL     1      40.519 -12.098   2.694  1.00  0.00     0.162 HD
HETATM   14  O   UNL     1      43.379 -10.784   3.112  1.00  0.00    -0.268 OA
BRANCH  12  15
HETATM   15  C   UNL     1      40.998 -10.253   1.753  1.00  0.00     0.142 C 
BRANCH  15  16
HETATM   16  C   UNL     1      41.484 -10.447   0.311  1.00  0.00     0.142 C 
BRANCH  16  17
HETATM   17  N   UNL     1      40.502 -11.119  -0.521  1.00  0.00    -0.355 N 
HETATM   18  C   UNL     1      40.424 -12.494  -0.600  1.00  0.00     0.258 C 
HETATM   19  O   UNL     1      41.189 -13.211   0.040  1.00  0.00    -0.267 OA
HETATM   20  H   UNL     1      39.884 -10.563  -1.097  1.00  0.00     0.162 HD
BRANCH  18  21
HETATM   21  C   UNL     1      39.397 -13.029  -1.485  1.00  0.00     0.072 A 
HETATM   22  S   UNL     1      37.844 -12.318  -1.634  1.00  0.00    -0.097 SA
HETATM   23  C   UNL     1      37.341 -13.486  -2.778  1.00  0.00     0.050 A 
HETATM   24  C   UNL     1      38.331 -14.403  -3.048  1.00  0.00     0.009 A 
HETATM   25  C   UNL     1      39.515 -14.138  -2.305  1.00  0.00     0.025 A 
ENDBRANCH  18  21
ENDBRANCH  16  17
ENDBRANCH  15  16
ENDBRANCH  12  15
ENDBRANCH  10  11
BRANCH   1  26
HETATM   26  C   UNL     1      43.540 -18.302   3.478  1.00  0.00    -0.007 A 
HETATM   27  C   UNL     1      44.001 -18.980   4.621  1.00  0.00     0.014 A 
HETATM   28  C   UNL     1      44.219 -20.362   4.611  1.00  0.00     0.001 A 
HETATM   29  C   UNL     1      43.985 -21.097   3.452  1.00  0.00     0.000 A 
HETATM   30  C   UNL     1      43.538 -20.451   2.304  1.00  0.00     0.001 A 
HETATM   31  C   UNL     1      43.320 -19.069   2.319  1.00  0.00     0.014 A 
ENDBRANCH   1  26
TORSDOF 6
ENDMDL
MODEL 3
REMARK VINA RESULT:      -8.4      3.287      4.256
REMARK  6 active torsions:
REMARK  status: ('A' for Active; 'I' for Inactive)
REMARK    1  A    between atoms: C_4  and  C_5 
REMARK    2  A    between atoms: C_14  and  C_15 
REMARK       I    between atoms: C_15  and  N_16 
REMARK    3  A    between atoms: N_16  and  C_17 
REMARK    4  A    between atoms: C_17  and  C_18 
REMARK    5  A    between atoms: C_18  and  N_19 
REMARK       I    between atoms: N_19  and  C_20 
REMARK    6  A    between atoms: C_20  and  C_21 
ROOT
HETATM    1  C   UNL     1      43.361 -16.766   4.223  1.00  0.00     0.069 A 
HETATM    2  N   UNL     1      43.252 -15.952   3.140  1.00  0.00    -0.230 NA
HETATM    3  C   UNL     1      43.081 -14.655   3.441  1.00  0.00     0.139 A 
HETATM    4  C   UNL     1      43.001 -14.073   4.698  1.00  0.00     0.027 A 
HETATM    5  C   UNL     1      43.108 -14.938   5.798  1.00  0.00     0.018 A 
HETATM    6  C   UNL     1      43.288 -16.302   5.540  1.00  0.00     0.033 A 
HETATM    7  N   UNL     1      42.953 -13.663   2.512  1.00  0.00    -0.349 N 
HETATM    8  H   UNL     1      42.982 -13.831   1.516  1.00  0.00     0.167 HD
HETATM    9  C   UNL     1      42.786 -12.453   3.138  1.00  0.00     0.108 A 
HETATM   10  C   UNL     1      42.807 -12.662   4.512  1.00  0.00     0.061 A 
ENDROOT
BRANCH  10  11
HETATM   11  C   UNL     1      42.665 -11.665   5.574  1.00  0.00     0.254 C 
HETATM   12  N   UNL     1      43.838 -11.247   6.163  1.00  0.00    -0.355 N 
HETATM   13  H   UNL     1      44.720 -11.633   5.865  1.00  0.00     0.162 HD
HETATM   14  O   UNL     1      41.572 -11.226   5.920  1.00  0.00    -0.268 OA
BRANCH  12  15
HETATM   15  C   UNL     1      43.843 -10.248   7.218  1.00  0.00     0.142 C 
BRANCH  15  16
HETATM   16  C   UNL     1      44.107 -10.854   8.601  1.00  0.00     0.142 C 
BRANCH  16  17
HETATM   17  N   UNL     1      43.570 -10.040   9.677  1.00  0.00    -0.355 N 
HETATM   18  C   UNL     1      43.595 -10.453  10.993  1.00  0.00     0.258 C 
HETATM   19  O   UNL     1      44.081 -11.537  11.309  1.00  0.00    -0.267 OA
HETATM   20  H   UNL     1      43.121  -9.163   9.452  1.00  0.00     0.162 HD
BRANCH  18  21
HETATM   21  C   UNL     1      43.009  -9.539  11.964  1.00  0.00     0.072 A 
HETATM   22  S   UNL     1      41.509  -9.849  12.737  1.00  0.00    -0.097 SA
HETATM   23  C   UNL     1      41.587  -8.392  13.629  1.00  0.00     0.050 A 
HETATM   24  C   UNL     1      42.730  -7.677  13.352  1.00  0.00     0.009 A 
HETATM   25  C   UNL     1      43.550  -8.340  12.395  1.00  0.00     0.025 A 
ENDBRANCH  18  21
ENDBRANCH  16  17
ENDBRANCH  15  16
ENDBRANCH  12  15
ENDBRANCH  10  11
BRANCH   1  26
HETATM   26  C   UNL     1      43.549 -18.203   3.911  1.00  0.00    -0.007 A 
HETATM   27  C   UNL     1      43.377 -18.716   2.612  1.00  0.00     0.014 A 
HETATM   28  C   UNL     1      43.568 -20.073   2.332  1.00  0.00     0.001 A 
HETATM   29  C   UNL     1      43.931 -20.951   3.350  1.00  0.00     0.000 A 
HETATM   30  C   UNL     1      44.097 -20.475   4.646  1.00  0.00     0.001 A 
HETATM   31  C   UNL     1      43.906 -19.116   4.921  1.00  0.00     0.014 A 
ENDBRANCH   1  26
TORSDOF 6
ENDMDL
MODEL 4
REMARK VINA RESULT:      -8.3      2.595      4.407
REMARK  6 active torsions:
REMARK  status: ('A' for Active; 'I' for Inactive)
REMARK    1  A    between atoms: C_4  and  C_5 
REMARK    2  A    between atoms: C_14  and  C_15 
REMARK       I    between atoms: C_15  and  N_16 
REMARK    3  A    between atoms: N_16  and  C_17 
REMARK    4  A    between atoms: C_17  and  C_18 
REMARK    5  A    between atoms: C_18  and  N_19 
REMARK       I    between atoms: N_19  and  C_20 
REMARK    6  A    between atoms: C_20  and  C_21 
ROOT
HETATM    1  C   UNL     1      43.439 -16.741   3.908  1.00  0.00     0.069 A 
HETATM    2  N   UNL     1      43.466 -16.279   5.185  1.00  0.00    -0.230 NA
HETATM    3  C   UNL     1      43.316 -14.949   5.293  1.00  0.00     0.139 A 
HETATM    4  C   UNL     1      43.147 -14.023   4.274  1.00  0.00     0.027 A 
HETATM    5  C   UNL     1      43.132 -14.527   2.964  1.00  0.00     0.018 A 
HETATM    6  C   UNL     1      43.284 -15.907   2.795  1.00  0.00     0.033 A 
HETATM    7  N   UNL     1      43.306 -14.273   6.479  1.00  0.00    -0.349 N 
HETATM    8  H   UNL     1      43.408 -14.726   7.375  1.00  0.00     0.167 HD
HETATM    9  C   UNL     1      43.141 -12.930   6.251  1.00  0.00     0.108 A 
HETATM   10  C   UNL     1      43.039 -12.724   4.880  1.00  0.00     0.061 A 
ENDROOT
BRANCH  10  11
HETATM   11  C   UNL     1      42.857 -11.457   4.173  1.00  0.00     0.254 C 
HETATM   12  N   UNL     1      41.706 -10.762   4.477  1.00  0.00    -0.355 N 
HETATM   13  H   UNL     1      41.048 -11.139   5.141  1.00  0.00     0.162 HD
HETATM   14  O   UNL     1      43.674 -11.035   3.360  1.00  0.00    -0.268 OA
BRANCH  12  15
HETATM   15  C   UNL     1      41.409  -9.481   3.861  1.00  0.00     0.142 C 
BRANCH  15  16
HETATM   16  C   UNL     1      40.348  -9.590   2.758  1.00  0.00     0.142 C 
BRANCH  16  17
HETATM   17  N   UNL     1      40.376 -10.877   2.085  1.00  0.00    -0.355 N 
HETATM   18  C   UNL     1      39.629 -11.951   2.524  1.00  0.00     0.258 C 
HETATM   19  O   UNL     1      38.902 -11.858   3.510  1.00  0.00    -0.267 OA
HETATM   20  H   UNL     1      40.996 -11.005   1.297  1.00  0.00     0.162 HD
BRANCH  18  21
HETATM   21  C   UNL     1      39.766 -13.183   1.758  1.00  0.00     0.072 A 
HETATM   22  S   UNL     1      39.991 -13.194   0.058  1.00  0.00    -0.097 SA
HETATM   23  C   UNL     1      40.047 -14.903   0.005  1.00  0.00     0.050 A 
HETATM   24  C   UNL     1      39.899 -15.463   1.254  1.00  0.00     0.009 A 
HETATM   25  C   UNL     1      39.739 -14.471   2.263  1.00  0.00     0.025 A 
ENDBRANCH  18  21
ENDBRANCH  16  17
ENDBRANCH  15  16
ENDBRANCH  12  15
ENDBRANCH  10  11
BRANCH   1  26
HETATM   26  C   UNL     1      43.605 -18.207   3.767  1.00  0.00    -0.007 A 
HETATM   27  C   UNL     1      44.019 -19.020   4.839  1.00  0.00     0.014 A 
HETATM   28  C   UNL     1      44.161 -20.404   4.693  1.00  0.00     0.001 A 
HETATM   29  C   UNL     1      43.896 -21.007   3.466  1.00  0.00     0.000 A 
HETATM   30  C   UNL     1      43.495 -20.228   2.386  1.00  0.00     0.001 A 
HETATM   31  C   UNL     1      43.354 -18.844   2.537  1.00  0.00     0.014 A 
ENDBRANCH   1  26
TORSDOF 6
ENDMDL
MODEL 5
REMARK VINA RESULT:      -8.1      4.117      5.009
REMARK  6 active torsions:
REMARK  status: ('A' for Active; 'I' for Inactive)
REMARK    1  A    between atoms: C_4  and  C_5 
REMARK    2  A    between atoms: C_14  and  C_15 
REMARK       I    between atoms: C_15  and  N_16 
REMARK    3  A    between atoms: N_16  and  C_17 
REMARK    4  A    between atoms: C_17  and  C_18 
REMARK    5  A    between atoms: C_18  and  N_19 
REMARK       I    between atoms: N_19  and  C_20 
REMARK    6  A    between atoms: C_20  and  C_21 
ROOT
HETATM    1  C   UNL     1      43.625 -16.588   4.880  1.00  0.00     0.069 A 
HETATM    2  N   UNL     1      42.868 -15.702   4.181  1.00  0.00    -0.230 NA
HETATM    3  C   UNL     1      42.824 -14.471   4.716  1.00  0.00     0.139 A 
HETATM    4  C   UNL     1      43.445 -14.020   5.872  1.00  0.00     0.027 A 
HETATM    5  C   UNL     1      44.213 -14.959   6.579  1.00  0.00     0.018 A 
HETATM    6  C   UNL     1      44.292 -16.257   6.064  1.00  0.00     0.033 A 
HETATM    7  N   UNL     1      42.130 -13.426   4.178  1.00  0.00    -0.349 N 
HETATM    8  H   UNL     1      41.593 -13.499   3.326  1.00  0.00     0.167 HD
HETATM    9  C   UNL     1      42.281 -12.310   4.963  1.00  0.00     0.108 A 
HETATM   10  C   UNL     1      43.098 -12.636   6.040  1.00  0.00     0.061 A 
ENDROOT
BRANCH  10  11
HETATM   11  C   UNL     1      43.531 -11.766   7.134  1.00  0.00     0.254 C 
HETATM   12  N   UNL     1      42.712 -10.691   7.402  1.00  0.00    -0.355 N 
HETATM   13  H   UNL     1      41.881 -10.538   6.853  1.00  0.00     0.162 HD
HETATM   14  O   UNL     1      44.557 -11.977   7.772  1.00  0.00    -0.268 OA
BRANCH  12  15
HETATM   15  C   UNL     1      43.015  -9.757   8.473  1.00  0.00     0.142 C 
BRANCH  15  16
HETATM   16  C   UNL     1      41.758  -9.281   9.212  1.00  0.00     0.142 C 
BRANCH  16  17
HETATM   17  N   UNL     1      42.068  -8.610  10.462  1.00  0.00    -0.355 N 
HETATM   18  C   UNL     1      41.445  -8.941  11.647  1.00  0.00     0.258 C 
HETATM   19  O   UNL     1      40.596  -9.829  11.691  1.00  0.00    -0.267 OA
HETATM   20  H   UNL     1      42.728  -7.844  10.457  1.00  0.00     0.162 HD
BRANCH  18  21
HETATM   21  C   UNL     1      41.847  -8.176  12.820  1.00  0.00     0.072 A 
HETATM   22  S   UNL     1      40.714  -7.518  13.926  1.00  0.00    -0.097 SA
HETATM   23  C   UNL     1      41.949  -6.845  14.900  1.00  0.00     0.050 A 
HETATM   24  C   UNL     1      43.203  -7.112  14.400  1.00  0.00     0.009 A 
HETATM   25  C   UNL     1      43.143  -7.880  13.203  1.00  0.00     0.025 A 
ENDBRANCH  18  21
ENDBRANCH  16  17
ENDBRANCH  15  16
ENDBRANCH  12  15
ENDBRANCH  10  11
BRANCH   1  26
HETATM   26  C   UNL     1      43.683 -17.953   4.306  1.00  0.00    -0.007 A 
HETATM   27  C   UNL     1      44.032 -19.076   5.079  1.00  0.00     0.014 A 
HETATM   28  C   UNL     1      44.073 -20.359   4.524  1.00  0.00     0.001 A 
HETATM   29  C   UNL     1      43.770 -20.549   3.178  1.00  0.00     0.000 A 
HETATM   30  C   UNL     1      43.433 -19.456   2.387  1.00  0.00     0.001 A 
HETATM   31  C   UNL     1      43.392 -18.174   2.946  1.00  0.00     0.014 A 
ENDBRANCH   1  26
TORSDOF 6
ENDMDL
MODEL 6
REMARK VINA RESULT:      -8.0      1.951      2.235
REMARK  6 active torsions:
REMARK  status: ('A' for Active; 'I' for Inactive)
REMARK    1  A    between atoms: C_4  and  C_5 
REMARK    2  A    between atoms: C_14  and  C_15 
REMARK       I    between atoms: C_15  and  N_16 
REMARK    3  A    between atoms: N_16  and  C_17 
REMARK    4  A    between atoms: C_17  and  C_18 
REMARK    5  A    between atoms: C_18  and  N_19 
REMARK       I    between atoms: N_19  and  C_20 
REMARK    6  A    between atoms: C_20  and  C_21 
ROOT
HETATM    1  C   UNL     1      42.958 -16.786   2.802  1.00  0.00     0.069 A 
HETATM    2  N   UNL     1      42.328 -16.540   1.623  1.00  0.00    -0.230 NA
HETATM    3  C   UNL     1      41.981 -15.255   1.440  1.00  0.00     0.139 A 
HETATM    4  C   UNL     1      42.184 -14.185   2.300  1.00  0.00     0.027 A 
HETATM    5  C   UNL     1      42.827 -14.470   3.515  1.00  0.00     0.018 A 
HETATM    6  C   UNL     1      43.212 -15.793   3.755  1.00  0.00     0.033 A 
HETATM    7  N   UNL     1      41.345 -14.784   0.328  1.00  0.00    -0.349 N 
HETATM    8  H   UNL     1      41.088 -15.371  -0.453  1.00  0.00     0.167 HD
HETATM    9  C   UNL     1      41.125 -13.435   0.450  1.00  0.00     0.108 A 
HETATM   10  C   UNL     1      41.633 -13.015   1.675  1.00  0.00     0.061 A 
ENDROOT
BRANCH  10  11
HETATM   11  C   UNL     1      41.623 -11.663   2.235  1.00  0.00     0.254 C 
HETATM   12  N   UNL     1      40.626 -11.402   3.149  1.00  0.00    -0.355 N 
HETATM   13  H   UNL     1      39.955 -12.117   3.385  1.00  0.00     0.162 HD
HETATM   14  O   UNL     1      42.448 -10.814   1.913  1.00  0.00    -0.268 OA
BRANCH  12  15
HETATM   15  C   UNL     1      40.510 -10.106   3.794  1.00  0.00     0.142 C 
BRANCH  15  16
HETATM   16  C   UNL     1      40.631 -10.196   5.321  1.00  0.00     0.142 C 
BRANCH  16  17
HETATM   17  N   UNL     1      41.219 -11.449   5.759  1.00  0.00    -0.355 N 
HETATM   18  C   UNL     1      40.453 -12.562   6.036  1.00  0.00     0.258 C 
HETATM   19  O   UNL     1      39.229 -12.536   5.917  1.00  0.00    -0.267 OA
HETATM   20  H   UNL     1      42.217 -11.496   5.912  1.00  0.00     0.162 HD
BRANCH  18  21
HETATM   21  C   UNL     1      41.176 -13.747   6.478  1.00  0.00     0.072 A 
HETATM   22  S   UNL     1      40.477 -15.312   6.474  1.00  0.00    -0.097 SA
HETATM   23  C   UNL     1      41.902 -16.028   7.092  1.00  0.00     0.050 A 
HETATM   24  C   UNL     1      42.897 -15.101   7.300  1.00  0.00     0.009 A 
HETATM   25  C   UNL     1      42.479 -13.787   6.944  1.00  0.00     0.025 A 
ENDBRANCH  18  21
ENDBRANCH  16  17
ENDBRANCH  15  16
ENDBRANCH  12  15
ENDBRANCH  10  11
BRANCH   1  26
HETATM   26  C   UNL     1      43.348 -18.198   3.022  1.00  0.00    -0.007 A 
HETATM   27  C   UNL     1      43.928 -18.635   4.227  1.00  0.00     0.014 A 
HETATM   28  C   UNL     1      44.282 -19.974   4.423  1.00  0.00     0.001 A 
HETATM   29  C   UNL     1      44.066 -20.909   3.413  1.00  0.00     0.000 A 
HETATM   30  C   UNL     1      43.503 -20.503   2.207  1.00  0.00     0.001 A 
HETATM   31  C   UNL     1      43.150 -19.163   2.016  1.00  0.00     0.014 A 
ENDBRANCH   1  26
TORSDOF 6
ENDMDL
MODEL 7
REMARK VINA RESULT:      -7.8      3.892      9.373
REMARK  6 active torsions:
REMARK  status: ('A' for Active; 'I' for Inactive)
REMARK    1  A    between atoms: C_4  and  C_5 
REMARK    2  A    between atoms: C_14  and  C_15 
REMARK       I    between atoms: C_15  and  N_16 
REMARK    3  A    between atoms: N_16  and  C_17 
REMARK    4  A    between atoms: C_17  and  C_18 
REMARK    5  A    between atoms: C_18  and  N_19 
REMARK       I    between atoms: N_19  and  C_20 
REMARK    6  A    between atoms: C_20  and  C_21 
ROOT
HETATM    1  C   UNL     1      43.289  -9.037   9.516  1.00  0.00     0.069 A 
HETATM    2  N   UNL     1      44.545  -9.530   9.355  1.00  0.00    -0.230 NA
HETATM    3  C   UNL     1      44.729 -10.206   8.209  1.00  0.00     0.139 A 
HETATM    4  C   UNL     1      43.804 -10.452   7.204  1.00  0.00     0.027 A 
HETATM    5  C   UNL     1      42.513  -9.939   7.402  1.00  0.00     0.018 A 
HETATM    6  C   UNL     1      42.266  -9.226   8.580  1.00  0.00     0.033 A 
HETATM    7  N   UNL     1      45.911 -10.780   7.840  1.00  0.00    -0.349 N 
HETATM    8  H   UNL     1      46.747 -10.737   8.404  1.00  0.00     0.167 HD
HETATM    9  C   UNL     1      45.771 -11.398   6.622  1.00  0.00     0.108 A 
HETATM   10  C   UNL     1      44.463 -11.221   6.185  1.00  0.00     0.061 A 
ENDROOT
BRANCH  10  11
HETATM   11  C   UNL     1      43.857 -11.706   4.945  1.00  0.00     0.254 C 
HETATM   12  N   UNL     1      42.875 -12.660   5.093  1.00  0.00    -0.355 N 
HETATM   13  H   UNL     1      42.622 -12.989   6.012  1.00  0.00     0.162 HD
HETATM   14  O   UNL     1      44.200 -11.293   3.842  1.00  0.00    -0.268 OA
BRANCH  12  15
HETATM   15  C   UNL     1      42.178 -13.215   3.945  1.00  0.00     0.142 C 
BRANCH  15  16
HETATM   16  C   UNL     1      41.240 -14.367   4.327  1.00  0.00     0.142 C 
BRANCH  16  17
HETATM   17  N   UNL     1      41.703 -15.650   3.826  1.00  0.00    -0.355 N 
HETATM   18  C   UNL     1      42.809 -16.286   4.349  1.00  0.00     0.258 C 
HETATM   19  O   UNL     1      43.451 -15.788   5.271  1.00  0.00    -0.267 OA
HETATM   20  H   UNL     1      41.227 -16.070   3.038  1.00  0.00     0.162 HD
BRANCH  18  21
HETATM   21  C   UNL     1      43.164 -17.561   3.740  1.00  0.00     0.072 A 
HETATM   22  S   UNL     1      44.099 -18.746   4.555  1.00  0.00    -0.097 SA
HETATM   23  C   UNL     1      44.036 -19.815   3.222  1.00  0.00     0.050 A 
HETATM   24  C   UNL     1      43.318 -19.289   2.171  1.00  0.00     0.009 A 
HETATM   25  C   UNL     1      42.815 -17.992   2.472  1.00  0.00     0.025 A 
ENDBRANCH  18  21
ENDBRANCH  16  17
ENDBRANCH  15  16
ENDBRANCH  12  15
ENDBRANCH  10  11
BRANCH   1  26
HETATM   26  C   UNL     1      43.065  -8.289  10.776  1.00  0.00    -0.007 A 
HETATM   27  C   UNL     1      42.458  -7.020  10.796  1.00  0.00     0.014 A 
HETATM   28  C   UNL     1      42.245  -6.332  11.995  1.00  0.00     0.001 A 
HETATM   29  C   UNL     1      42.641  -6.898  13.204  1.00  0.00     0.000 A 
HETATM   30  C   UNL     1      43.253  -8.147  13.214  1.00  0.00     0.001 A 
HETATM   31  C   UNL     1      43.463  -8.832  12.013  1.00  0.00     0.014 A 
ENDBRANCH   1  26
TORSDOF 6
ENDMDL
MODEL 8
REMARK VINA RESULT:      -7.8      4.108      6.049
REMARK  6 active torsions:
REMARK  status: ('A' for Active; 'I' for Inactive)
REMARK    1  A    between atoms: C_4  and  C_5 
REMARK    2  A    between atoms: C_14  and  C_15 
REMARK       I    between atoms: C_15  and  N_16 
REMARK    3  A    between atoms: N_16  and  C_17 
REMARK    4  A    between atoms: C_17  and  C_18 
REMARK    5  A    between atoms: C_18  and  N_19 
REMARK       I    between atoms: N_19  and  C_20 
REMARK    6  A    between atoms: C_20  and  C_21 
ROOT
HETATM    1  C   UNL     1      42.705 -17.041   2.637  1.00  0.00     0.069 A 
HETATM    2  N   UNL     1      41.471 -16.686   3.081  1.00  0.00    -0.230 NA
HETATM    3  C   UNL     1      41.012 -15.532   2.569  1.00  0.00     0.139 A 
HETATM    4  C   UNL     1      41.643 -14.687   1.667  1.00  0.00     0.027 A 
HETATM    5  C   UNL     1      42.920 -15.074   1.233  1.00  0.00     0.018 A 
HETATM    6  C   UNL     1      43.446 -16.269   1.735  1.00  0.00     0.033 A 
HETATM    7  N   UNL     1      39.797 -14.990   2.872  1.00  0.00    -0.349 N 
HETATM    8  H   UNL     1      39.141 -15.421   3.508  1.00  0.00     0.167 HD
HETATM    9  C   UNL     1      39.628 -13.809   2.193  1.00  0.00     0.108 A 
HETATM   10  C   UNL     1      40.764 -13.577   1.425  1.00  0.00     0.061 A 
ENDROOT
BRANCH  10  11
HETATM   11  C   UNL     1      41.033 -12.443   0.540  1.00  0.00     0.254 C 
HETATM   12  N   UNL     1      41.075 -12.731  -0.806  1.00  0.00    -0.355 N 
HETATM   13  H   UNL     1      40.936 -13.677  -1.126  1.00  0.00     0.162 HD
HETATM   14  O   UNL     1      41.211 -11.306   0.967  1.00  0.00    -0.268 OA
BRANCH  12  15
HETATM   15  C   UNL     1      41.316 -11.696  -1.796  1.00  0.00     0.142 C 
BRANCH  15  16
HETATM   16  C   UNL     1      40.131 -11.508  -2.752  1.00  0.00     0.142 C 
BRANCH  16  17
HETATM   17  N   UNL     1      39.023 -10.803  -2.133  1.00  0.00    -0.355 N 
HETATM   18  C   UNL     1      37.963 -11.468  -1.552  1.00  0.00     0.258 C 
HETATM   19  O   UNL     1      37.918 -12.696  -1.533  1.00  0.00    -0.267 OA
HETATM   20  H   UNL     1      39.002  -9.793  -2.169  1.00  0.00     0.162 HD
BRANCH  18  21
HETATM   21  C   UNL     1      36.916 -10.631  -0.981  1.00  0.00     0.072 A 
HETATM   22  S   UNL     1      36.811 -10.300   0.698  1.00  0.00    -0.097 SA
HETATM   23  C   UNL     1      35.416  -9.332   0.493  1.00  0.00     0.050 A 
HETATM   24  C   UNL     1      35.031  -9.256  -0.826  1.00  0.00     0.009 A 
HETATM   25  C   UNL     1      35.897 -10.003  -1.675  1.00  0.00     0.025 A 
ENDBRANCH  18  21
ENDBRANCH  16  17
ENDBRANCH  15  16
ENDBRANCH  12  15
ENDBRANCH  10  11
BRANCH   1  26
HETATM   26  C   UNL     1      43.230 -18.311   3.192  1.00  0.00    -0.007 A 
HETATM   27  C   UNL     1      43.709 -18.410   4.512  1.00  0.00     0.014 A 
HETATM   28  C   UNL     1      44.192 -19.618   5.024  1.00  0.00     0.001 A 
HETATM   29  C   UNL     1      44.212 -20.758   4.224  1.00  0.00     0.000 A 
HETATM   30  C   UNL     1      43.755 -20.687   2.912  1.00  0.00     0.001 A 
HETATM   31  C   UNL     1      43.272 -19.476   2.404  1.00  0.00     0.014 A 
ENDBRANCH   1  26
TORSDOF 6
ENDMDL
MODEL 9
REMARK VINA RESULT:      -7.6      3.393      3.795
REMARK  6 active torsions:
REMARK  status: ('A' for Active; 'I' for Inactive)
REMARK    1  A    between atoms: C_4  and  C_5 
REMARK    2  A    between atoms: C_14  and  C_15 
REMARK       I    between atoms: C_15  and  N_16 
REMARK    3  A    between atoms: N_16  and  C_17 
REMARK    4  A    between atoms: C_17  and  C_18 
REMARK    5  A    between atoms: C_18  and  N_19 
REMARK       I    between atoms: N_19  and  C_20 
REMARK    6  A    between atoms: C_20  and  C_21 
ROOT
HETATM    1  C   UNL     1      42.402 -16.390   3.539  1.00  0.00     0.069 A 
HETATM    2  N   UNL     1      41.155 -16.205   3.031  1.00  0.00    -0.230 NA
HETATM    3  C   UNL     1      40.683 -14.955   3.171  1.00  0.00     0.139 A 
HETATM    4  C   UNL     1      41.308 -13.868   3.764  1.00  0.00     0.027 A 
HETATM    5  C   UNL     1      42.591 -14.091   4.289  1.00  0.00     0.018 A 
HETATM    6  C   UNL     1      43.131 -15.375   4.169  1.00  0.00     0.033 A 
HETATM    7  N   UNL     1      39.459 -14.545   2.730  1.00  0.00    -0.349 N 
HETATM    8  H   UNL     1      38.808 -15.155   2.256  1.00  0.00     0.167 HD
HETATM    9  C   UNL     1      39.273 -13.219   3.030  1.00  0.00     0.108 A 
HETATM   10  C   UNL     1      40.408 -12.751   3.682  1.00  0.00     0.061 A 
ENDROOT
BRANCH  10  11
HETATM   11  C   UNL     1      40.660 -11.402   4.190  1.00  0.00     0.254 C 
HETATM   12  N   UNL     1      40.751 -11.286   5.560  1.00  0.00    -0.355 N 
HETATM   13  H   UNL     1      40.635 -12.098   6.146  1.00  0.00     0.162 HD
HETATM   14  O   UNL     1      40.783 -10.434   3.447  1.00  0.00    -0.268 OA
BRANCH  12  15
HETATM   15  C   UNL     1      41.015 -10.008   6.196  1.00  0.00     0.142 C 
BRANCH  15  16
HETATM   16  C   UNL     1      39.905  -9.593   7.169  1.00  0.00     0.142 C 
BRANCH  16  17
HETATM   17  N   UNL     1      40.312  -9.706   8.559  1.00  0.00    -0.355 N 
HETATM   18  C   UNL     1      39.496  -9.307   9.597  1.00  0.00     0.258 C 
HETATM   19  O   UNL     1      38.380  -8.839   9.383  1.00  0.00    -0.267 OA
HETATM   20  H   UNL     1      41.240 -10.044   8.772  1.00  0.00     0.162 HD
BRANCH  18  21
HETATM   21  C   UNL     1      40.040  -9.467  10.939  1.00  0.00     0.072 A 
HETATM   22  S   UNL     1      41.392  -8.574  11.500  1.00  0.00    -0.097 SA
HETATM   23  C   UNL     1      41.343  -9.328  13.034  1.00  0.00     0.050 A 
HETATM   24  C   UNL     1      40.319 -10.243  13.127  1.00  0.00     0.009 A 
HETATM   25  C   UNL     1      39.567 -10.320  11.921  1.00  0.00     0.025 A 
ENDBRANCH  18  21
ENDBRANCH  16  17
ENDBRANCH  15  16
ENDBRANCH  12  15
ENDBRANCH  10  11
BRANCH   1  26
HETATM   26  C   UNL     1      42.940 -17.764   3.396  1.00  0.00    -0.007 A 
HETATM   27  C   UNL     1      42.713 -18.540   2.244  1.00  0.00     0.014 A 
HETATM   28  C   UNL     1      43.236 -19.832   2.121  1.00  0.00     0.001 A 
HETATM   29  C   UNL     1      43.996 -20.379   3.151  1.00  0.00     0.000 A 
HETATM   30  C   UNL     1      44.228 -19.638   4.305  1.00  0.00     0.001 A 
HETATM   31  C   UNL     1      43.704 -18.347   4.425  1.00  0.00     0.014 A 
ENDBRANCH   1  26
TORSDOF 6
ENDMDL
MODEL 10
REMARK VINA RESULT:      -7.5      2.417      2.903
REMARK  6 active torsions:
REMARK  status: ('A' for Active; 'I' for Inactive)
REMARK    1  A    between atoms: C_4  and  C_5 
REMARK    2  A    between atoms: C_14  and  C_15 
REMARK       I    between atoms: C_15  and  N_16 
REMARK    3  A    between atoms: N_16  and  C_17 
REMARK    4  A    between atoms: C_17  and  C_18 
REMARK    5  A    between atoms: C_18  and  N_19 
REMARK       I    between atoms: N_19  and  C_20 
REMARK    6  A    between atoms: C_20  and  C_21 
ROOT
HETATM    1  C   UNL     1      42.092 -15.944   3.975  1.00  0.00     0.069 A 
HETATM    2  N   UNL     1      41.069 -15.602   3.147  1.00  0.00    -0.230 NA
HETATM    3  C   UNL     1      40.469 -14.443   3.462  1.00  0.00     0.139 A 
HETATM    4  C   UNL     1      40.767 -13.584   4.511  1.00  0.00     0.027 A 
HETATM    5  C   UNL     1      41.821 -13.968   5.355  1.00  0.00     0.018 A 
HETATM    6  C   UNL     1      42.481 -15.168   5.071  1.00  0.00     0.033 A 
HETATM    7  N   UNL     1      39.426 -13.906   2.765  1.00  0.00    -0.349 N 
HETATM    8  H   UNL     1      39.023 -14.342   1.948  1.00  0.00     0.167 HD
HETATM    9  C   UNL     1      39.036 -12.723   3.342  1.00  0.00     0.108 A 
HETATM   10  C   UNL     1      39.849 -12.482   4.444  1.00  0.00     0.061 A 
ENDROOT
BRANCH  10  11
HETATM   11  C   UNL     1      39.801 -11.344   5.363  1.00  0.00     0.254 C 
HETATM   12  N   UNL     1      40.073 -10.114   4.806  1.00  0.00    -0.355 N 
HETATM   13  H   UNL     1      40.298 -10.040   3.826  1.00  0.00     0.162 HD
HETATM   14  O   UNL     1      39.536 -11.473   6.554  1.00  0.00    -0.268 OA
BRANCH  12  15
HETATM   15  C   UNL     1      40.043  -8.898   5.600  1.00  0.00     0.142 C 
BRANCH  15  16
HETATM   16  C   UNL     1      41.435  -8.284   5.790  1.00  0.00     0.142 C 
BRANCH  16  17
HETATM   17  N   UNL     1      42.141  -8.846   6.928  1.00  0.00    -0.355 N 
HETATM   18  C   UNL     1      42.864  -8.062   7.803  1.00  0.00     0.258 C 
HETATM   19  O   UNL     1      42.938  -6.844   7.652  1.00  0.00    -0.267 OA
HETATM   20  H   UNL     1      42.141  -9.848   7.059  1.00  0.00     0.162 HD
BRANCH  18  21
HETATM   21  C   UNL     1      43.531  -8.763   8.892  1.00  0.00     0.072 A 
HETATM   22  S   UNL     1      42.675  -9.449  10.210  1.00  0.00    -0.097 SA
HETATM   23  C   UNL     1      44.114 -10.017  10.941  1.00  0.00     0.050 A 
HETATM   24  C   UNL     1      45.229  -9.695  10.202  1.00  0.00     0.009 A 
HETATM   25  C   UNL     1      44.893  -8.975   9.021  1.00  0.00     0.025 A 
ENDBRANCH  18  21
ENDBRANCH  16  17
ENDBRANCH  15  16
ENDBRANCH  12  15
ENDBRANCH  10  11
BRANCH   1  26
HETATM   26  C   UNL     1      42.766 -17.222   3.644  1.00  0.00    -0.007 A 
HETATM   27  C   UNL     1      43.703 -17.819   4.507  1.00  0.00     0.014 A 
HETATM   28  C   UNL     1      44.322 -19.031   4.185  1.00  0.00     0.001 A 
HETATM   29  C   UNL     1      44.021 -19.673   2.986  1.00  0.00     0.000 A 
HETATM   30  C   UNL     1      43.107 -19.100   2.109  1.00  0.00     0.001 A 
HETATM   31  C   UNL     1      42.488 -17.888   2.435  1.00  0.00     0.014 A 
ENDBRANCH   1  26
TORSDOF 6
ENDMDL
