MODEL 1
REMARK VINA RESULT:      -8.3      0.000      0.000
REMARK  6 active torsions:
REMARK  status: ('A' for Active; 'I' for Inactive)
REMARK    1  A    between atoms: O_2  and  C_3 
REMARK    2  A    between atoms: C_4  and  O_5 
REMARK    3  A    between atoms: O_5  and  C_6 
REMARK    4  A    between atoms: C_9  and  N_10 
REMARK       I    between atoms: N_10  and  C_11 
REMARK    5  A    between atoms: C_11  and  C_12 
REMARK    6  A    between atoms: C_12  and  C_13 
ROOT
HETATM    1  C   UNL     1      42.138 -16.424   2.260  1.00  0.00     0.103 A 
HETATM    2  C   UNL     1      42.702 -15.772   3.369  1.00  0.00     0.109 A 
HETATM    3  C   UNL     1      43.613 -16.437   4.198  1.00  0.00     0.041 A 
HETATM    4  C   UNL     1      43.924 -17.775   3.956  1.00  0.00     0.025 A 
HETATM    5  C   UNL     1      43.341 -18.442   2.874  1.00  0.00     0.047 A 
HETATM    6  C   UNL     1      43.660 -19.818   2.623  1.00  0.00     0.099 C 
HETATM    7  N   UNL     1      43.914 -20.932   2.415  1.00  0.00    -0.191 NA
HETATM    8  C   UNL     1      42.451 -17.767   2.026  1.00  0.00     0.062 A 
ENDROOT
BRANCH   1   9
HETATM    9  O   UNL     1      41.286 -15.677   1.489  1.00  0.00    -0.353 OA
HETATM   10  C   UNL     1      39.892 -15.816   1.737  1.00  0.00     0.210 C 
ENDBRANCH   1   9
BRANCH   2  11
HETATM   11  O   UNL     1      42.423 -14.434   3.537  1.00  0.00    -0.308 OA
BRANCH  11  12
HETATM   12  C   UNL     1      42.911 -13.781   4.644  1.00  0.00     0.076 A 
HETATM   13  C   UNL     1      43.550 -12.568   4.397  1.00  0.00     0.039 A 
HETATM   14  C   UNL     1      44.035 -11.791   5.454  1.00  0.00     0.032 A 
HETATM   15  C   UNL     1      43.880 -12.217   6.774  1.00  0.00     0.034 A 
HETATM   16  C   UNL     1      43.232 -13.436   7.017  1.00  0.00     0.032 A 
HETATM   17  C   UNL     1      42.734 -14.209   5.959  1.00  0.00     0.039 A 
BRANCH  15  18
HETATM   18  N   UNL     1      44.336 -11.489   7.894  1.00  0.00    -0.327 N 
HETATM   19  C   UNL     1      43.730 -10.390   8.486  1.00  0.00     0.227 C 
HETATM   20  O   UNL     1      42.646  -9.909   8.158  1.00  0.00    -0.273 OA
HETATM   21  H   UNL     1      45.175 -11.844   8.338  1.00  0.00     0.169 HD
BRANCH  19  22
HETATM   22  C   UNL     1      44.530  -9.853   9.677  1.00  0.00     0.159 C 
BRANCH  22  23
HETATM   23  C   UNL     1      43.711  -9.644  10.916  1.00  0.00     0.017 A 
HETATM   24  N   UNL     1      42.704 -10.503  11.302  1.00  0.00    -0.369 N 
HETATM   25  H   UNL     1      42.408 -11.314  10.764  1.00  0.00     0.165 HD
HETATM   26  C   UNL     1      42.151 -10.074  12.477  1.00  0.00     0.088 A 
HETATM   27  C   UNL     1      42.808  -8.929  12.863  1.00  0.00     0.019 A 
HETATM   28  C   UNL     1      43.792  -8.658  11.882  1.00  0.00     0.027 A 
ENDBRANCH  22  23
ENDBRANCH  19  22
ENDBRANCH  15  18
ENDBRANCH  11  12
ENDBRANCH   2  11
TORSDOF 6
ENDMDL
MODEL 2
REMARK VINA RESULT:      -8.0      2.195      9.842
REMARK  6 active torsions:
REMARK  status: ('A' for Active; 'I' for Inactive)
REMARK    1  A    between atoms: O_2  and  C_3 
REMARK    2  A    between atoms: C_4  and  O_5 
REMARK    3  A    between atoms: O_5  and  C_6 
REMARK    4  A    between atoms: C_9  and  N_10 
REMARK       I    between atoms: N_10  and  C_11 
REMARK    5  A    between atoms: C_11  and  C_12 
REMARK    6  A    between atoms: C_12  and  C_13 
ROOT
HETATM    1  C   UNL     1      43.680  -8.087   9.819  1.00  0.00     0.103 A 
HETATM    2  C   UNL     1      44.250  -9.328   9.490  1.00  0.00     0.109 A 
HETATM    3  C   UNL     1      44.208 -10.394  10.397  1.00  0.00     0.041 A 
HETATM    4  C   UNL     1      43.646 -10.209  11.659  1.00  0.00     0.025 A 
HETATM    5  C   UNL     1      43.107  -8.967  12.009  1.00  0.00     0.047 A 
HETATM    6  C   UNL     1      42.528  -8.776  13.307  1.00  0.00     0.099 C 
HETATM    7  N   UNL     1      42.059  -8.615  14.357  1.00  0.00    -0.191 NA
HETATM    8  C   UNL     1      43.122  -7.908  11.089  1.00  0.00     0.062 A 
ENDROOT
BRANCH   1   9
HETATM    9  O   UNL     1      43.739  -7.119   8.852  1.00  0.00    -0.353 OA
HETATM   10  C   UNL     1      42.511  -6.711   8.262  1.00  0.00     0.210 C 
ENDBRANCH   1   9
BRANCH   2  11
HETATM   11  O   UNL     1      44.736  -9.492   8.211  1.00  0.00    -0.308 OA
BRANCH  11  12
HETATM   12  C   UNL     1      44.200 -10.473   7.411  1.00  0.00     0.076 A 
HETATM   13  C   UNL     1      45.032 -11.560   7.149  1.00  0.00     0.039 A 
HETATM   14  C   UNL     1      44.571 -12.643   6.394  1.00  0.00     0.032 A 
HETATM   15  C   UNL     1      43.267 -12.654   5.896  1.00  0.00     0.034 A 
HETATM   16  C   UNL     1      42.434 -11.560   6.166  1.00  0.00     0.032 A 
HETATM   17  C   UNL     1      42.891 -10.480   6.934  1.00  0.00     0.039 A 
BRANCH  15  18
HETATM   18  N   UNL     1      42.726 -13.710   5.132  1.00  0.00    -0.327 N 
HETATM   19  C   UNL     1      42.534 -15.025   5.533  1.00  0.00     0.227 C 
HETATM   20  O   UNL     1      42.750 -15.468   6.660  1.00  0.00    -0.273 OA
HETATM   21  H   UNL     1      42.401 -13.461   4.205  1.00  0.00     0.169 HD
BRANCH  19  22
HETATM   22  C   UNL     1      41.936 -15.892   4.420  1.00  0.00     0.159 C 
BRANCH  22  23
HETATM   23  C   UNL     1      42.826 -17.016   3.979  1.00  0.00     0.017 A 
HETATM   24  N   UNL     1      43.711 -17.647   4.826  1.00  0.00    -0.369 N 
HETATM   25  H   UNL     1      43.863 -17.379   5.796  1.00  0.00     0.165 HD
HETATM   26  C   UNL     1      44.368 -18.642   4.156  1.00  0.00     0.088 A 
HETATM   27  C   UNL     1      43.901 -18.663   2.863  1.00  0.00     0.019 A 
HETATM   28  C   UNL     1      42.929 -17.641   2.749  1.00  0.00     0.027 A 
ENDBRANCH  22  23
ENDBRANCH  19  22
ENDBRANCH  15  18
ENDBRANCH  11  12
ENDBRANCH   2  11
TORSDOF 6
ENDMDL
MODEL 3
REMARK VINA RESULT:      -8.0      1.544      2.044
REMARK  6 active torsions:
REMARK  status: ('A' for Active; 'I' for Inactive)
REMARK    1  A    between atoms: O_2  and  C_3 
REMARK    2  A    between atoms: C_4  and  O_5 
REMARK    3  A    between atoms: O_5  and  C_6 
REMARK    4  A    between atoms: C_9  and  N_10 
REMARK       I    between atoms: N_10  and  C_11 
REMARK    5  A    between atoms: C_11  and  C_12 
REMARK    6  A    between atoms: C_12  and  C_13 
ROOT
HETATM    1  C   UNL     1      41.693 -15.490   3.890  1.00  0.00     0.103 A 
HETATM    2  C   UNL     1      42.113 -14.500   2.986  1.00  0.00     0.109 A 
HETATM    3  C   UNL     1      42.939 -14.826   1.905  1.00  0.00     0.041 A 
HETATM    4  C   UNL     1      43.397 -16.134   1.751  1.00  0.00     0.025 A 
HETATM    5  C   UNL     1      43.013 -17.120   2.665  1.00  0.00     0.047 A 
HETATM    6  C   UNL     1      43.482 -18.466   2.507  1.00  0.00     0.099 C 
HETATM    7  N   UNL     1      43.860 -19.557   2.385  1.00  0.00    -0.191 NA
HETATM    8  C   UNL     1      42.160 -16.799   3.731  1.00  0.00     0.062 A 
ENDROOT
BRANCH   1   9
HETATM    9  O   UNL     1      40.857 -15.079   4.893  1.00  0.00    -0.353 OA
HETATM   10  C   UNL     1      40.603 -15.998   5.949  1.00  0.00     0.210 C 
ENDBRANCH   1   9
BRANCH   2  11
HETATM   11  O   UNL     1      41.587 -13.234   3.133  1.00  0.00    -0.308 OA
BRANCH  11  12
HETATM   12  C   UNL     1      42.076 -12.416   4.123  1.00  0.00     0.076 A 
HETATM   13  C   UNL     1      41.122 -11.851   4.966  1.00  0.00     0.039 A 
HETATM   14  C   UNL     1      41.511 -11.048   6.043  1.00  0.00     0.032 A 
HETATM   15  C   UNL     1      42.863 -10.806   6.294  1.00  0.00     0.034 A 
HETATM   16  C   UNL     1      43.818 -11.381   5.445  1.00  0.00     0.032 A 
HETATM   17  C   UNL     1      43.430 -12.197   4.373  1.00  0.00     0.039 A 
BRANCH  15  18
HETATM   18  N   UNL     1      43.335 -10.013   7.361  1.00  0.00    -0.327 N 
HETATM   19  C   UNL     1      43.964 -10.450   8.519  1.00  0.00     0.227 C 
HETATM   20  O   UNL     1      44.270 -11.615   8.770  1.00  0.00    -0.273 OA
HETATM   21  H   UNL     1      43.244  -9.012   7.240  1.00  0.00     0.169 HD
BRANCH  19  22
HETATM   22  C   UNL     1      44.321  -9.295   9.461  1.00  0.00     0.159 C 
BRANCH  22  23
HETATM   23  C   UNL     1      43.619  -9.351  10.785  1.00  0.00     0.017 A 
HETATM   24  N   UNL     1      42.868 -10.433  11.190  1.00  0.00    -0.369 N 
HETATM   25  H   UNL     1      42.693 -11.254  10.615  1.00  0.00     0.165 HD
HETATM   26  C   UNL     1      42.370 -10.212  12.445  1.00  0.00     0.088 A 
HETATM   27  C   UNL     1      42.809  -8.977  12.863  1.00  0.00     0.019 A 
HETATM   28  C   UNL     1      43.597  -8.434  11.821  1.00  0.00     0.027 A 
ENDBRANCH  22  23
ENDBRANCH  19  22
ENDBRANCH  15  18
ENDBRANCH  11  12
ENDBRANCH   2  11
TORSDOF 6
ENDMDL
MODEL 4
REMARK VINA RESULT:      -7.6      5.547      8.972
REMARK  6 active torsions:
REMARK  status: ('A' for Active; 'I' for Inactive)
REMARK    1  A    between atoms: O_2  and  C_3 
REMARK    2  A    between atoms: C_4  and  O_5 
REMARK    3  A    between atoms: O_5  and  C_6 
REMARK    4  A    between atoms: C_9  and  N_10 
REMARK       I    between atoms: N_10  and  C_11 
REMARK    5  A    between atoms: C_11  and  C_12 
REMARK    6  A    between atoms: C_12  and  C_13 
ROOT
HETATM    1  C   UNL     1      43.527 -16.792   4.628  1.00  0.00     0.103 A 
HETATM    2  C   UNL     1      42.999 -16.152   3.495  1.00  0.00     0.109 A 
HETATM    3  C   UNL     1      42.715 -16.879   2.333  1.00  0.00     0.041 A 
HETATM    4  C   UNL     1      43.008 -18.241   2.278  1.00  0.00     0.025 A 
HETATM    5  C   UNL     1      43.566 -18.881   3.390  1.00  0.00     0.047 A 
HETATM    6  C   UNL     1      43.868 -20.282   3.335  1.00  0.00     0.099 C 
HETATM    7  N   UNL     1      44.115 -21.416   3.296  1.00  0.00    -0.191 NA
HETATM    8  C   UNL     1      43.823 -18.158   4.564  1.00  0.00     0.062 A 
ENDROOT
BRANCH   1   9
HETATM    9  O   UNL     1      43.736 -16.002   5.727  1.00  0.00    -0.353 OA
HETATM   10  C   UNL     1      44.667 -16.466   6.697  1.00  0.00     0.210 C 
ENDBRANCH   1   9
BRANCH   2  11
HETATM   11  O   UNL     1      42.661 -14.821   3.610  1.00  0.00    -0.308 OA
BRANCH  11  12
HETATM   12  C   UNL     1      41.708 -14.296   2.769  1.00  0.00     0.076 A 
HETATM   13  C   UNL     1      42.195 -13.616   1.655  1.00  0.00     0.039 A 
HETATM   14  C   UNL     1      41.316 -13.091   0.702  1.00  0.00     0.032 A 
HETATM   15  C   UNL     1      39.936 -13.247   0.850  1.00  0.00     0.034 A 
HETATM   16  C   UNL     1      39.453 -13.936   1.972  1.00  0.00     0.032 A 
HETATM   17  C   UNL     1      40.334 -14.474   2.920  1.00  0.00     0.039 A 
BRANCH  15  18
HETATM   18  N   UNL     1      38.986 -12.752  -0.068  1.00  0.00    -0.327 N 
HETATM   19  C   UNL     1      38.638 -13.300  -1.295  1.00  0.00     0.227 C 
HETATM   20  O   UNL     1      39.066 -14.359  -1.752  1.00  0.00    -0.273 OA
HETATM   21  H   UNL     1      38.471 -11.932   0.230  1.00  0.00     0.169 HD
BRANCH  19  22
HETATM   22  C   UNL     1      37.575 -12.471  -2.023  1.00  0.00     0.159 C 
BRANCH  22  23
HETATM   23  C   UNL     1      38.132 -11.315  -2.800  1.00  0.00     0.017 A 
HETATM   24  N   UNL     1      37.337 -10.413  -3.474  1.00  0.00    -0.369 N 
HETATM   25  H   UNL     1      36.323 -10.480  -3.536  1.00  0.00     0.165 HD
HETATM   26  C   UNL     1      38.116  -9.459  -4.069  1.00  0.00     0.088 A 
HETATM   27  C   UNL     1      39.430  -9.739  -3.773  1.00  0.00     0.019 A 
HETATM   28  C   UNL     1      39.442 -10.906  -2.973  1.00  0.00     0.027 A 
ENDBRANCH  22  23
ENDBRANCH  19  22
ENDBRANCH  15  18
ENDBRANCH  11  12
ENDBRANCH   2  11
TORSDOF 6
ENDMDL
MODEL 5
REMARK VINA RESULT:      -7.5      2.745      3.999
REMARK  6 active torsions:
REMARK  status: ('A' for Active; 'I' for Inactive)
REMARK    1  A    between atoms: O_2  and  C_3 
REMARK    2  A    between atoms: C_4  and  O_5 
REMARK    3  A    between atoms: O_5  and  C_6 
REMARK    4  A    between atoms: C_9  and  N_10 
REMARK       I    between atoms: N_10  and  C_11 
REMARK    5  A    between atoms: C_11  and  C_12 
REMARK    6  A    between atoms: C_12  and  C_13 
ROOT
HETATM    1  C   UNL     1      40.554 -15.380   2.104  1.00  0.00     0.103 A 
HETATM    2  C   UNL     1      40.224 -14.269   2.899  1.00  0.00     0.109 A 
HETATM    3  C   UNL     1      39.791 -13.075   2.310  1.00  0.00     0.041 A 
HETATM    4  C   UNL     1      39.737 -12.966   0.921  1.00  0.00     0.025 A 
HETATM    5  C   UNL     1      40.096 -14.055   0.121  1.00  0.00     0.047 A 
HETATM    6  C   UNL     1      40.040 -13.944  -1.308  1.00  0.00     0.099 C 
HETATM    7  N   UNL     1      39.998 -13.860  -2.465  1.00  0.00    -0.191 NA
HETATM    8  C   UNL     1      40.501 -15.261   0.711  1.00  0.00     0.062 A 
ENDROOT
BRANCH   1   9
HETATM    9  O   UNL     1      40.931 -16.513   2.775  1.00  0.00    -0.353 OA
HETATM   10  C   UNL     1      42.252 -16.992   2.554  1.00  0.00     0.210 C 
ENDBRANCH   1   9
BRANCH   2  11
HETATM   11  O   UNL     1      40.227 -14.436   4.267  1.00  0.00    -0.308 OA
BRANCH  11  12
HETATM   12  C   UNL     1      41.145 -13.749   5.024  1.00  0.00     0.076 A 
HETATM   13  C   UNL     1      42.330 -14.429   5.301  1.00  0.00     0.039 A 
HETATM   14  C   UNL     1      43.358 -13.805   6.015  1.00  0.00     0.032 A 
HETATM   15  C   UNL     1      43.215 -12.488   6.455  1.00  0.00     0.034 A 
HETATM   16  C   UNL     1      42.023 -11.808   6.170  1.00  0.00     0.032 A 
HETATM   17  C   UNL     1      40.998 -12.428   5.444  1.00  0.00     0.039 A 
BRANCH  15  18
HETATM   18  N   UNL     1      44.206 -11.788   7.176  1.00  0.00    -0.327 N 
HETATM   19  C   UNL     1      45.348 -11.185   6.665  1.00  0.00     0.227 C 
HETATM   20  O   UNL     1      45.645 -11.110   5.473  1.00  0.00    -0.273 OA
HETATM   21  H   UNL     1      44.035 -11.678   8.168  1.00  0.00     0.169 HD
BRANCH  19  22
HETATM   22  C   UNL     1      46.200 -10.531   7.758  1.00  0.00     0.159 C 
BRANCH  22  23
HETATM   23  C   UNL     1      45.401  -9.832   8.817  1.00  0.00     0.017 A 
HETATM   24  N   UNL     1      44.577  -8.761   8.549  1.00  0.00    -0.369 N 
HETATM   25  H   UNL     1      44.477  -8.333   7.630  1.00  0.00     0.165 HD
HETATM   26  C   UNL     1      43.961  -8.347   9.698  1.00  0.00     0.088 A 
HETATM   27  C   UNL     1      44.383  -9.161  10.722  1.00  0.00     0.019 A 
HETATM   28  C   UNL     1      45.288 -10.099  10.170  1.00  0.00     0.027 A 
ENDBRANCH  22  23
ENDBRANCH  19  22
ENDBRANCH  15  18
ENDBRANCH  11  12
ENDBRANCH   2  11
TORSDOF 6
ENDMDL
MODEL 6
REMARK VINA RESULT:      -7.3      5.081      7.501
REMARK  6 active torsions:
REMARK  status: ('A' for Active; 'I' for Inactive)
REMARK    1  A    between atoms: O_2  and  C_3 
REMARK    2  A    between atoms: C_4  and  O_5 
REMARK    3  A    between atoms: O_5  and  C_6 
REMARK    4  A    between atoms: C_9  and  N_10 
REMARK       I    between atoms: N_10  and  C_11 
REMARK    5  A    between atoms: C_11  and  C_12 
REMARK    6  A    between atoms: C_12  and  C_13 
ROOT
HETATM    1  C   UNL     1      43.814 -17.068   4.813  1.00  0.00     0.103 A 
HETATM    2  C   UNL     1      43.109 -16.090   4.091  1.00  0.00     0.109 A 
HETATM    3  C   UNL     1      42.573 -16.382   2.831  1.00  0.00     0.041 A 
HETATM    4  C   UNL     1      42.785 -17.637   2.261  1.00  0.00     0.025 A 
HETATM    5  C   UNL     1      43.514 -18.606   2.958  1.00  0.00     0.047 A 
HETATM    6  C   UNL     1      43.732 -19.898   2.373  1.00  0.00     0.099 C 
HETATM    7  N   UNL     1      43.912 -20.944   1.904  1.00  0.00    -0.191 NA
HETATM    8  C   UNL     1      44.026 -18.323   4.232  1.00  0.00     0.062 A 
ENDROOT
BRANCH   1   9
HETATM    9  O   UNL     1      44.268 -16.696   6.050  1.00  0.00    -0.353 OA
HETATM   10  C   UNL     1      43.600 -17.241   7.181  1.00  0.00     0.210 C 
ENDBRANCH   1   9
BRANCH   2  11
HETATM   11  O   UNL     1      42.864 -14.885   4.714  1.00  0.00    -0.308 OA
BRANCH  11  12
HETATM   12  C   UNL     1      42.316 -13.855   3.988  1.00  0.00     0.076 A 
HETATM   13  C   UNL     1      43.224 -12.949   3.445  1.00  0.00     0.039 A 
HETATM   14  C   UNL     1      42.781 -11.894   2.641  1.00  0.00     0.032 A 
HETATM   15  C   UNL     1      41.421 -11.737   2.365  1.00  0.00     0.034 A 
HETATM   16  C   UNL     1      40.513 -12.654   2.912  1.00  0.00     0.032 A 
HETATM   17  C   UNL     1      40.957 -13.719   3.706  1.00  0.00     0.039 A 
BRANCH  15  18
HETATM   18  N   UNL     1      40.896 -10.703   1.560  1.00  0.00    -0.327 N 
HETATM   19  C   UNL     1      40.619 -10.755   0.201  1.00  0.00     0.227 C 
HETATM   20  O   UNL     1      40.731 -11.750  -0.514  1.00  0.00    -0.273 OA
HETATM   21  H   UNL     1      40.653  -9.848   2.045  1.00  0.00     0.169 HD
BRANCH  19  22
HETATM   22  C   UNL     1      40.071  -9.428  -0.334  1.00  0.00     0.159 C 
BRANCH  22  23
HETATM   23  C   UNL     1      41.089  -8.597  -1.057  1.00  0.00     0.017 A 
HETATM   24  N   UNL     1      40.761  -7.465  -1.772  1.00  0.00    -0.369 N 
HETATM   25  H   UNL     1      39.809  -7.127  -1.901  1.00  0.00     0.165 HD
HETATM   26  C   UNL     1      41.890  -6.904  -2.301  1.00  0.00     0.088 A 
HETATM   27  C   UNL     1      42.964  -7.674  -1.922  1.00  0.00     0.019 A 
HETATM   28  C   UNL     1      42.462  -8.740  -1.138  1.00  0.00     0.027 A 
ENDBRANCH  22  23
ENDBRANCH  19  22
ENDBRANCH  15  18
ENDBRANCH  11  12
ENDBRANCH   2  11
TORSDOF 6
ENDMDL
MODEL 7
REMARK VINA RESULT:      -7.2     16.691     18.480
REMARK  6 active torsions:
REMARK  status: ('A' for Active; 'I' for Inactive)
REMARK    1  A    between atoms: O_2  and  C_3 
REMARK    2  A    between atoms: C_4  and  O_5 
REMARK    3  A    between atoms: O_5  and  C_6 
REMARK    4  A    between atoms: C_9  and  N_10 
REMARK       I    between atoms: N_10  and  C_11 
REMARK    5  A    between atoms: C_11  and  C_12 
REMARK    6  A    between atoms: C_12  and  C_13 
ROOT
HETATM    1  C   UNL     1      44.343 -29.848  -1.868  1.00  0.00     0.103 A 
HETATM    2  C   UNL     1      45.064 -28.643  -1.905  1.00  0.00     0.109 A 
HETATM    3  C   UNL     1      45.361 -28.027  -3.126  1.00  0.00     0.041 A 
HETATM    4  C   UNL     1      44.988 -28.641  -4.321  1.00  0.00     0.025 A 
HETATM    5  C   UNL     1      44.300 -29.859  -4.296  1.00  0.00     0.047 A 
HETATM    6  C   UNL     1      43.915 -30.491  -5.525  1.00  0.00     0.099 C 
HETATM    7  N   UNL     1      43.602 -31.007  -6.516  1.00  0.00    -0.191 NA
HETATM    8  C   UNL     1      43.977 -30.460  -3.071  1.00  0.00     0.062 A 
ENDROOT
BRANCH   1   9
HETATM    9  O   UNL     1      44.071 -30.353  -0.624  1.00  0.00    -0.353 OA
HETATM   10  C   UNL     1      44.635 -31.617  -0.295  1.00  0.00     0.210 C 
ENDBRANCH   1   9
BRANCH   2  11
HETATM   11  O   UNL     1      45.356 -28.034  -0.703  1.00  0.00    -0.308 OA
BRANCH  11  12
HETATM   12  C   UNL     1      46.491 -28.407  -0.022  1.00  0.00     0.076 A 
HETATM   13  C   UNL     1      46.430 -28.284   1.365  1.00  0.00     0.039 A 
HETATM   14  C   UNL     1      47.506 -28.689   2.161  1.00  0.00     0.032 A 
HETATM   15  C   UNL     1      48.655 -29.228   1.579  1.00  0.00     0.034 A 
HETATM   16  C   UNL     1      48.707 -29.353   0.184  1.00  0.00     0.032 A 
HETATM   17  C   UNL     1      47.625 -28.961  -0.614  1.00  0.00     0.039 A 
BRANCH  15  18
HETATM   18  N   UNL     1      49.778 -29.664   2.314  1.00  0.00    -0.327 N 
HETATM   19  C   UNL     1      49.794 -30.160   3.611  1.00  0.00     0.227 C 
HETATM   20  O   UNL     1      48.803 -30.361   4.311  1.00  0.00    -0.273 OA
HETATM   21  H   UNL     1      50.661 -29.654   1.816  1.00  0.00     0.169 HD
BRANCH  19  22
HETATM   22  C   UNL     1      51.208 -30.516   4.081  1.00  0.00     0.159 C 
BRANCH  22  23
HETATM   23  C   UNL     1      51.242 -31.417   5.280  1.00  0.00     0.017 A 
HETATM   24  N   UNL     1      50.307 -32.404   5.501  1.00  0.00    -0.369 N 
HETATM   25  H   UNL     1      49.503 -32.575   4.901  1.00  0.00     0.165 HD
HETATM   26  C   UNL     1      50.603 -33.077   6.655  1.00  0.00     0.088 A 
HETATM   27  C   UNL     1      51.746 -32.526   7.186  1.00  0.00     0.019 A 
HETATM   28  C   UNL     1      52.151 -31.481   6.321  1.00  0.00     0.027 A 
ENDBRANCH  22  23
ENDBRANCH  19  22
ENDBRANCH  15  18
ENDBRANCH  11  12
ENDBRANCH   2  11
TORSDOF 6
ENDMDL
MODEL 8
REMARK VINA RESULT:      -7.2      2.846      9.737
REMARK  6 active torsions:
REMARK  status: ('A' for Active; 'I' for Inactive)
REMARK    1  A    between atoms: O_2  and  C_3 
REMARK    2  A    between atoms: C_4  and  O_5 
REMARK    3  A    between atoms: O_5  and  C_6 
REMARK    4  A    between atoms: C_9  and  N_10 
REMARK       I    between atoms: N_10  and  C_11 
REMARK    5  A    between atoms: C_11  and  C_12 
REMARK    6  A    between atoms: C_12  and  C_13 
ROOT
HETATM    1  C   UNL     1      43.337  -8.220   9.632  1.00  0.00     0.103 A 
HETATM    2  C   UNL     1      44.029  -9.405   9.329  1.00  0.00     0.109 A 
HETATM    3  C   UNL     1      44.183 -10.406  10.295  1.00  0.00     0.041 A 
HETATM    4  C   UNL     1      43.695 -10.206  11.586  1.00  0.00     0.025 A 
HETATM    5  C   UNL     1      43.034  -9.015  11.906  1.00  0.00     0.047 A 
HETATM    6  C   UNL     1      42.531  -8.809  13.233  1.00  0.00     0.099 C 
HETATM    7  N   UNL     1      42.122  -8.636  14.306  1.00  0.00    -0.191 NA
HETATM    8  C   UNL     1      42.854  -8.025  10.930  1.00  0.00     0.062 A 
ENDROOT
BRANCH   1   9
HETATM    9  O   UNL     1      43.208  -7.317   8.609  1.00  0.00    -0.353 OA
HETATM   10  C   UNL     1      42.335  -6.214   8.819  1.00  0.00     0.210 C 
ENDBRANCH   1   9
BRANCH   2  11
HETATM   11  O   UNL     1      44.438  -9.593   8.027  1.00  0.00    -0.308 OA
BRANCH  11  12
HETATM   12  C   UNL     1      43.923 -10.646   7.309  1.00  0.00     0.076 A 
HETATM   13  C   UNL     1      44.735 -11.775   7.225  1.00  0.00     0.039 A 
HETATM   14  C   UNL     1      44.288 -12.925   6.567  1.00  0.00     0.032 A 
HETATM   15  C   UNL     1      43.017 -12.962   5.990  1.00  0.00     0.034 A 
HETATM   16  C   UNL     1      42.204 -11.824   6.081  1.00  0.00     0.032 A 
HETATM   17  C   UNL     1      42.646 -10.676   6.752  1.00  0.00     0.039 A 
BRANCH  15  18
HETATM   18  N   UNL     1      42.492 -14.085   5.315  1.00  0.00    -0.327 N 
HETATM   19  C   UNL     1      41.363 -14.817   5.654  1.00  0.00     0.227 C 
HETATM   20  O   UNL     1      40.593 -14.556   6.578  1.00  0.00    -0.273 OA
HETATM   21  H   UNL     1      42.971 -14.350   4.463  1.00  0.00     0.169 HD
BRANCH  19  22
HETATM   22  C   UNL     1      41.112 -15.982   4.691  1.00  0.00     0.159 C 
BRANCH  22  23
HETATM   23  C   UNL     1      40.696 -15.555   3.315  1.00  0.00     0.017 A 
HETATM   24  N   UNL     1      39.908 -14.450   3.080  1.00  0.00    -0.369 N 
HETATM   25  H   UNL     1      39.513 -13.864   3.812  1.00  0.00     0.165 HD
HETATM   26  C   UNL     1      39.712 -14.294   1.735  1.00  0.00     0.088 A 
HETATM   27  C   UNL     1      40.385 -15.305   1.089  1.00  0.00     0.019 A 
HETATM   28  C   UNL     1      41.006 -16.099   2.082  1.00  0.00     0.027 A 
ENDBRANCH  22  23
ENDBRANCH  19  22
ENDBRANCH  15  18
ENDBRANCH  11  12
ENDBRANCH   2  11
TORSDOF 6
ENDMDL
MODEL 9
REMARK VINA RESULT:      -7.1      2.273     10.136
REMARK  6 active torsions:
REMARK  status: ('A' for Active; 'I' for Inactive)
REMARK    1  A    between atoms: O_2  and  C_3 
REMARK    2  A    between atoms: C_4  and  O_5 
REMARK    3  A    between atoms: O_5  and  C_6 
REMARK    4  A    between atoms: C_9  and  N_10 
REMARK       I    between atoms: N_10  and  C_11 
REMARK    5  A    between atoms: C_11  and  C_12 
REMARK    6  A    between atoms: C_12  and  C_13 
ROOT
HETATM    1  C   UNL     1      43.599  -9.206  10.492  1.00  0.00     0.103 A 
HETATM    2  C   UNL     1      44.051  -8.633   9.291  1.00  0.00     0.109 A 
HETATM    3  C   UNL     1      43.797  -7.287   9.004  1.00  0.00     0.041 A 
HETATM    4  C   UNL     1      43.042  -6.519   9.889  1.00  0.00     0.025 A 
HETATM    5  C   UNL     1      42.559  -7.089  11.071  1.00  0.00     0.047 A 
HETATM    6  C   UNL     1      41.783  -6.300  11.983  1.00  0.00     0.099 C 
HETATM    7  N   UNL     1      41.153  -5.666  12.725  1.00  0.00    -0.191 NA
HETATM    8  C   UNL     1      42.839  -8.430  11.373  1.00  0.00     0.062 A 
ENDROOT
BRANCH   1   9
HETATM    9  O   UNL     1      43.929 -10.519  10.698  1.00  0.00    -0.353 OA
HETATM   10  C   UNL     1      43.620 -11.078  11.969  1.00  0.00     0.210 C 
ENDBRANCH   1   9
BRANCH   2  11
HETATM   11  O   UNL     1      44.849  -9.405   8.474  1.00  0.00    -0.308 OA
BRANCH  11  12
HETATM   12  C   UNL     1      44.259 -10.296   7.609  1.00  0.00     0.076 A 
HETATM   13  C   UNL     1      44.952 -11.487   7.404  1.00  0.00     0.039 A 
HETATM   14  C   UNL     1      44.416 -12.489   6.589  1.00  0.00     0.032 A 
HETATM   15  C   UNL     1      43.175 -12.314   5.973  1.00  0.00     0.034 A 
HETATM   16  C   UNL     1      42.482 -11.114   6.187  1.00  0.00     0.032 A 
HETATM   17  C   UNL     1      43.011 -10.115   7.014  1.00  0.00     0.039 A 
BRANCH  15  18
HETATM   18  N   UNL     1      42.566 -13.278   5.142  1.00  0.00    -0.327 N 
HETATM   19  C   UNL     1      42.781 -13.473   3.784  1.00  0.00     0.227 C 
HETATM   20  O   UNL     1      43.600 -12.865   3.096  1.00  0.00    -0.273 OA
HETATM   21  H   UNL     1      41.940 -13.925   5.604  1.00  0.00     0.169 HD
BRANCH  19  22
HETATM   22  C   UNL     1      41.924 -14.608   3.216  1.00  0.00     0.159 C 
BRANCH  22  23
HETATM   23  C   UNL     1      42.620 -15.936   3.177  1.00  0.00     0.017 A 
HETATM   24  N   UNL     1      43.057 -16.586   4.311  1.00  0.00    -0.369 N 
HETATM   25  H   UNL     1      42.983 -16.205   5.252  1.00  0.00     0.165 HD
HETATM   26  C   UNL     1      43.631 -17.780   3.971  1.00  0.00     0.088 A 
HETATM   27  C   UNL     1      43.561 -17.912   2.604  1.00  0.00     0.019 A 
HETATM   28  C   UNL     1      42.923 -16.752   2.102  1.00  0.00     0.027 A 
ENDBRANCH  22  23
ENDBRANCH  19  22
ENDBRANCH  15  18
ENDBRANCH  11  12
ENDBRANCH   2  11
TORSDOF 6
ENDMDL
MODEL 10
REMARK VINA RESULT:      -7.1     16.637     21.525
REMARK  6 active torsions:
REMARK  status: ('A' for Active; 'I' for Inactive)
REMARK    1  A    between atoms: O_2  and  C_3 
REMARK    2  A    between atoms: C_4  and  O_5 
REMARK    3  A    between atoms: O_5  and  C_6 
REMARK    4  A    between atoms: C_9  and  N_10 
REMARK       I    between atoms: N_10  and  C_11 
REMARK    5  A    between atoms: C_11  and  C_12 
REMARK    6  A    between atoms: C_12  and  C_13 
ROOT
HETATM    1  C   UNL     1      44.870 -29.476   1.169  1.00  0.00     0.103 A 
HETATM    2  C   UNL     1      45.057 -28.797  -0.047  1.00  0.00     0.109 A 
HETATM    3  C   UNL     1      46.251 -28.114  -0.306  1.00  0.00     0.041 A 
HETATM    4  C   UNL     1      47.245 -28.059   0.671  1.00  0.00     0.025 A 
HETATM    5  C   UNL     1      47.054 -28.702   1.898  1.00  0.00     0.047 A 
HETATM    6  C   UNL     1      48.075 -28.647   2.903  1.00  0.00     0.099 C 
HETATM    7  N   UNL     1      48.898 -28.605   3.721  1.00  0.00    -0.191 NA
HETATM    8  C   UNL     1      45.870 -29.412   2.146  1.00  0.00     0.062 A 
ENDROOT
BRANCH   1   9
HETATM    9  O   UNL     1      43.683 -30.144   1.312  1.00  0.00    -0.353 OA
HETATM   10  C   UNL     1      42.757 -29.632   2.263  1.00  0.00     0.210 C 
ENDBRANCH   1   9
BRANCH   2  11
HETATM   11  O   UNL     1      44.082 -28.930  -1.012  1.00  0.00    -0.308 OA
BRANCH  11  12
HETATM   12  C   UNL     1      44.434 -29.372  -2.265  1.00  0.00     0.076 A 
HETATM   13  C   UNL     1      44.540 -30.754  -2.409  1.00  0.00     0.039 A 
HETATM   14  C   UNL     1      44.837 -31.318  -3.654  1.00  0.00     0.032 A 
HETATM   15  C   UNL     1      45.025 -30.505  -4.773  1.00  0.00     0.034 A 
HETATM   16  C   UNL     1      44.914 -29.115  -4.621  1.00  0.00     0.032 A 
HETATM   17  C   UNL     1      44.603 -28.550  -3.377  1.00  0.00     0.039 A 
BRANCH  15  18
HETATM   18  N   UNL     1      45.322 -30.996  -6.062  1.00  0.00    -0.327 N 
HETATM   19  C   UNL     1      44.423 -31.457  -7.013  1.00  0.00     0.227 C 
HETATM   20  O   UNL     1      43.197 -31.448  -6.902  1.00  0.00    -0.273 OA
HETATM   21  H   UNL     1      46.298 -30.962  -6.333  1.00  0.00     0.169 HD
BRANCH  19  22
HETATM   22  C   UNL     1      45.119 -31.929  -8.294  1.00  0.00     0.159 C 
BRANCH  22  23
HETATM   23  C   UNL     1      44.260 -32.790  -9.172  1.00  0.00     0.017 A 
HETATM   24  N   UNL     1      43.643 -32.319 -10.310  1.00  0.00    -0.369 N 
HETATM   25  H   UNL     1      43.682 -31.351 -10.622  1.00  0.00     0.165 HD
HETATM   26  C   UNL     1      42.949 -33.330 -10.917  1.00  0.00     0.088 A 
HETATM   27  C   UNL     1      43.123 -34.471 -10.170  1.00  0.00     0.019 A 
HETATM   28  C   UNL     1      43.950 -34.134  -9.071  1.00  0.00     0.027 A 
ENDBRANCH  22  23
ENDBRANCH  19  22
ENDBRANCH  15  18
ENDBRANCH  11  12
ENDBRANCH   2  11
TORSDOF 6
ENDMDL
