MODEL 1
REMARK VINA RESULT:      -7.4      0.000      0.000
REMARK  7 active torsions:
REMARK  status: ('A' for Active; 'I' for Inactive)
REMARK    1  A    between atoms: C_6  and  C_7 
REMARK    2  A    between atoms: C_7  and  S_8 
REMARK    3  A    between atoms: S_8  and  C_9 
REMARK    4  A    between atoms: N_10  and  C_11 
REMARK    5  A    between atoms: C_14  and  C_15 
REMARK    6  A    between atoms: C_15  and  O_16 
REMARK    7  A    between atoms: C_20  and  N_21 
ROOT
HETATM    1  C   UNL     1      43.413 -20.403   2.185  1.00  0.00     0.001 A 
HETATM    2  C   UNL     1      43.262 -19.019   2.129  1.00  0.00     0.017 A 
HETATM    3  C   UNL     1      43.561 -18.215   3.256  1.00  0.00     0.033 A 
HETATM    4  C   UNL     1      44.006 -18.810   4.440  1.00  0.00     0.072 A 
HETATM    5  N   UNL     1      44.287 -18.104   5.541  1.00  0.00    -0.232 NA
HETATM    6  C   UNL     1      44.110 -16.770   5.490  1.00  0.00     0.138 A 
HETATM    7  N   UNL     1      43.686 -16.099   4.402  1.00  0.00    -0.220 NA
HETATM    8  C   UNL     1      43.440 -16.823   3.304  1.00  0.00     0.115 A 
HETATM    9  C   UNL     1      44.153 -20.192   4.470  1.00  0.00     0.032 A 
HETATM   10  C   UNL     1      43.864 -20.991   3.359  1.00  0.00     0.002 A 
ENDROOT
BRANCH   6  11
HETATM   11  C   UNL     1      44.358 -15.984   6.755  1.00  0.00     0.163 C 
BRANCH  11  12
HETATM   12  S   UNL     1      42.877 -15.086   7.324  1.00  0.00    -0.082 SA
BRANCH  12  13
HETATM   13  C   UNL     1      43.205 -13.520   6.667  1.00  0.00     0.192 A 
HETATM   14  N   UNL     1      42.522 -12.883   5.656  1.00  0.00    -0.305 N 
HETATM   15  C   UNL     1      43.182 -11.683   5.476  1.00  0.00     0.154 A 
HETATM   16  N   UNL     1      44.171 -11.596   6.346  1.00  0.00    -0.132 NA
HETATM   17  N   UNL     1      44.184 -12.747   7.086  1.00  0.00    -0.123 NA
BRANCH  14  18
HETATM   18  C   UNL     1      41.340 -13.266   4.897  1.00  0.00     0.094 A 
HETATM   19  C   UNL     1      40.470 -14.460   5.235  1.00  0.00     0.028 A 
HETATM   20  C   UNL     1      39.918 -13.083   5.393  1.00  0.00     0.028 A 
ENDBRANCH  14  18
BRANCH  15  21
HETATM   21  C   UNL     1      42.825 -10.641   4.481  1.00  0.00     0.244 C 
BRANCH  21  22
HETATM   22  O   UNL     1      43.537 -10.900   3.273  1.00  0.00    -0.393 OA
HETATM   23  H   UNL     1      42.997 -11.532   2.758  1.00  0.00     0.209 HD
ENDBRANCH  21  22
ENDBRANCH  15  21
ENDBRANCH  12  13
ENDBRANCH  11  12
ENDBRANCH   6  11
BRANCH   8  24
HETATM   24  N   UNL     1      43.025 -16.079   2.192  1.00  0.00    -0.286 NA
HETATM   25  H   UNL     1      42.125 -15.671   2.433  1.00  0.00     0.125 HD
HETATM   26  H   UNL     1      43.705 -15.363   1.962  1.00  0.00     0.125 HD
ENDBRANCH   8  24
TORSDOF 7
ENDMDL
MODEL 2
REMARK VINA RESULT:      -7.4      3.872      5.282
REMARK  7 active torsions:
REMARK  status: ('A' for Active; 'I' for Inactive)
REMARK    1  A    between atoms: C_6  and  C_7 
REMARK    2  A    between atoms: C_7  and  S_8 
REMARK    3  A    between atoms: S_8  and  C_9 
REMARK    4  A    between atoms: N_10  and  C_11 
REMARK    5  A    between atoms: C_14  and  C_15 
REMARK    6  A    between atoms: C_15  and  O_16 
REMARK    7  A    between atoms: C_20  and  N_21 
ROOT
HETATM    1  C   UNL     1      44.060 -20.580   4.000  1.00  0.00     0.001 A 
HETATM    2  C   UNL     1      44.152 -19.406   4.744  1.00  0.00     0.017 A 
HETATM    3  C   UNL     1      43.765 -18.163   4.183  1.00  0.00     0.033 A 
HETATM    4  C   UNL     1      43.291 -18.109   2.869  1.00  0.00     0.072 A 
HETATM    5  N   UNL     1      42.928 -16.964   2.280  1.00  0.00    -0.232 NA
HETATM    6  C   UNL     1      43.048 -15.828   2.994  1.00  0.00     0.138 A 
HETATM    7  N   UNL     1      43.493 -15.770   4.263  1.00  0.00    -0.220 NA
HETATM    8  C   UNL     1      43.823 -16.932   4.842  1.00  0.00     0.115 A 
HETATM    9  C   UNL     1      43.203 -19.295   2.148  1.00  0.00     0.032 A 
HETATM   10  C   UNL     1      43.580 -20.524   2.699  1.00  0.00     0.002 A 
ENDROOT
BRANCH   6  11
HETATM   11  C   UNL     1      42.705 -14.530   2.303  1.00  0.00     0.163 C 
BRANCH  11  12
HETATM   12  S   UNL     1      40.939 -14.104   2.449  1.00  0.00    -0.082 SA
BRANCH  12  13
HETATM   13  C   UNL     1      40.475 -14.173   0.784  1.00  0.00     0.192 A 
HETATM   14  N   UNL     1      40.709 -13.221  -0.183  1.00  0.00    -0.305 N 
HETATM   15  C   UNL     1      40.122 -13.722  -1.329  1.00  0.00     0.154 A 
HETATM   16  N   UNL     1      39.606 -14.909  -1.070  1.00  0.00    -0.132 NA
HETATM   17  N   UNL     1      39.825 -15.185   0.251  1.00  0.00    -0.123 NA
BRANCH  14  18
HETATM   18  C   UNL     1      41.425 -11.955  -0.141  1.00  0.00     0.094 A 
HETATM   19  C   UNL     1      40.854 -10.645  -0.647  1.00  0.00     0.028 A 
HETATM   20  C   UNL     1      41.093 -10.825   0.814  1.00  0.00     0.028 A 
ENDBRANCH  14  18
BRANCH  15  21
HETATM   21  C   UNL     1      40.096 -13.050  -2.652  1.00  0.00     0.244 C 
BRANCH  21  22
HETATM   22  O   UNL     1      41.262 -13.430  -3.380  1.00  0.00    -0.393 OA
HETATM   23  H   UNL     1      41.695 -14.142  -2.867  1.00  0.00     0.209 HD
ENDBRANCH  21  22
ENDBRANCH  15  21
ENDBRANCH  12  13
ENDBRANCH  11  12
ENDBRANCH   6  11
BRANCH   8  24
HETATM   24  N   UNL     1      44.257 -16.824   6.169  1.00  0.00    -0.286 NA
HETATM   25  H   UNL     1      43.575 -17.318   6.740  1.00  0.00     0.125 HD
HETATM   26  H   UNL     1      45.184 -17.217   6.279  1.00  0.00     0.125 HD
ENDBRANCH   8  24
TORSDOF 7
ENDMDL
MODEL 3
REMARK VINA RESULT:      -7.3      1.850      2.544
REMARK  7 active torsions:
REMARK  status: ('A' for Active; 'I' for Inactive)
REMARK    1  A    between atoms: C_6  and  C_7 
REMARK    2  A    between atoms: C_7  and  S_8 
REMARK    3  A    between atoms: S_8  and  C_9 
REMARK    4  A    between atoms: N_10  and  C_11 
REMARK    5  A    between atoms: C_14  and  C_15 
REMARK    6  A    between atoms: C_15  and  O_16 
REMARK    7  A    between atoms: C_20  and  N_21 
ROOT
HETATM    1  C   UNL     1      43.792 -20.547   2.755  1.00  0.00     0.001 A 
HETATM    2  C   UNL     1      43.615 -19.191   2.487  1.00  0.00     0.017 A 
HETATM    3  C   UNL     1      43.608 -18.242   3.539  1.00  0.00     0.033 A 
HETATM    4  C   UNL     1      43.773 -18.666   4.861  1.00  0.00     0.072 A 
HETATM    5  N   UNL     1      43.757 -17.818   5.897  1.00  0.00    -0.232 NA
HETATM    6  C   UNL     1      43.556 -16.513   5.634  1.00  0.00     0.138 A 
HETATM    7  N   UNL     1      43.385 -16.002   4.400  1.00  0.00    -0.220 NA
HETATM    8  C   UNL     1      43.434 -16.864   3.377  1.00  0.00     0.115 A 
HETATM    9  C   UNL     1      43.952 -20.023   5.103  1.00  0.00     0.032 A 
HETATM   10  C   UNL     1      43.964 -20.963   4.068  1.00  0.00     0.002 A 
ENDROOT
BRANCH   6  11
HETATM   11  C   UNL     1      43.467 -15.570   6.810  1.00  0.00     0.163 C 
BRANCH  11  12
HETATM   12  S   UNL     1      43.577 -13.819   6.313  1.00  0.00    -0.082 SA
BRANCH  12  13
HETATM   13  C   UNL     1      41.954 -13.558   5.774  1.00  0.00     0.192 A 
HETATM   14  N   UNL     1      41.554 -13.037   4.564  1.00  0.00    -0.305 N 
HETATM   15  C   UNL     1      40.175 -13.000   4.628  1.00  0.00     0.154 A 
HETATM   16  N   UNL     1      39.779 -13.499   5.784  1.00  0.00    -0.132 NA
HETATM   17  N   UNL     1      40.894 -13.843   6.498  1.00  0.00    -0.123 NA
BRANCH  14  18
HETATM   18  C   UNL     1      42.311 -12.618   3.394  1.00  0.00     0.094 A 
HETATM   19  C   UNL     1      42.360 -11.190   2.887  1.00  0.00     0.028 A 
HETATM   20  C   UNL     1      43.592 -11.808   3.458  1.00  0.00     0.028 A 
ENDBRANCH  14  18
BRANCH  15  21
HETATM   21  C   UNL     1      39.274 -12.504   3.558  1.00  0.00     0.244 C 
BRANCH  21  22
HETATM   22  O   UNL     1      38.724 -13.625   2.868  1.00  0.00    -0.393 OA
HETATM   23  H   UNL     1      37.828 -13.769   3.234  1.00  0.00     0.209 HD
ENDBRANCH  21  22
ENDBRANCH  15  21
ENDBRANCH  12  13
ENDBRANCH  11  12
ENDBRANCH   6  11
BRANCH   8  24
HETATM   24  N   UNL     1      43.276 -16.284   2.112  1.00  0.00    -0.286 NA
HETATM   25  H   UNL     1      44.033 -16.638   1.532  1.00  0.00     0.125 HD
HETATM   26  H   UNL     1      42.371 -16.515   1.719  1.00  0.00     0.125 HD
ENDBRANCH   8  24
TORSDOF 7
ENDMDL
MODEL 4
REMARK VINA RESULT:      -7.1      3.430      4.202
REMARK  7 active torsions:
REMARK  status: ('A' for Active; 'I' for Inactive)
REMARK    1  A    between atoms: C_6  and  C_7 
REMARK    2  A    between atoms: C_7  and  S_8 
REMARK    3  A    between atoms: S_8  and  C_9 
REMARK    4  A    between atoms: N_10  and  C_11 
REMARK    5  A    between atoms: C_14  and  C_15 
REMARK    6  A    between atoms: C_15  and  O_16 
REMARK    7  A    between atoms: C_20  and  N_21 
ROOT
HETATM    1  C   UNL     1      43.979 -20.789   4.181  1.00  0.00     0.001 A 
HETATM    2  C   UNL     1      44.031 -19.632   4.955  1.00  0.00     0.017 A 
HETATM    3  C   UNL     1      43.773 -18.364   4.376  1.00  0.00     0.033 A 
HETATM    4  C   UNL     1      43.468 -18.268   3.016  1.00  0.00     0.072 A 
HETATM    5  N   UNL     1      43.233 -17.098   2.411  1.00  0.00    -0.232 NA
HETATM    6  C   UNL     1      43.314 -15.980   3.157  1.00  0.00     0.138 A 
HETATM    7  N   UNL     1      43.601 -15.962   4.473  1.00  0.00    -0.220 NA
HETATM    8  C   UNL     1      43.804 -17.147   5.063  1.00  0.00     0.115 A 
HETATM    9  C   UNL     1      43.418 -19.437   2.265  1.00  0.00     0.032 A 
HETATM   10  C   UNL     1      43.669 -20.691   2.832  1.00  0.00     0.002 A 
ENDROOT
BRANCH   6  11
HETATM   11  C   UNL     1      43.119 -14.657   2.457  1.00  0.00     0.163 C 
BRANCH  11  12
HETATM   12  S   UNL     1      41.907 -13.589   3.303  1.00  0.00    -0.082 SA
BRANCH  12  13
HETATM   13  C   UNL     1      41.703 -12.360   2.103  1.00  0.00     0.192 A 
HETATM   14  N   UNL     1      40.856 -12.391   1.018  1.00  0.00    -0.305 N 
HETATM   15  C   UNL     1      41.082 -11.201   0.352  1.00  0.00     0.154 A 
HETATM   16  N   UNL     1      41.977 -10.494   1.017  1.00  0.00    -0.132 NA
HETATM   17  N   UNL     1      42.364 -11.223   2.108  1.00  0.00    -0.123 NA
BRANCH  14  18
HETATM   18  C   UNL     1      39.877 -13.375   0.582  1.00  0.00     0.094 A 
HETATM   19  C   UNL     1      39.911 -14.059  -0.771  1.00  0.00     0.028 A 
HETATM   20  C   UNL     1      40.164 -14.860   0.462  1.00  0.00     0.028 A 
ENDBRANCH  14  18
BRANCH  15  21
HETATM   21  C   UNL     1      40.409 -10.769  -0.898  1.00  0.00     0.244 C 
BRANCH  21  22
HETATM   22  O   UNL     1      39.097 -10.315  -0.576  1.00  0.00    -0.393 OA
HETATM   23  H   UNL     1      38.678 -10.043  -1.417  1.00  0.00     0.209 HD
ENDBRANCH  21  22
ENDBRANCH  15  21
ENDBRANCH  12  13
ENDBRANCH  11  12
ENDBRANCH   6  11
BRANCH   8  24
HETATM   24  N   UNL     1      44.073 -17.080   6.436  1.00  0.00    -0.286 NA
HETATM   25  H   UNL     1      44.160 -16.093   6.668  1.00  0.00     0.125 HD
HETATM   26  H   UNL     1      43.335 -17.521   6.971  1.00  0.00     0.125 HD
ENDBRANCH   8  24
TORSDOF 7
ENDMDL
MODEL 5
REMARK VINA RESULT:      -7.0      2.525      3.268
REMARK  7 active torsions:
REMARK  status: ('A' for Active; 'I' for Inactive)
REMARK    1  A    between atoms: C_6  and  C_7 
REMARK    2  A    between atoms: C_7  and  S_8 
REMARK    3  A    between atoms: S_8  and  C_9 
REMARK    4  A    between atoms: N_10  and  C_11 
REMARK    5  A    between atoms: C_14  and  C_15 
REMARK    6  A    between atoms: C_15  and  O_16 
REMARK    7  A    between atoms: C_20  and  N_21 
ROOT
HETATM    1  C   UNL     1      43.786 -18.845   2.805  1.00  0.00     0.001 A 
HETATM    2  C   UNL     1      42.862 -17.853   2.486  1.00  0.00     0.017 A 
HETATM    3  C   UNL     1      42.609 -16.787   3.386  1.00  0.00     0.033 A 
HETATM    4  C   UNL     1      43.284 -16.731   4.608  1.00  0.00     0.072 A 
HETATM    5  N   UNL     1      43.073 -15.760   5.504  1.00  0.00    -0.232 NA
HETATM    6  C   UNL     1      42.157 -14.819   5.203  1.00  0.00     0.138 A 
HETATM    7  N   UNL     1      41.452 -14.782   4.057  1.00  0.00    -0.220 NA
HETATM    8  C   UNL     1      41.701 -15.747   3.163  1.00  0.00     0.115 A 
HETATM    9  C   UNL     1      44.204 -17.731   4.902  1.00  0.00     0.032 A 
HETATM   10  C   UNL     1      44.461 -18.782   4.016  1.00  0.00     0.002 A 
ENDROOT
BRANCH   6  11
HETATM   11  C   UNL     1      41.870 -13.766   6.246  1.00  0.00     0.163 C 
BRANCH  11  12
HETATM   12  S   UNL     1      42.021 -12.071   5.590  1.00  0.00    -0.082 SA
BRANCH  12  13
HETATM   13  C   UNL     1      43.492 -11.583   6.359  1.00  0.00     0.192 A 
HETATM   14  N   UNL     1      43.714 -10.422   7.065  1.00  0.00    -0.305 N 
HETATM   15  C   UNL     1      45.040 -10.482   7.447  1.00  0.00     0.154 A 
HETATM   16  N   UNL     1      45.562 -11.619   7.027  1.00  0.00    -0.132 NA
HETATM   17  N   UNL     1      44.593 -12.302   6.345  1.00  0.00    -0.123 NA
BRANCH  14  18
HETATM   18  C   UNL     1      42.828  -9.324   7.426  1.00  0.00     0.094 A 
HETATM   19  C   UNL     1      41.316  -9.420   7.409  1.00  0.00     0.028 A 
HETATM   20  C   UNL     1      42.026  -9.270   8.711  1.00  0.00     0.028 A 
ENDBRANCH  14  18
BRANCH  15  21
HETATM   21  C   UNL     1      45.762  -9.448   8.229  1.00  0.00     0.244 C 
BRANCH  21  22
HETATM   22  O   UNL     1      46.875  -8.990   7.464  1.00  0.00    -0.393 OA
HETATM   23  H   UNL     1      46.795  -8.017   7.404  1.00  0.00     0.209 HD
ENDBRANCH  21  22
ENDBRANCH  15  21
ENDBRANCH  12  13
ENDBRANCH  11  12
ENDBRANCH   6  11
BRANCH   8  24
HETATM   24  N   UNL     1      40.963 -15.652   1.977  1.00  0.00    -0.286 NA
HETATM   25  H   UNL     1      40.537 -14.729   1.971  1.00  0.00     0.125 HD
HETATM   26  H   UNL     1      41.559 -15.789   1.168  1.00  0.00     0.125 HD
ENDBRANCH   8  24
TORSDOF 7
ENDMDL
MODEL 6
REMARK VINA RESULT:      -6.9      2.560      3.875
REMARK  7 active torsions:
REMARK  status: ('A' for Active; 'I' for Inactive)
REMARK    1  A    between atoms: C_6  and  C_7 
REMARK    2  A    between atoms: C_7  and  S_8 
REMARK    3  A    between atoms: S_8  and  C_9 
REMARK    4  A    between atoms: N_10  and  C_11 
REMARK    5  A    between atoms: C_14  and  C_15 
REMARK    6  A    between atoms: C_15  and  O_16 
REMARK    7  A    between atoms: C_20  and  N_21 
ROOT
HETATM    1  C   UNL     1      44.160 -19.088   4.235  1.00  0.00     0.001 A 
HETATM    2  C   UNL     1      44.035 -18.057   5.164  1.00  0.00     0.017 A 
HETATM    3  C   UNL     1      43.585 -16.775   4.762  1.00  0.00     0.033 A 
HETATM    4  C   UNL     1      43.268 -16.535   3.422  1.00  0.00     0.072 A 
HETATM    5  N   UNL     1      42.855 -15.341   2.981  1.00  0.00    -0.232 NA
HETATM    6  C   UNL     1      42.766 -14.340   3.877  1.00  0.00     0.138 A 
HETATM    7  N   UNL     1      43.048 -14.464   5.188  1.00  0.00    -0.220 NA
HETATM    8  C   UNL     1      43.430 -15.675   5.611  1.00  0.00     0.115 A 
HETATM    9  C   UNL     1      43.396 -17.582   2.515  1.00  0.00     0.032 A 
HETATM   10  C   UNL     1      43.836 -18.850   2.907  1.00  0.00     0.002 A 
ENDROOT
BRANCH   6  11
HETATM   11  C   UNL     1      42.369 -12.977   3.363  1.00  0.00     0.163 C 
BRANCH  11  12
HETATM   12  S   UNL     1      43.644 -11.712   3.680  1.00  0.00    -0.082 SA
BRANCH  12  13
HETATM   13  C   UNL     1      42.785 -10.691   4.782  1.00  0.00     0.192 A 
HETATM   14  N   UNL     1      42.909 -10.658   6.153  1.00  0.00    -0.305 N 
HETATM   15  C   UNL     1      41.997  -9.710   6.573  1.00  0.00     0.154 A 
HETATM   16  N   UNL     1      41.396  -9.188   5.520  1.00  0.00    -0.132 NA
HETATM   17  N   UNL     1      41.888  -9.806   4.404  1.00  0.00    -0.123 NA
BRANCH  14  18
HETATM   18  C   UNL     1      43.787 -11.380   7.062  1.00  0.00     0.094 A 
HETATM   19  C   UNL     1      45.110 -11.994   6.648  1.00  0.00     0.028 A 
HETATM   20  C   UNL     1      45.102 -10.833   7.584  1.00  0.00     0.028 A 
ENDBRANCH  14  18
BRANCH  15  21
HETATM   21  C   UNL     1      41.747  -9.317   7.982  1.00  0.00     0.244 C 
BRANCH  21  22
HETATM   22  O   UNL     1      40.607 -10.028   8.459  1.00  0.00    -0.393 OA
HETATM   23  H   UNL     1      40.602  -9.933   9.433  1.00  0.00     0.209 HD
ENDBRANCH  21  22
ENDBRANCH  15  21
ENDBRANCH  12  13
ENDBRANCH  11  12
ENDBRANCH   6  11
BRANCH   8  24
HETATM   24  N   UNL     1      43.689 -15.761   6.985  1.00  0.00    -0.286 NA
HETATM   25  H   UNL     1      42.837 -15.473   7.461  1.00  0.00     0.125 HD
HETATM   26  H   UNL     1      43.955 -16.704   7.244  1.00  0.00     0.125 HD
ENDBRANCH   8  24
TORSDOF 7
ENDMDL
MODEL 7
REMARK VINA RESULT:      -6.9      2.629      3.692
REMARK  7 active torsions:
REMARK  status: ('A' for Active; 'I' for Inactive)
REMARK    1  A    between atoms: C_6  and  C_7 
REMARK    2  A    between atoms: C_7  and  S_8 
REMARK    3  A    between atoms: S_8  and  C_9 
REMARK    4  A    between atoms: N_10  and  C_11 
REMARK    5  A    between atoms: C_14  and  C_15 
REMARK    6  A    between atoms: C_15  and  O_16 
REMARK    7  A    between atoms: C_20  and  N_21 
ROOT
HETATM    1  C   UNL     1      43.978 -18.740   4.319  1.00  0.00     0.001 A 
HETATM    2  C   UNL     1      43.816 -17.808   3.297  1.00  0.00     0.017 A 
HETATM    3  C   UNL     1      43.419 -16.479   3.589  1.00  0.00     0.033 A 
HETATM    4  C   UNL     1      43.181 -16.097   4.912  1.00  0.00     0.072 A 
HETATM    5  N   UNL     1      42.787 -14.863   5.246  1.00  0.00    -0.232 NA
HETATM    6  C   UNL     1      42.603 -13.974   4.252  1.00  0.00     0.138 A 
HETATM    7  N   UNL     1      42.803 -14.239   2.947  1.00  0.00    -0.220 NA
HETATM    8  C   UNL     1      43.225 -15.472   2.639  1.00  0.00     0.115 A 
HETATM    9  C   UNL     1      43.353 -17.044   5.915  1.00  0.00     0.032 A 
HETATM   10  C   UNL     1      43.749 -18.356   5.633  1.00  0.00     0.002 A 
ENDROOT
BRANCH   6  11
HETATM   11  C   UNL     1      42.090 -12.604   4.626  1.00  0.00     0.163 C 
BRANCH  11  12
HETATM   12  S   UNL     1      43.352 -11.304   4.418  1.00  0.00    -0.082 SA
BRANCH  12  13
HETATM   13  C   UNL     1      43.965 -11.222   6.033  1.00  0.00     0.192 A 
HETATM   14  N   UNL     1      43.368 -10.623   7.120  1.00  0.00    -0.305 N 
HETATM   15  C   UNL     1      44.258 -10.797   8.161  1.00  0.00     0.154 A 
HETATM   16  N   UNL     1      45.300 -11.485   7.732  1.00  0.00    -0.132 NA
HETATM   17  N   UNL     1      45.114 -11.745   6.402  1.00  0.00    -0.123 NA
BRANCH  14  18
HETATM   18  C   UNL     1      42.082  -9.958   7.272  1.00  0.00     0.094 A 
HETATM   19  C   UNL     1      41.924  -8.519   7.720  1.00  0.00     0.028 A 
HETATM   20  C   UNL     1      41.559  -8.896   6.324  1.00  0.00     0.028 A 
ENDBRANCH  14  18
BRANCH  15  21
HETATM   21  C   UNL     1      44.068 -10.314   9.551  1.00  0.00     0.244 C 
BRANCH  21  22
HETATM   22  O   UNL     1      43.535 -11.379  10.336  1.00  0.00    -0.393 OA
HETATM   23  H   UNL     1      42.683 -11.063  10.698  1.00  0.00     0.209 HD
ENDBRANCH  21  22
ENDBRANCH  15  21
ENDBRANCH  12  13
ENDBRANCH  11  12
ENDBRANCH   6  11
BRANCH   8  24
HETATM   24  N   UNL     1      43.444 -15.693   1.273  1.00  0.00    -0.286 NA
HETATM   25  H   UNL     1      42.887 -16.505   1.017  1.00  0.00     0.125 HD
HETATM   26  H   UNL     1      43.181 -14.879   0.729  1.00  0.00     0.125 HD
ENDBRANCH   8  24
TORSDOF 7
ENDMDL
MODEL 8
REMARK VINA RESULT:      -6.8      3.338      7.646
REMARK  7 active torsions:
REMARK  status: ('A' for Active; 'I' for Inactive)
REMARK    1  A    between atoms: C_6  and  C_7 
REMARK    2  A    between atoms: C_7  and  S_8 
REMARK    3  A    between atoms: S_8  and  C_9 
REMARK    4  A    between atoms: N_10  and  C_11 
REMARK    5  A    between atoms: C_14  and  C_15 
REMARK    6  A    between atoms: C_15  and  O_16 
REMARK    7  A    between atoms: C_20  and  N_21 
ROOT
HETATM    1  C   UNL     1      44.703  -9.249  10.397  1.00  0.00     0.001 A 
HETATM    2  C   UNL     1      45.607  -9.687   9.433  1.00  0.00     0.017 A 
HETATM    3  C   UNL     1      45.148 -10.271   8.225  1.00  0.00     0.033 A 
HETATM    4  C   UNL     1      43.777 -10.415   7.998  1.00  0.00     0.072 A 
HETATM    5  N   UNL     1      43.286 -10.975   6.886  1.00  0.00    -0.232 NA
HETATM    6  C   UNL     1      44.165 -11.424   5.971  1.00  0.00     0.138 A 
HETATM    7  N   UNL     1      45.503 -11.334   6.092  1.00  0.00    -0.220 NA
HETATM    8  C   UNL     1      45.971 -10.745   7.199  1.00  0.00     0.115 A 
HETATM    9  C   UNL     1      42.894  -9.966   8.974  1.00  0.00     0.032 A 
HETATM   10  C   UNL     1      43.341  -9.386  10.165  1.00  0.00     0.002 A 
ENDROOT
BRANCH   6  11
HETATM   11  C   UNL     1      43.609 -12.118   4.751  1.00  0.00     0.163 C 
BRANCH  11  12
HETATM   12  S   UNL     1      42.223 -13.234   5.151  1.00  0.00    -0.082 SA
BRANCH  12  13
HETATM   13  C   UNL     1      43.086 -14.717   5.370  1.00  0.00     0.192 A 
HETATM   14  N   UNL     1      43.161 -15.772   4.489  1.00  0.00    -0.305 N 
HETATM   15  C   UNL     1      43.933 -16.721   5.131  1.00  0.00     0.154 A 
HETATM   16  N   UNL     1      44.321 -16.248   6.300  1.00  0.00    -0.132 NA
HETATM   17  N   UNL     1      43.787 -14.997   6.447  1.00  0.00    -0.123 NA
BRANCH  14  18
HETATM   18  C   UNL     1      42.625 -15.953   3.148  1.00  0.00     0.094 A 
HETATM   19  C   UNL     1      42.352 -14.811   2.188  1.00  0.00     0.028 A 
HETATM   20  C   UNL     1      43.440 -15.784   1.880  1.00  0.00     0.028 A 
ENDBRANCH  14  18
BRANCH  15  21
HETATM   21  C   UNL     1      44.294 -18.053   4.585  1.00  0.00     0.244 C 
BRANCH  21  22
HETATM   22  O   UNL     1      43.783 -19.058   5.458  1.00  0.00    -0.393 OA
HETATM   23  H   UNL     1      43.262 -18.596   6.146  1.00  0.00     0.209 HD
ENDBRANCH  21  22
ENDBRANCH  15  21
ENDBRANCH  12  13
ENDBRANCH  11  12
ENDBRANCH   6  11
BRANCH   8  24
HETATM   24  N   UNL     1      47.367 -10.652   7.269  1.00  0.00    -0.286 NA
HETATM   25  H   UNL     1      47.689 -10.396   6.339  1.00  0.00     0.125 HD
HETATM   26  H   UNL     1      47.649  -9.966   7.960  1.00  0.00     0.125 HD
ENDBRANCH   8  24
TORSDOF 7
ENDMDL
MODEL 9
REMARK VINA RESULT:      -6.8      4.852      7.202
REMARK  7 active torsions:
REMARK  status: ('A' for Active; 'I' for Inactive)
REMARK    1  A    between atoms: C_6  and  C_7 
REMARK    2  A    between atoms: C_7  and  S_8 
REMARK    3  A    between atoms: S_8  and  C_9 
REMARK    4  A    between atoms: N_10  and  C_11 
REMARK    5  A    between atoms: C_14  and  C_15 
REMARK    6  A    between atoms: C_15  and  O_16 
REMARK    7  A    between atoms: C_20  and  N_21 
ROOT
HETATM    1  C   UNL     1      39.053 -13.237  -3.033  1.00  0.00     0.001 A 
HETATM    2  C   UNL     1      39.771 -12.561  -2.049  1.00  0.00     0.017 A 
HETATM    3  C   UNL     1      40.156 -13.221  -0.855  1.00  0.00     0.033 A 
HETATM    4  C   UNL     1      39.808 -14.560  -0.655  1.00  0.00     0.072 A 
HETATM    5  N   UNL     1      40.128 -15.229   0.459  1.00  0.00    -0.232 NA
HETATM    6  C   UNL     1      40.796 -14.562   1.419  1.00  0.00     0.138 A 
HETATM    7  N   UNL     1      41.176 -13.274   1.327  1.00  0.00    -0.220 NA
HETATM    8  C   UNL     1      40.872 -12.633   0.192  1.00  0.00     0.115 A 
HETATM    9  C   UNL     1      39.095 -15.214  -1.654  1.00  0.00     0.032 A 
HETATM   10  C   UNL     1      38.717 -14.569  -2.836  1.00  0.00     0.002 A 
ENDROOT
BRANCH   6  11
HETATM   11  C   UNL     1      41.091 -15.299   2.703  1.00  0.00     0.163 C 
BRANCH  11  12
HETATM   12  S   UNL     1      42.860 -15.254   3.144  1.00  0.00    -0.082 SA
BRANCH  12  13
HETATM   13  C   UNL     1      43.191 -16.950   3.226  1.00  0.00     0.192 A 
HETATM   14  N   UNL     1      43.834 -17.623   4.241  1.00  0.00    -0.305 N 
HETATM   15  C   UNL     1      43.880 -18.940   3.825  1.00  0.00     0.154 A 
HETATM   16  N   UNL     1      43.273 -19.049   2.658  1.00  0.00    -0.132 NA
HETATM   17  N   UNL     1      42.848 -17.803   2.286  1.00  0.00    -0.123 NA
BRANCH  14  18
HETATM   18  C   UNL     1      44.359 -17.171   5.521  1.00  0.00     0.094 A 
HETATM   19  C   UNL     1      43.903 -15.906   6.220  1.00  0.00     0.028 A 
HETATM   20  C   UNL     1      43.586 -17.233   6.824  1.00  0.00     0.028 A 
ENDBRANCH  14  18
BRANCH  15  21
HETATM   21  C   UNL     1      44.490 -20.063   4.580  1.00  0.00     0.244 C 
BRANCH  21  22
HETATM   22  O   UNL     1      44.044 -21.291   4.009  1.00  0.00    -0.393 OA
HETATM   23  H   UNL     1      44.408 -22.009   4.565  1.00  0.00     0.209 HD
ENDBRANCH  21  22
ENDBRANCH  15  21
ENDBRANCH  12  13
ENDBRANCH  11  12
ENDBRANCH   6  11
BRANCH   8  24
HETATM   24  N   UNL     1      41.310 -11.304   0.133  1.00  0.00    -0.286 NA
HETATM   25  H   UNL     1      40.690 -10.766   0.734  1.00  0.00     0.125 HD
HETATM   26  H   UNL     1      42.274 -11.228   0.434  1.00  0.00     0.125 HD
ENDBRANCH   8  24
TORSDOF 7
ENDMDL
MODEL 10
REMARK VINA RESULT:      -6.7      4.527      8.946
REMARK  7 active torsions:
REMARK  status: ('A' for Active; 'I' for Inactive)
REMARK    1  A    between atoms: C_6  and  C_7 
REMARK    2  A    between atoms: C_7  and  S_8 
REMARK    3  A    between atoms: S_8  and  C_9 
REMARK    4  A    between atoms: N_10  and  C_11 
REMARK    5  A    between atoms: C_14  and  C_15 
REMARK    6  A    between atoms: C_15  and  O_16 
REMARK    7  A    between atoms: C_20  and  N_21 
ROOT
HETATM    1  C   UNL     1      42.777  -7.574  12.766  1.00  0.00     0.001 A 
HETATM    2  C   UNL     1      43.163  -8.882  12.481  1.00  0.00     0.017 A 
HETATM    3  C   UNL     1      43.385  -9.294  11.143  1.00  0.00     0.033 A 
HETATM    4  C   UNL     1      43.209  -8.385  10.096  1.00  0.00     0.072 A 
HETATM    5  N   UNL     1      43.385  -8.722   8.813  1.00  0.00    -0.232 NA
HETATM    6  C   UNL     1      43.730  -9.995   8.542  1.00  0.00     0.138 A 
HETATM    7  N   UNL     1      43.923 -10.947   9.474  1.00  0.00    -0.220 NA
HETATM    8  C   UNL     1      43.769 -10.580  10.753  1.00  0.00     0.115 A 
HETATM    9  C   UNL     1      42.827  -7.085  10.405  1.00  0.00     0.032 A 
HETATM   10  C   UNL     1      42.611  -6.672  11.724  1.00  0.00     0.002 A 
ENDROOT
BRANCH   6  11
HETATM   11  C   UNL     1      43.858 -10.389   7.090  1.00  0.00     0.163 C 
BRANCH  11  12
HETATM   12  S   UNL     1      44.936 -11.841   6.851  1.00  0.00    -0.082 SA
BRANCH  12  13
HETATM   13  C   UNL     1      43.738 -13.069   6.630  1.00  0.00     0.192 A 
HETATM   14  N   UNL     1      42.889 -13.218   5.556  1.00  0.00    -0.305 N 
HETATM   15  C   UNL     1      42.110 -14.316   5.865  1.00  0.00     0.154 A 
HETATM   16  N   UNL     1      42.493 -14.809   7.027  1.00  0.00    -0.132 NA
HETATM   17  N   UNL     1      43.508 -14.025   7.504  1.00  0.00    -0.123 NA
BRANCH  14  18
HETATM   18  C   UNL     1      42.768 -12.477   4.309  1.00  0.00     0.094 A 
HETATM   19  C   UNL     1      43.907 -11.707   3.671  1.00  0.00     0.028 A 
HETATM   20  C   UNL     1      43.377 -12.926   2.995  1.00  0.00     0.028 A 
ENDBRANCH  14  18
BRANCH  15  21
HETATM   21  C   UNL     1      41.029 -14.874   5.014  1.00  0.00     0.244 C 
BRANCH  21  22
HETATM   22  O   UNL     1      39.841 -14.980   5.797  1.00  0.00    -0.393 OA
HETATM   23  H   UNL     1      39.466 -14.079   5.862  1.00  0.00     0.209 HD
ENDBRANCH  21  22
ENDBRANCH  15  21
ENDBRANCH  12  13
ENDBRANCH  11  12
ENDBRANCH   6  11
BRANCH   8  24
HETATM   24  N   UNL     1      44.005 -11.596  11.687  1.00  0.00    -0.286 NA
HETATM   25  H   UNL     1      43.862 -11.186  12.607  1.00  0.00     0.125 HD
HETATM   26  H   UNL     1      43.382 -12.381  11.532  1.00  0.00     0.125 HD
ENDBRANCH   8  24
TORSDOF 7
ENDMDL
