MODEL 1
REMARK VINA RESULT:      -9.4      0.000      0.000
REMARK  3 active torsions:
REMARK  status: ('A' for Active; 'I' for Inactive)
REMARK    1  A    between atoms: C_6  and  C_7 
REMARK    2  A    between atoms: C_11  and  C_12 
REMARK       I    between atoms: C_12  and  N_13 
REMARK    3  A    between atoms: N_13  and  N_14 
ROOT
HETATM    1  C   UNL     1      42.129 -12.291   6.001  1.00  0.00     0.289 C 
HETATM    2  N   UNL     1      43.105 -11.334   6.224  1.00  0.00    -0.241 N 
HETATM    3  O   UNL     1      40.923 -12.058   6.025  1.00  0.00    -0.264 OA
HETATM    4  H   UNL     1      44.094 -11.580   6.190  1.00  0.00     0.192 HD
ENDROOT
BRANCH   1   5
HETATM    5  C   UNL     1      42.624 -13.616   5.728  1.00  0.00     0.121 A 
HETATM    6  N   UNL     1      43.493 -14.228   6.585  1.00  0.00    -0.272 N 
HETATM    7  N   UNL     1      43.868 -15.456   6.207  1.00  0.00    -0.174 NA
HETATM    8  H   UNL     1      43.861 -13.843   7.450  1.00  0.00     0.189 HD
HETATM    9  C   UNL     1      43.222 -15.672   5.048  1.00  0.00     0.089 A 
HETATM   10  C   UNL     1      42.429 -14.534   4.714  1.00  0.00     0.071 A 
BRANCH   9  11
HETATM   11  C   UNL     1      43.377 -16.936   4.312  1.00  0.00    -0.005 A 
HETATM   12  C   UNL     1      43.817 -18.109   4.943  1.00  0.00     0.021 A 
HETATM   13  C   UNL     1      43.967 -19.318   4.234  1.00  0.00    -0.055 A 
HETATM   14  C   UNL     1      43.695 -19.349   2.854  1.00  0.00    -0.056 A 
HETATM   15  C   UNL     1      44.442 -20.540   4.973  1.00  0.00     0.049 C 
HETATM   16  C   UNL     1      43.817 -20.595   2.021  1.00  0.00     0.049 C 
HETATM   17  C   UNL     1      43.238 -18.182   2.226  1.00  0.00     0.008 A 
HETATM   18  C   UNL     1      43.084 -16.994   2.943  1.00  0.00     0.014 A 
ENDBRANCH   9  11
ENDBRANCH   1   5
BRANCH   2  19
HETATM   19  N   UNL     1      42.754 -10.040   6.495  1.00  0.00    -0.165 NA
HETATM   20  C   UNL     1      43.056  -9.586   7.668  1.00  0.00     0.157 A 
HETATM   21  C   UNL     1      43.766 -10.310   8.816  1.00  0.00     0.277 A 
HETATM   22  C   UNL     1      42.772  -8.243   8.157  1.00  0.00     0.027 A 
HETATM   23  O   UNL     1      44.154 -11.458   8.773  1.00  0.00    -0.266 OA
HETATM   24  N   UNL     1      43.844  -9.391   9.841  1.00  0.00    -0.321 N 
HETATM   25  C   UNL     1      43.264  -8.181   9.460  1.00  0.00     0.048 A 
HETATM   26  H   UNL     1      44.267  -9.588  10.735  1.00  0.00     0.169 HD
HETATM   27  C   UNL     1      43.152  -7.032  10.212  1.00  0.00     0.030 A 
HETATM   28  C   UNL     1      42.525  -5.932   9.613  1.00  0.00     0.002 A 
HETATM   29  C   UNL     1      42.030  -6.001   8.293  1.00  0.00     0.001 A 
HETATM   30  C   UNL     1      42.152  -7.174   7.545  1.00  0.00     0.016 A 
ENDBRANCH   2  19
TORSDOF 3
ENDMDL
MODEL 2
REMARK VINA RESULT:      -9.3      1.576      2.019
REMARK  3 active torsions:
REMARK  status: ('A' for Active; 'I' for Inactive)
REMARK    1  A    between atoms: C_6  and  C_7 
REMARK    2  A    between atoms: C_11  and  C_12 
REMARK       I    between atoms: C_12  and  N_13 
REMARK    3  A    between atoms: N_13  and  N_14 
ROOT
HETATM    1  C   UNL     1      42.669 -12.064   4.215  1.00  0.00     0.289 C 
HETATM    2  N   UNL     1      42.437 -11.845   5.562  1.00  0.00    -0.241 N 
HETATM    3  O   UNL     1      42.701 -11.173   3.370  1.00  0.00    -0.264 OA
HETATM    4  H   UNL     1      42.424 -12.621   6.223  1.00  0.00     0.192 HD
ENDROOT
BRANCH   1   5
HETATM    5  C   UNL     1      42.880 -13.442   3.848  1.00  0.00     0.121 A 
HETATM    6  N   UNL     1      42.925 -13.817   2.537  1.00  0.00    -0.272 N 
HETATM    7  N   UNL     1      43.129 -15.126   2.344  1.00  0.00    -0.174 NA
HETATM    8  H   UNL     1      42.822 -13.209   1.730  1.00  0.00     0.189 HD
HETATM    9  C   UNL     1      43.222 -15.646   3.580  1.00  0.00     0.089 A 
HETATM   10  C   UNL     1      43.070 -14.614   4.554  1.00  0.00     0.071 A 
BRANCH   9  11
HETATM   11  C   UNL     1      43.453 -17.083   3.788  1.00  0.00    -0.005 A 
HETATM   12  C   UNL     1      43.382 -18.002   2.731  1.00  0.00     0.021 A 
HETATM   13  C   UNL     1      43.601 -19.381   2.933  1.00  0.00    -0.055 A 
HETATM   14  C   UNL     1      43.874 -19.854   4.231  1.00  0.00    -0.056 A 
HETATM   15  C   UNL     1      43.511 -20.312   1.755  1.00  0.00     0.049 C 
HETATM   16  C   UNL     1      44.130 -21.304   4.538  1.00  0.00     0.049 C 
HETATM   17  C   UNL     1      43.962 -18.933   5.284  1.00  0.00     0.008 A 
HETATM   18  C   UNL     1      43.753 -17.570   5.066  1.00  0.00     0.014 A 
ENDBRANCH   9  11
ENDBRANCH   1   5
BRANCH   2  19
HETATM   19  N   UNL     1      42.222 -10.576   6.028  1.00  0.00    -0.165 NA
HETATM   20  C   UNL     1      42.914 -10.207   7.058  1.00  0.00     0.157 A 
HETATM   21  C   UNL     1      43.958 -11.007   7.841  1.00  0.00     0.277 A 
HETATM   22  C   UNL     1      42.837  -8.906   7.709  1.00  0.00     0.027 A 
HETATM   23  O   UNL     1      44.289 -12.146   7.586  1.00  0.00    -0.266 OA
HETATM   24  N   UNL     1      44.396 -10.166   8.840  1.00  0.00    -0.321 N 
HETATM   25  C   UNL     1      43.744  -8.935   8.767  1.00  0.00     0.048 A 
HETATM   26  H   UNL     1      45.095 -10.423   9.521  1.00  0.00     0.169 HD
HETATM   27  C   UNL     1      43.914  -7.845   9.592  1.00  0.00     0.030 A 
HETATM   28  C   UNL     1      43.141  -6.709   9.323  1.00  0.00     0.002 A 
HETATM   29  C   UNL     1      42.225  -6.685   8.249  1.00  0.00     0.001 A 
HETATM   30  C   UNL     1      42.064  -7.800   7.422  1.00  0.00     0.016 A 
ENDBRANCH   2  19
TORSDOF 3
ENDMDL
MODEL 3
REMARK VINA RESULT:      -9.2      6.542      8.773
REMARK  3 active torsions:
REMARK  status: ('A' for Active; 'I' for Inactive)
REMARK    1  A    between atoms: C_6  and  C_7 
REMARK    2  A    between atoms: C_11  and  C_12 
REMARK       I    between atoms: C_12  and  N_13 
REMARK    3  A    between atoms: N_13  and  N_14 
ROOT
HETATM    1  C   UNL     1      40.211 -13.145   1.287  1.00  0.00     0.289 C 
HETATM    2  N   UNL     1      40.256 -12.777  -0.047  1.00  0.00    -0.241 N 
HETATM    3  O   UNL     1      39.396 -12.703   2.095  1.00  0.00    -0.264 OA
HETATM    4  H   UNL     1      40.952 -13.177  -0.675  1.00  0.00     0.192 HD
ENDROOT
BRANCH   1   5
HETATM    5  C   UNL     1      41.204 -14.109   1.688  1.00  0.00     0.121 A 
HETATM    6  N   UNL     1      42.528 -13.894   1.435  1.00  0.00    -0.272 N 
HETATM    7  N   UNL     1      43.338 -14.870   1.864  1.00  0.00    -0.174 NA
HETATM    8  H   UNL     1      42.932 -13.087   0.968  1.00  0.00     0.189 HD
HETATM    9  C   UNL     1      42.518 -15.775   2.426  1.00  0.00     0.089 A 
HETATM   10  C   UNL     1      41.166 -15.330   2.334  1.00  0.00     0.071 A 
BRANCH   9  11
HETATM   11  C   UNL     1      43.042 -17.011   3.026  1.00  0.00    -0.005 A 
HETATM   12  C   UNL     1      43.153 -18.199   2.288  1.00  0.00     0.021 A 
HETATM   13  C   UNL     1      43.653 -19.384   2.865  1.00  0.00    -0.055 A 
HETATM   14  C   UNL     1      44.030 -19.388   4.222  1.00  0.00    -0.056 A 
HETATM   15  C   UNL     1      43.747 -20.624   2.017  1.00  0.00     0.049 C 
HETATM   16  C   UNL     1      44.582 -20.601   4.917  1.00  0.00     0.049 C 
HETATM   17  C   UNL     1      43.936 -18.195   4.954  1.00  0.00     0.008 A 
HETATM   18  C   UNL     1      43.448 -17.028   4.366  1.00  0.00     0.014 A 
ENDBRANCH   9  11
ENDBRANCH   1   5
BRANCH   2  19
HETATM   19  N   UNL     1      39.361 -11.867  -0.542  1.00  0.00    -0.165 NA
HETATM   20  C   UNL     1      38.485 -12.308  -1.385  1.00  0.00     0.157 A 
HETATM   21  C   UNL     1      38.306 -13.734  -1.914  1.00  0.00     0.277 A 
HETATM   22  C   UNL     1      37.450 -11.510  -2.028  1.00  0.00     0.027 A 
HETATM   23  O   UNL     1      38.996 -14.680  -1.597  1.00  0.00    -0.266 OA
HETATM   24  N   UNL     1      37.237 -13.675  -2.782  1.00  0.00    -0.321 N 
HETATM   25  C   UNL     1      36.733 -12.376  -2.853  1.00  0.00     0.048 A 
HETATM   26  H   UNL     1      36.884 -14.473  -3.288  1.00  0.00     0.169 HD
HETATM   27  C   UNL     1      35.673 -11.928  -3.611  1.00  0.00     0.030 A 
HETATM   28  C   UNL     1      35.347 -10.569  -3.518  1.00  0.00     0.002 A 
HETATM   29  C   UNL     1      36.077  -9.697  -2.681  1.00  0.00     0.001 A 
HETATM   30  C   UNL     1      37.149 -10.169  -1.919  1.00  0.00     0.016 A 
ENDBRANCH   2  19
TORSDOF 3
ENDMDL
MODEL 4
REMARK VINA RESULT:      -9.2      2.570      9.961
REMARK  3 active torsions:
REMARK  status: ('A' for Active; 'I' for Inactive)
REMARK    1  A    between atoms: C_6  and  C_7 
REMARK    2  A    between atoms: C_11  and  C_12 
REMARK       I    between atoms: C_12  and  N_13 
REMARK    3  A    between atoms: N_13  and  N_14 
ROOT
HETATM    1  C   UNL     1      44.294 -11.290   7.043  1.00  0.00     0.289 C 
HETATM    2  N   UNL     1      43.209 -12.052   6.643  1.00  0.00    -0.241 N 
HETATM    3  O   UNL     1      45.272 -11.062   6.335  1.00  0.00    -0.264 OA
HETATM    4  H   UNL     1      42.421 -12.209   7.271  1.00  0.00     0.192 HD
ENDROOT
BRANCH   1   5
HETATM    5  C   UNL     1      44.207 -10.759   8.380  1.00  0.00     0.121 A 
HETATM    6  N   UNL     1      45.333 -10.406   9.067  1.00  0.00    -0.272 N 
HETATM    7  N   UNL     1      45.102  -9.927  10.296  1.00  0.00    -0.174 NA
HETATM    8  H   UNL     1      46.290 -10.474   8.734  1.00  0.00     0.189 HD
HETATM    9  C   UNL     1      43.766  -9.963  10.434  1.00  0.00     0.089 A 
HETATM   10  C   UNL     1      43.167 -10.483   9.248  1.00  0.00     0.071 A 
BRANCH   9  11
HETATM   11  C   UNL     1      43.114  -9.507  11.671  1.00  0.00    -0.005 A 
HETATM   12  C   UNL     1      43.560  -8.372  12.365  1.00  0.00     0.021 A 
HETATM   13  C   UNL     1      42.935  -7.938  13.552  1.00  0.00    -0.055 A 
HETATM   14  C   UNL     1      41.852  -8.671  14.071  1.00  0.00    -0.056 A 
HETATM   15  C   UNL     1      43.463  -6.711  14.245  1.00  0.00     0.049 C 
HETATM   16  C   UNL     1      41.119  -8.277  15.324  1.00  0.00     0.049 C 
HETATM   17  C   UNL     1      41.394  -9.795  13.368  1.00  0.00     0.008 A 
HETATM   18  C   UNL     1      42.017 -10.207  12.189  1.00  0.00     0.014 A 
ENDBRANCH   9  11
ENDBRANCH   1   5
BRANCH   2  19
HETATM   19  N   UNL     1      43.181 -12.610   5.394  1.00  0.00    -0.165 NA
HETATM   20  C   UNL     1      43.137 -13.902   5.332  1.00  0.00     0.157 A 
HETATM   21  C   UNL     1      43.110 -14.911   6.483  1.00  0.00     0.277 A 
HETATM   22  C   UNL     1      43.103 -14.691   4.107  1.00  0.00     0.027 A 
HETATM   23  O   UNL     1      43.129 -14.616   7.659  1.00  0.00    -0.266 OA
HETATM   24  N   UNL     1      43.065 -16.152   5.886  1.00  0.00    -0.321 N 
HETATM   25  C   UNL     1      43.060 -16.029   4.497  1.00  0.00     0.048 A 
HETATM   26  H   UNL     1      43.038 -17.019   6.402  1.00  0.00     0.169 HD
HETATM   27  C   UNL     1      43.020 -17.043   3.565  1.00  0.00     0.030 A 
HETATM   28  C   UNL     1      43.024 -16.674   2.214  1.00  0.00     0.002 A 
HETATM   29  C   UNL     1      43.067 -15.317   1.826  1.00  0.00     0.001 A 
HETATM   30  C   UNL     1      43.107 -14.301   2.784  1.00  0.00     0.016 A 
ENDBRANCH   2  19
TORSDOF 3
ENDMDL
MODEL 5
REMARK VINA RESULT:      -9.1      6.091      7.706
REMARK  3 active torsions:
REMARK  status: ('A' for Active; 'I' for Inactive)
REMARK    1  A    between atoms: C_6  and  C_7 
REMARK    2  A    between atoms: C_11  and  C_12 
REMARK       I    between atoms: C_12  and  N_13 
REMARK    3  A    between atoms: N_13  and  N_14 
ROOT
HETATM    1  C   UNL     1      40.835 -13.074   0.290  1.00  0.00     0.289 C 
HETATM    2  N   UNL     1      39.477 -13.341   0.223  1.00  0.00    -0.241 N 
HETATM    3  O   UNL     1      41.392 -12.185  -0.350  1.00  0.00    -0.264 OA
HETATM    4  H   UNL     1      39.065 -14.090   0.778  1.00  0.00     0.192 HD
ENDROOT
BRANCH   1   5
HETATM    5  C   UNL     1      41.580 -13.925   1.183  1.00  0.00     0.121 A 
HETATM    6  N   UNL     1      42.397 -13.391   2.137  1.00  0.00    -0.272 N 
HETATM    7  N   UNL     1      43.025 -14.298   2.896  1.00  0.00    -0.174 NA
HETATM    8  H   UNL     1      42.559 -12.404   2.312  1.00  0.00     0.189 HD
HETATM    9  C   UNL     1      42.610 -15.487   2.426  1.00  0.00     0.089 A 
HETATM   10  C   UNL     1      41.699 -15.292   1.346  1.00  0.00     0.071 A 
BRANCH   9  11
HETATM   11  C   UNL     1      43.086 -16.748   3.014  1.00  0.00    -0.005 A 
HETATM   12  C   UNL     1      43.112 -17.942   2.278  1.00  0.00     0.021 A 
HETATM   13  C   UNL     1      43.566 -19.151   2.845  1.00  0.00    -0.055 A 
HETATM   14  C   UNL     1      43.981 -19.171   4.189  1.00  0.00    -0.056 A 
HETATM   15  C   UNL     1      43.569 -20.395   1.998  1.00  0.00     0.049 C 
HETATM   16  C   UNL     1      44.489 -20.410   4.873  1.00  0.00     0.049 C 
HETATM   17  C   UNL     1      43.972 -17.974   4.920  1.00  0.00     0.008 A 
HETATM   18  C   UNL     1      43.529 -16.783   4.342  1.00  0.00     0.014 A 
ENDBRANCH   9  11
ENDBRANCH   1   5
BRANCH   2  19
HETATM   19  N   UNL     1      38.667 -12.598  -0.593  1.00  0.00    -0.165 NA
HETATM   20  C   UNL     1      37.913 -11.716  -0.020  1.00  0.00     0.157 A 
HETATM   21  C   UNL     1      37.800 -11.382   1.470  1.00  0.00     0.277 A 
HETATM   22  C   UNL     1      36.981 -10.827  -0.702  1.00  0.00     0.027 A 
HETATM   23  O   UNL     1      38.432 -11.927   2.350  1.00  0.00    -0.266 OA
HETATM   24  N   UNL     1      36.861 -10.376   1.553  1.00  0.00    -0.321 N 
HETATM   25  C   UNL     1      36.380 -10.048   0.286  1.00  0.00     0.048 A 
HETATM   26  H   UNL     1      36.576  -9.948   2.421  1.00  0.00     0.169 HD
HETATM   27  C   UNL     1      35.436  -9.095  -0.032  1.00  0.00     0.030 A 
HETATM   28  C   UNL     1      35.109  -8.943  -1.386  1.00  0.00     0.002 A 
HETATM   29  C   UNL     1      35.722  -9.735  -2.380  1.00  0.00     0.001 A 
HETATM   30  C   UNL     1      36.677 -10.696  -2.040  1.00  0.00     0.016 A 
ENDBRANCH   2  19
TORSDOF 3
ENDMDL
MODEL 6
REMARK VINA RESULT:      -9.1      6.313      7.639
REMARK  3 active torsions:
REMARK  status: ('A' for Active; 'I' for Inactive)
REMARK    1  A    between atoms: C_6  and  C_7 
REMARK    2  A    between atoms: C_11  and  C_12 
REMARK       I    between atoms: C_12  and  N_13 
REMARK    3  A    between atoms: N_13  and  N_14 
ROOT
HETATM    1  C   UNL     1      40.174 -13.143  -0.220  1.00  0.00     0.289 C 
HETATM    2  N   UNL     1      41.266 -12.558  -0.840  1.00  0.00    -0.241 N 
HETATM    3  O   UNL     1      39.007 -12.848  -0.464  1.00  0.00    -0.264 OA
HETATM    4  H   UNL     1      42.216 -12.842  -0.603  1.00  0.00     0.192 HD
ENDROOT
BRANCH   1   5
HETATM    5  C   UNL     1      40.496 -14.152   0.757  1.00  0.00     0.121 A 
HETATM    6  N   UNL     1      39.606 -14.485   1.737  1.00  0.00    -0.272 N 
HETATM    7  N   UNL     1      40.037 -15.438   2.573  1.00  0.00    -0.174 NA
HETATM    8  H   UNL     1      38.683 -14.087   1.876  1.00  0.00     0.189 HD
HETATM    9  C   UNL     1      41.267 -15.752   2.133  1.00  0.00     0.089 A 
HETATM   10  C   UNL     1      41.592 -14.962   0.990  1.00  0.00     0.071 A 
BRANCH   9  11
HETATM   11  C   UNL     1      42.078 -16.780   2.802  1.00  0.00    -0.005 A 
HETATM   12  C   UNL     1      42.449 -17.967   2.152  1.00  0.00     0.021 A 
HETATM   13  C   UNL     1      43.225 -18.952   2.797  1.00  0.00    -0.055 A 
HETATM   14  C   UNL     1      43.619 -18.756   4.134  1.00  0.00    -0.056 A 
HETATM   15  C   UNL     1      43.588 -20.201   2.041  1.00  0.00     0.049 C 
HETATM   16  C   UNL     1      44.455 -19.747   4.896  1.00  0.00     0.049 C 
HETATM   17  C   UNL     1      43.264 -17.562   4.778  1.00  0.00     0.008 A 
HETATM   18  C   UNL     1      42.504 -16.592   4.123  1.00  0.00     0.014 A 
ENDBRANCH   9  11
ENDBRANCH   1   5
BRANCH   2  19
HETATM   19  N   UNL     1      41.083 -11.585  -1.786  1.00  0.00    -0.165 NA
HETATM   20  C   UNL     1      41.350 -10.370  -1.432  1.00  0.00     0.157 A 
HETATM   21  C   UNL     1      41.852  -9.860  -0.078  1.00  0.00     0.277 A 
HETATM   22  C   UNL     1      41.222  -9.192  -2.280  1.00  0.00     0.027 A 
HETATM   23  O   UNL     1      42.074 -10.563   0.885  1.00  0.00    -0.266 OA
HETATM   24  N   UNL     1      41.976  -8.495  -0.220  1.00  0.00    -0.321 N 
HETATM   25  C   UNL     1      41.609  -8.099  -1.506  1.00  0.00     0.048 A 
HETATM   26  H   UNL     1      42.292  -7.883   0.518  1.00  0.00     0.169 HD
HETATM   27  C   UNL     1      41.602  -6.821  -2.021  1.00  0.00     0.030 A 
HETATM   28  C   UNL     1      41.191  -6.667  -3.351  1.00  0.00     0.002 A 
HETATM   29  C   UNL     1      40.800  -7.778  -4.129  1.00  0.00     0.001 A 
HETATM   30  C   UNL     1      40.814  -9.067  -3.592  1.00  0.00     0.016 A 
ENDBRANCH   2  19
TORSDOF 3
ENDMDL
MODEL 7
REMARK VINA RESULT:      -9.0      1.806     10.003
REMARK  3 active torsions:
REMARK  status: ('A' for Active; 'I' for Inactive)
REMARK    1  A    between atoms: C_6  and  C_7 
REMARK    2  A    between atoms: C_11  and  C_12 
REMARK       I    between atoms: C_12  and  N_13 
REMARK    3  A    between atoms: N_13  and  N_14 
ROOT
HETATM    1  C   UNL     1      43.318 -11.760   5.504  1.00  0.00     0.289 C 
HETATM    2  N   UNL     1      42.525 -12.895   5.540  1.00  0.00    -0.241 N 
HETATM    3  O   UNL     1      44.175 -11.549   4.649  1.00  0.00    -0.264 OA
HETATM    4  H   UNL     1      41.825 -13.020   6.271  1.00  0.00     0.192 HD
ENDROOT
BRANCH   1   5
HETATM    5  C   UNL     1      43.071 -10.810   6.559  1.00  0.00     0.121 A 
HETATM    6  N   UNL     1      42.343  -9.680   6.325  1.00  0.00    -0.272 N 
HETATM    7  N   UNL     1      42.191  -8.889   7.395  1.00  0.00    -0.174 NA
HETATM    8  H   UNL     1      41.923  -9.402   5.443  1.00  0.00     0.189 HD
HETATM    9  C   UNL     1      42.848  -9.519   8.384  1.00  0.00     0.089 A 
HETATM   10  C   UNL     1      43.416 -10.733   7.895  1.00  0.00     0.071 A 
BRANCH   9  11
HETATM   11  C   UNL     1      42.909  -8.955   9.740  1.00  0.00    -0.005 A 
HETATM   12  C   UNL     1      42.563  -7.621  10.001  1.00  0.00     0.021 A 
HETATM   13  C   UNL     1      42.625  -7.081  11.302  1.00  0.00    -0.055 A 
HETATM   14  C   UNL     1      43.067  -7.889  12.366  1.00  0.00    -0.056 A 
HETATM   15  C   UNL     1      42.238  -5.642  11.511  1.00  0.00     0.049 C 
HETATM   16  C   UNL     1      43.155  -7.401  13.785  1.00  0.00     0.049 C 
HETATM   17  C   UNL     1      43.396  -9.228  12.109  1.00  0.00     0.008 A 
HETATM   18  C   UNL     1      43.321  -9.751  10.817  1.00  0.00     0.014 A 
ENDBRANCH   9  11
ENDBRANCH   1   5
BRANCH   2  19
HETATM   19  N   UNL     1      42.670 -13.869   4.589  1.00  0.00    -0.165 NA
HETATM   20  C   UNL     1      43.065 -15.031   5.000  1.00  0.00     0.157 A 
HETATM   21  C   UNL     1      43.397 -15.475   6.427  1.00  0.00     0.277 A 
HETATM   22  C   UNL     1      43.284 -16.199   4.156  1.00  0.00     0.027 A 
HETATM   23  O   UNL     1      43.331 -14.761   7.405  1.00  0.00    -0.266 OA
HETATM   24  N   UNL     1      43.767 -16.799   6.326  1.00  0.00    -0.321 N 
HETATM   25  C   UNL     1      43.702 -17.227   5.000  1.00  0.00     0.048 A 
HETATM   26  H   UNL     1      44.042 -17.363   7.115  1.00  0.00     0.169 HD
HETATM   27  C   UNL     1      43.996 -18.480   4.508  1.00  0.00     0.030 A 
HETATM   28  C   UNL     1      43.856 -18.677   3.128  1.00  0.00     0.002 A 
HETATM   29  C   UNL     1      43.432 -17.631   2.279  1.00  0.00     0.001 A 
HETATM   30  C   UNL     1      43.138 -16.366   2.795  1.00  0.00     0.016 A 
ENDBRANCH   2  19
TORSDOF 3
ENDMDL
MODEL 8
REMARK VINA RESULT:      -9.0      2.059     10.079
REMARK  3 active torsions:
REMARK  status: ('A' for Active; 'I' for Inactive)
REMARK    1  A    between atoms: C_6  and  C_7 
REMARK    2  A    between atoms: C_11  and  C_12 
REMARK       I    between atoms: C_12  and  N_13 
REMARK    3  A    between atoms: N_13  and  N_14 
ROOT
HETATM    1  C   UNL     1      44.604 -11.874   7.188  1.00  0.00     0.289 C 
HETATM    2  N   UNL     1      43.643 -12.867   7.279  1.00  0.00    -0.241 N 
HETATM    3  O   UNL     1      45.467 -11.833   6.314  1.00  0.00    -0.264 OA
HETATM    4  H   UNL     1      42.947 -12.852   8.024  1.00  0.00     0.192 HD
ENDROOT
BRANCH   1   5
HETATM    5  C   UNL     1      44.531 -10.858   8.207  1.00  0.00     0.121 A 
HETATM    6  N   UNL     1      45.646 -10.477   8.896  1.00  0.00    -0.272 N 
HETATM    7  N   UNL     1      45.430  -9.524   9.811  1.00  0.00    -0.174 NA
HETATM    8  H   UNL     1      46.585 -10.843   8.775  1.00  0.00     0.189 HD
HETATM    9  C   UNL     1      44.115  -9.258   9.729  1.00  0.00     0.089 A 
HETATM   10  C   UNL     1      43.515 -10.081   8.729  1.00  0.00     0.071 A 
BRANCH   9  11
HETATM   11  C   UNL     1      43.486  -8.245  10.589  1.00  0.00    -0.005 A 
HETATM   12  C   UNL     1      43.423  -8.396  11.982  1.00  0.00     0.021 A 
HETATM   13  C   UNL     1      42.816  -7.425  12.805  1.00  0.00    -0.055 A 
HETATM   14  C   UNL     1      42.237  -6.285  12.217  1.00  0.00    -0.056 A 
HETATM   15  C   UNL     1      42.784  -7.649  14.292  1.00  0.00     0.049 C 
HETATM   16  C   UNL     1      41.579  -5.194  13.015  1.00  0.00     0.049 C 
HETATM   17  C   UNL     1      42.315  -6.125  10.826  1.00  0.00     0.008 A 
HETATM   18  C   UNL     1      42.928  -7.091  10.025  1.00  0.00     0.014 A 
ENDBRANCH   9  11
ENDBRANCH   1   5
BRANCH   2  19
HETATM   19  N   UNL     1      43.615 -13.886   6.366  1.00  0.00    -0.165 NA
HETATM   20  C   UNL     1      42.598 -13.927   5.567  1.00  0.00     0.157 A 
HETATM   21  C   UNL     1      41.400 -12.975   5.501  1.00  0.00     0.277 A 
HETATM   22  C   UNL     1      42.374 -14.925   4.529  1.00  0.00     0.027 A 
HETATM   23  O   UNL     1      41.241 -12.014   6.223  1.00  0.00    -0.266 OA
HETATM   24  N   UNL     1      40.602 -13.455   4.484  1.00  0.00    -0.321 N 
HETATM   25  C   UNL     1      41.168 -14.594   3.913  1.00  0.00     0.048 A 
HETATM   26  H   UNL     1      39.733 -13.025   4.207  1.00  0.00     0.169 HD
HETATM   27  C   UNL     1      40.665 -15.351   2.877  1.00  0.00     0.030 A 
HETATM   28  C   UNL     1      41.415 -16.461   2.470  1.00  0.00     0.002 A 
HETATM   29  C   UNL     1      42.636 -16.790   3.098  1.00  0.00     0.001 A 
HETATM   30  C   UNL     1      43.131 -16.012   4.147  1.00  0.00     0.016 A 
ENDBRANCH   2  19
TORSDOF 3
ENDMDL
MODEL 9
REMARK VINA RESULT:      -8.9      2.016     10.352
REMARK  3 active torsions:
REMARK  status: ('A' for Active; 'I' for Inactive)
REMARK    1  A    between atoms: C_6  and  C_7 
REMARK    2  A    between atoms: C_11  and  C_12 
REMARK       I    between atoms: C_12  and  N_13 
REMARK    3  A    between atoms: N_13  and  N_14 
ROOT
HETATM    1  C   UNL     1      43.847 -11.803   7.096  1.00  0.00     0.289 C 
HETATM    2  N   UNL     1      43.161 -13.006   7.098  1.00  0.00    -0.241 N 
HETATM    3  O   UNL     1      44.548 -11.414   6.165  1.00  0.00    -0.264 OA
HETATM    4  H   UNL     1      42.590 -13.281   7.897  1.00  0.00     0.192 HD
ENDROOT
BRANCH   1   5
HETATM    5  C   UNL     1      43.686 -11.008   8.287  1.00  0.00     0.121 A 
HETATM    6  N   UNL     1      43.929 -11.539   9.520  1.00  0.00    -0.272 N 
HETATM    7  N   UNL     1      43.741 -10.686  10.535  1.00  0.00    -0.174 NA
HETATM    8  H   UNL     1      44.229 -12.488   9.722  1.00  0.00     0.189 HD
HETATM    9  C   UNL     1      43.355  -9.538   9.953  1.00  0.00     0.089 A 
HETATM   10  C   UNL     1      43.308  -9.702   8.536  1.00  0.00     0.071 A 
BRANCH   9  11
HETATM   11  C   UNL     1      43.052  -8.341  10.752  1.00  0.00    -0.005 A 
HETATM   12  C   UNL     1      43.156  -8.341  12.151  1.00  0.00     0.021 A 
HETATM   13  C   UNL     1      42.862  -7.193  12.915  1.00  0.00    -0.055 A 
HETATM   14  C   UNL     1      42.429  -6.022  12.265  1.00  0.00    -0.056 A 
HETATM   15  C   UNL     1      42.996  -7.262  14.412  1.00  0.00     0.049 C 
HETATM   16  C   UNL     1      42.104  -4.750  12.997  1.00  0.00     0.049 C 
HETATM   17  C   UNL     1      42.342  -6.016  10.865  1.00  0.00     0.008 A 
HETATM   18  C   UNL     1      42.646  -7.157  10.122  1.00  0.00     0.014 A 
ENDBRANCH   9  11
ENDBRANCH   1   5
BRANCH   2  19
HETATM   19  N   UNL     1      43.240 -13.847   6.020  1.00  0.00    -0.165 NA
HETATM   20  C   UNL     1      43.320 -15.114   6.273  1.00  0.00     0.157 A 
HETATM   21  C   UNL     1      43.338 -15.814   7.635  1.00  0.00     0.277 A 
HETATM   22  C   UNL     1      43.414 -16.173   5.277  1.00  0.00     0.027 A 
HETATM   23  O   UNL     1      43.278 -15.246   8.704  1.00  0.00    -0.266 OA
HETATM   24  N   UNL     1      43.435 -17.161   7.357  1.00  0.00    -0.321 N 
HETATM   25  C   UNL     1      43.480 -17.375   5.979  1.00  0.00     0.048 A 
HETATM   26  H   UNL     1      43.468 -17.877   8.067  1.00  0.00     0.169 HD
HETATM   27  C   UNL     1      43.577 -18.583   5.321  1.00  0.00     0.030 A 
HETATM   28  C   UNL     1      43.605 -18.550   3.921  1.00  0.00     0.002 A 
HETATM   29  C   UNL     1      43.537 -17.328   3.216  1.00  0.00     0.001 A 
HETATM   30  C   UNL     1      43.439 -16.113   3.899  1.00  0.00     0.016 A 
ENDBRANCH   2  19
TORSDOF 3
ENDMDL
MODEL 10
REMARK VINA RESULT:      -8.9      2.124      9.806
REMARK  3 active torsions:
REMARK  status: ('A' for Active; 'I' for Inactive)
REMARK    1  A    between atoms: C_6  and  C_7 
REMARK    2  A    between atoms: C_11  and  C_12 
REMARK       I    between atoms: C_12  and  N_13 
REMARK    3  A    between atoms: N_13  and  N_14 
ROOT
HETATM    1  C   UNL     1      41.639 -14.057   3.944  1.00  0.00     0.289 C 
HETATM    2  N   UNL     1      42.873 -14.661   3.772  1.00  0.00    -0.241 N 
HETATM    3  O   UNL     1      40.572 -14.569   3.612  1.00  0.00    -0.264 OA
HETATM    4  H   UNL     1      43.730 -14.193   4.068  1.00  0.00     0.192 HD
ENDROOT
BRANCH   1   5
HETATM    5  C   UNL     1      41.678 -12.754   4.557  1.00  0.00     0.121 A 
HETATM    6  N   UNL     1      40.874 -11.746   4.109  1.00  0.00    -0.272 N 
HETATM    7  N   UNL     1      41.014 -10.592   4.772  1.00  0.00    -0.174 NA
HETATM    8  H   UNL     1      40.205 -11.800   3.347  1.00  0.00     0.189 HD
HETATM    9  C   UNL     1      41.953 -10.840   5.701  1.00  0.00     0.089 A 
HETATM   10  C   UNL     1      42.396 -12.192   5.596  1.00  0.00     0.071 A 
BRANCH   9  11
HETATM   11  C   UNL     1      42.388  -9.798   6.644  1.00  0.00    -0.005 A 
HETATM   12  C   UNL     1      43.405 -10.030   7.581  1.00  0.00     0.021 A 
HETATM   13  C   UNL     1      43.819  -9.031   8.486  1.00  0.00    -0.055 A 
HETATM   14  C   UNL     1      43.183  -7.776   8.469  1.00  0.00    -0.056 A 
HETATM   15  C   UNL     1      44.917  -9.347   9.466  1.00  0.00     0.049 C 
HETATM   16  C   UNL     1      43.565  -6.649   9.389  1.00  0.00     0.049 C 
HETATM   17  C   UNL     1      42.179  -7.538   7.519  1.00  0.00     0.008 A 
HETATM   18  C   UNL     1      41.786  -8.534   6.624  1.00  0.00     0.014 A 
ENDBRANCH   9  11
ENDBRANCH   1   5
BRANCH   2  19
HETATM   19  N   UNL     1      42.961 -15.901   3.198  1.00  0.00    -0.165 NA
HETATM   20  C   UNL     1      43.334 -16.874   3.965  1.00  0.00     0.157 A 
HETATM   21  C   UNL     1      43.696 -16.830   5.452  1.00  0.00     0.277 A 
HETATM   22  C   UNL     1      43.492 -18.264   3.556  1.00  0.00     0.027 A 
HETATM   23  O   UNL     1      43.681 -15.829   6.137  1.00  0.00    -0.266 OA
HETATM   24  N   UNL     1      44.023 -18.125   5.792  1.00  0.00    -0.321 N 
HETATM   25  C   UNL     1      43.905 -18.967   4.687  1.00  0.00     0.048 A 
HETATM   26  H   UNL     1      44.306 -18.405   6.719  1.00  0.00     0.169 HD
HETATM   27  C   UNL     1      44.146 -20.323   4.636  1.00  0.00     0.030 A 
HETATM   28  C   UNL     1      43.959 -20.962   3.403  1.00  0.00     0.002 A 
HETATM   29  C   UNL     1      43.540 -20.244   2.262  1.00  0.00     0.001 A 
HETATM   30  C   UNL     1      43.300 -18.869   2.332  1.00  0.00     0.016 A 
ENDBRANCH   2  19
TORSDOF 3
ENDMDL
