MODEL 1
REMARK VINA RESULT:      -8.4      0.000      0.000
REMARK  5 active torsions:
REMARK  status: ('A' for Active; 'I' for Inactive)
REMARK    1  A    between atoms: C_7  and  C_8 
REMARK    2  A    between atoms: C_11  and  N_12 
REMARK       I    between atoms: N_12  and  C_13 
REMARK    3  A    between atoms: C_13  and  C_14 
REMARK    4  A    between atoms: C_16  and  O_17 
REMARK    5  A    between atoms: C_20  and  O_21 
ROOT
HETATM    1  C   UNL     1      43.165  -9.215  12.013  1.00  0.00     0.017 A 
HETATM    2  C   UNL     1      43.566  -8.036  12.652  1.00  0.00     0.018 A 
HETATM    3  C   UNL     1      43.015  -7.660  13.885  1.00  0.00     0.030 A 
HETATM    4  C   UNL     1      42.052  -8.457  14.503  1.00  0.00     0.035 A 
HETATM    5  C   UNL     1      41.612  -9.612  13.847  1.00  0.00     0.030 A 
HETATM    6  C   UNL     1      42.165  -9.988  12.617  1.00  0.00     0.018 A 
ENDROOT
BRANCH   4   7
HETATM    7  N   UNL     1      41.513  -8.199  15.780  1.00  0.00    -0.323 N 
HETATM    8  C   UNL     1      40.777  -7.094  16.167  1.00  0.00     0.256 C 
HETATM    9  O   UNL     1      40.384  -6.175  15.461  1.00  0.00    -0.267 OA
HETATM   10  H   UNL     1      41.820  -8.823  16.516  1.00  0.00     0.169 HD
BRANCH   8  11
HETATM   11  C   UNL     1      40.516  -7.021  17.626  1.00  0.00     0.037 A 
HETATM   12  C   UNL     1      40.799  -5.821  18.285  1.00  0.00     0.054 A 
HETATM   13  C   UNL     1      40.633  -5.723  19.665  1.00  0.00     0.071 A 
HETATM   14  C   UNL     1      40.156  -6.827  20.374  1.00  0.00     0.073 A 
HETATM   15  C   UNL     1      39.844  -8.024  19.715  1.00  0.00     0.071 A 
HETATM   16  C   UNL     1      40.025  -8.125  18.337  1.00  0.00     0.054 A 
BRANCH  13  17
HETATM   17  O   UNL     1      40.975  -4.510  20.196  1.00  0.00    -0.356 OA
HETATM   18  C   UNL     1      41.080  -3.417  19.293  1.00  0.00     0.210 C 
ENDBRANCH  13  17
BRANCH  15  19
HETATM   19  O   UNL     1      39.381  -9.016  20.538  1.00  0.00    -0.356 OA
HETATM   20  C   UNL     1      40.314 -10.007  20.952  1.00  0.00     0.210 C 
ENDBRANCH  15  19
ENDBRANCH   8  11
ENDBRANCH   4   7
BRANCH   1  21
HETATM   21  C   UNL     1      43.784  -9.680  10.774  1.00  0.00     0.180 A 
HETATM   22  N   UNL     1      45.067  -9.718  10.454  1.00  0.00    -0.221 NA
HETATM   23  C   UNL     1      45.066 -10.150   9.153  1.00  0.00     0.093 A 
HETATM   24  C   UNL     1      43.767 -10.382   8.734  1.00  0.00     0.107 A 
HETATM   25  C   UNL     1      46.114 -10.360   8.250  1.00  0.00     0.035 A 
HETATM   26  C   UNL     1      43.408 -10.821   7.466  1.00  0.00     0.046 A 
HETATM   27  O   UNL     1      42.935 -10.086   9.773  1.00  0.00    -0.289 OA
HETATM   28  C   UNL     1      44.464 -11.040   6.565  1.00  0.00    -0.059 A 
HETATM   29  C   UNL     1      44.169 -11.472   5.156  1.00  0.00     0.048 C 
HETATM   30  C   UNL     1      45.795 -10.799   6.955  1.00  0.00     0.009 A 
ENDBRANCH   1  21
TORSDOF 5
ENDMDL
MODEL 2
REMARK VINA RESULT:      -8.3      4.059      7.824
REMARK  5 active torsions:
REMARK  status: ('A' for Active; 'I' for Inactive)
REMARK    1  A    between atoms: C_7  and  C_8 
REMARK    2  A    between atoms: C_11  and  N_12 
REMARK       I    between atoms: N_12  and  C_13 
REMARK    3  A    between atoms: C_13  and  C_14 
REMARK    4  A    between atoms: C_16  and  O_17 
REMARK    5  A    between atoms: C_20  and  O_21 
ROOT
HETATM    1  C   UNL     1      43.199 -12.272   5.705  1.00  0.00     0.017 A 
HETATM    2  C   UNL     1      44.135 -12.214   6.744  1.00  0.00     0.018 A 
HETATM    3  C   UNL     1      44.027 -11.256   7.761  1.00  0.00     0.030 A 
HETATM    4  C   UNL     1      42.978 -10.337   7.760  1.00  0.00     0.035 A 
HETATM    5  C   UNL     1      42.066 -10.358   6.699  1.00  0.00     0.030 A 
HETATM    6  C   UNL     1      42.174 -11.318   5.685  1.00  0.00     0.018 A 
ENDROOT
BRANCH   4   7
HETATM    7  N   UNL     1      42.745  -9.401   8.789  1.00  0.00    -0.323 N 
HETATM    8  C   UNL     1      43.461  -8.245   9.041  1.00  0.00     0.256 C 
HETATM    9  O   UNL     1      44.374  -7.772   8.378  1.00  0.00    -0.267 OA
HETATM   10  H   UNL     1      42.073  -9.684   9.490  1.00  0.00     0.169 HD
BRANCH   8  11
HETATM   11  C   UNL     1      43.091  -7.570  10.311  1.00  0.00     0.037 A 
HETATM   12  C   UNL     1      43.159  -8.312  11.493  1.00  0.00     0.054 A 
HETATM   13  C   UNL     1      42.759  -7.744  12.701  1.00  0.00     0.071 A 
HETATM   14  C   UNL     1      42.318  -6.420  12.718  1.00  0.00     0.073 A 
HETATM   15  C   UNL     1      42.275  -5.661  11.540  1.00  0.00     0.071 A 
HETATM   16  C   UNL     1      42.660  -6.236  10.330  1.00  0.00     0.054 A 
BRANCH  13  17
HETATM   17  O   UNL     1      42.840  -8.580  13.780  1.00  0.00    -0.356 OA
HETATM   18  C   UNL     1      41.736  -8.585  14.676  1.00  0.00     0.210 C 
ENDBRANCH  13  17
BRANCH  15  19
HETATM   19  O   UNL     1      41.828  -4.378  11.711  1.00  0.00    -0.356 OA
HETATM   20  C   UNL     1      42.093  -3.759  12.965  1.00  0.00     0.210 C 
ENDBRANCH  15  19
ENDBRANCH   8  11
ENDBRANCH   4   7
BRANCH   1  21
HETATM   21  C   UNL     1      43.233 -13.314   4.681  1.00  0.00     0.180 A 
HETATM   22  N   UNL     1      43.196 -13.182   3.366  1.00  0.00    -0.221 NA
HETATM   23  C   UNL     1      43.160 -14.475   2.911  1.00  0.00     0.093 A 
HETATM   24  C   UNL     1      43.199 -15.354   3.980  1.00  0.00     0.107 A 
HETATM   25  C   UNL     1      43.081 -14.994   1.614  1.00  0.00     0.035 A 
HETATM   26  C   UNL     1      43.172 -16.738   3.872  1.00  0.00     0.046 A 
HETATM   27  O   UNL     1      43.251 -14.615   5.125  1.00  0.00    -0.289 OA
HETATM   28  C   UNL     1      43.101 -17.256   2.567  1.00  0.00    -0.059 A 
HETATM   29  C   UNL     1      43.021 -18.742   2.355  1.00  0.00     0.048 C 
HETATM   30  C   UNL     1      43.044 -16.390   1.459  1.00  0.00     0.009 A 
ENDBRANCH   1  21
TORSDOF 5
ENDMDL
MODEL 3
REMARK VINA RESULT:      -8.3      4.225      7.678
REMARK  5 active torsions:
REMARK  status: ('A' for Active; 'I' for Inactive)
REMARK    1  A    between atoms: C_7  and  C_8 
REMARK    2  A    between atoms: C_11  and  N_12 
REMARK       I    between atoms: N_12  and  C_13 
REMARK    3  A    between atoms: C_13  and  C_14 
REMARK    4  A    between atoms: C_16  and  O_17 
REMARK    5  A    between atoms: C_20  and  O_21 
ROOT
HETATM    1  C   UNL     1      43.198 -12.271   5.701  1.00  0.00     0.017 A 
HETATM    2  C   UNL     1      44.094 -12.245   6.777  1.00  0.00     0.018 A 
HETATM    3  C   UNL     1      43.981 -11.279   7.786  1.00  0.00     0.030 A 
HETATM    4  C   UNL     1      42.969 -10.321   7.740  1.00  0.00     0.035 A 
HETATM    5  C   UNL     1      42.100 -10.312   6.644  1.00  0.00     0.030 A 
HETATM    6  C   UNL     1      42.212 -11.279   5.637  1.00  0.00     0.018 A 
ENDROOT
BRANCH   4   7
HETATM    7  N   UNL     1      42.730  -9.373   8.756  1.00  0.00    -0.323 N 
HETATM    8  C   UNL     1      43.462  -8.229   9.018  1.00  0.00     0.256 C 
HETATM    9  O   UNL     1      44.399  -7.780   8.372  1.00  0.00    -0.267 OA
HETATM   10  H   UNL     1      42.036  -9.637   9.444  1.00  0.00     0.169 HD
BRANCH   8  11
HETATM   11  C   UNL     1      43.076  -7.537  10.273  1.00  0.00     0.037 A 
HETATM   12  C   UNL     1      42.624  -6.217  10.182  1.00  0.00     0.054 A 
HETATM   13  C   UNL     1      42.313  -5.503  11.337  1.00  0.00     0.071 A 
HETATM   14  C   UNL     1      42.430  -6.129  12.578  1.00  0.00     0.073 A 
HETATM   15  C   UNL     1      42.856  -7.461  12.674  1.00  0.00     0.071 A 
HETATM   16  C   UNL     1      43.183  -8.169  11.519  1.00  0.00     0.054 A 
BRANCH  13  17
HETATM   17  O   UNL     1      41.915  -4.212  11.120  1.00  0.00    -0.356 OA
HETATM   18  C   UNL     1      42.939  -3.240  10.960  1.00  0.00     0.210 C 
ENDBRANCH  13  17
BRANCH  15  19
HETATM   19  O   UNL     1      42.917  -7.944  13.954  1.00  0.00    -0.356 OA
HETATM   20  C   UNL     1      41.950  -8.919  14.329  1.00  0.00     0.210 C 
ENDBRANCH  15  19
ENDBRANCH   8  11
ENDBRANCH   4   7
BRANCH   1  21
HETATM   21  C   UNL     1      43.234 -13.318   4.682  1.00  0.00     0.180 A 
HETATM   22  N   UNL     1      43.184 -13.193   3.367  1.00  0.00    -0.221 NA
HETATM   23  C   UNL     1      43.157 -14.489   2.918  1.00  0.00     0.093 A 
HETATM   24  C   UNL     1      43.215 -15.361   3.991  1.00  0.00     0.107 A 
HETATM   25  C   UNL     1      43.072 -15.015   1.624  1.00  0.00     0.035 A 
HETATM   26  C   UNL     1      43.201 -16.747   3.891  1.00  0.00     0.046 A 
HETATM   27  O   UNL     1      43.269 -14.616   5.132  1.00  0.00    -0.289 OA
HETATM   28  C   UNL     1      43.123 -17.271   2.589  1.00  0.00    -0.059 A 
HETATM   29  C   UNL     1      43.056 -18.759   2.384  1.00  0.00     0.048 C 
HETATM   30  C   UNL     1      43.048 -16.412   1.477  1.00  0.00     0.009 A 
ENDBRANCH   1  21
TORSDOF 5
ENDMDL
MODEL 4
REMARK VINA RESULT:      -8.2      1.189      2.695
REMARK  5 active torsions:
REMARK  status: ('A' for Active; 'I' for Inactive)
REMARK    1  A    between atoms: C_7  and  C_8 
REMARK    2  A    between atoms: C_11  and  N_12 
REMARK       I    between atoms: N_12  and  C_13 
REMARK    3  A    between atoms: C_13  and  C_14 
REMARK    4  A    between atoms: C_16  and  O_17 
REMARK    5  A    between atoms: C_20  and  O_21 
ROOT
HETATM    1  C   UNL     1      42.446  -8.754  12.385  1.00  0.00     0.017 A 
HETATM    2  C   UNL     1      43.152  -7.821  13.154  1.00  0.00     0.018 A 
HETATM    3  C   UNL     1      42.779  -7.546  14.477  1.00  0.00     0.030 A 
HETATM    4  C   UNL     1      41.692  -8.200  15.057  1.00  0.00     0.035 A 
HETATM    5  C   UNL     1      40.954  -9.098  14.279  1.00  0.00     0.030 A 
HETATM    6  C   UNL     1      41.329  -9.374  12.958  1.00  0.00     0.018 A 
ENDROOT
BRANCH   4   7
HETATM    7  N   UNL     1      41.306  -8.049  16.405  1.00  0.00    -0.323 N 
HETATM    8  C   UNL     1      40.394  -7.143  16.913  1.00  0.00     0.256 C 
HETATM    9  O   UNL     1      39.691  -6.361  16.288  1.00  0.00    -0.267 OA
HETATM   10  H   UNL     1      41.860  -8.566  17.077  1.00  0.00     0.169 HD
BRANCH   8  11
HETATM   11  C   UNL     1      40.345  -7.101  18.397  1.00  0.00     0.037 A 
HETATM   12  C   UNL     1      40.007  -8.276  19.075  1.00  0.00     0.054 A 
HETATM   13  C   UNL     1      39.883  -8.272  20.463  1.00  0.00     0.071 A 
HETATM   14  C   UNL     1      40.128  -7.091  21.166  1.00  0.00     0.073 A 
HETATM   15  C   UNL     1      40.495  -5.917  20.493  1.00  0.00     0.071 A 
HETATM   16  C   UNL     1      40.602  -5.919  19.103  1.00  0.00     0.054 A 
BRANCH  13  17
HETATM   17  O   UNL     1      39.515  -9.472  21.007  1.00  0.00    -0.356 OA
HETATM   18  C   UNL     1      40.462 -10.115  21.849  1.00  0.00     0.210 C 
ENDBRANCH  13  17
BRANCH  15  19
HETATM   19  O   UNL     1      40.709  -4.841  21.312  1.00  0.00    -0.356 OA
HETATM   20  C   UNL     1      40.356  -4.986  22.683  1.00  0.00     0.210 C 
ENDBRANCH  15  19
ENDBRANCH   8  11
ENDBRANCH   4   7
BRANCH   1  21
HETATM   21  C   UNL     1      42.864  -9.128  11.036  1.00  0.00     0.180 A 
HETATM   22  N   UNL     1      42.130  -9.231   9.941  1.00  0.00    -0.221 NA
HETATM   23  C   UNL     1      43.010  -9.702   9.002  1.00  0.00     0.093 A 
HETATM   24  C   UNL     1      44.267  -9.848   9.563  1.00  0.00     0.107 A 
HETATM   25  C   UNL     1      42.828 -10.045   7.657  1.00  0.00     0.035 A 
HETATM   26  C   UNL     1      45.390 -10.311   8.889  1.00  0.00     0.046 A 
HETATM   27  O   UNL     1      44.184  -9.476  10.873  1.00  0.00    -0.289 OA
HETATM   28  C   UNL     1      45.204 -10.646   7.537  1.00  0.00    -0.059 A 
HETATM   29  C   UNL     1      46.352 -11.199   6.739  1.00  0.00     0.048 C 
HETATM   30  C   UNL     1      43.936 -10.524   6.939  1.00  0.00     0.009 A 
ENDBRANCH   1  21
TORSDOF 5
ENDMDL
MODEL 5
REMARK VINA RESULT:      -8.0     24.617     26.664
REMARK  5 active torsions:
REMARK  status: ('A' for Active; 'I' for Inactive)
REMARK    1  A    between atoms: C_7  and  C_8 
REMARK    2  A    between atoms: C_11  and  N_12 
REMARK       I    between atoms: N_12  and  C_13 
REMARK    3  A    between atoms: C_13  and  C_14 
REMARK    4  A    between atoms: C_16  and  O_17 
REMARK    5  A    between atoms: C_20  and  O_21 
ROOT
HETATM    1  C   UNL     1      50.720 -31.290   4.819  1.00  0.00     0.017 A 
HETATM    2  C   UNL     1      51.203 -30.471   3.792  1.00  0.00     0.018 A 
HETATM    3  C   UNL     1      50.372 -30.067   2.739  1.00  0.00     0.030 A 
HETATM    4  C   UNL     1      49.039 -30.474   2.693  1.00  0.00     0.035 A 
HETATM    5  C   UNL     1      48.562 -31.331   3.691  1.00  0.00     0.030 A 
HETATM    6  C   UNL     1      49.393 -31.732   4.744  1.00  0.00     0.018 A 
ENDROOT
BRANCH   4   7
HETATM    7  N   UNL     1      48.113 -30.042   1.721  1.00  0.00    -0.323 N 
HETATM    8  C   UNL     1      47.487 -28.810   1.656  1.00  0.00     0.256 C 
HETATM    9  O   UNL     1      47.675 -27.838   2.374  1.00  0.00    -0.267 OA
HETATM   10  H   UNL     1      47.775 -30.760   1.092  1.00  0.00     0.169 HD
BRANCH   8  11
HETATM   11  C   UNL     1      46.422 -28.727   0.624  1.00  0.00     0.037 A 
HETATM   12  C   UNL     1      45.150 -29.204   0.955  1.00  0.00     0.054 A 
HETATM   13  C   UNL     1      44.134 -29.208   0.000  1.00  0.00     0.071 A 
HETATM   14  C   UNL     1      44.396 -28.706  -1.275  1.00  0.00     0.073 A 
HETATM   15  C   UNL     1      45.661 -28.200  -1.604  1.00  0.00     0.071 A 
HETATM   16  C   UNL     1      46.680 -28.212  -0.653  1.00  0.00     0.054 A 
BRANCH  13  17
HETATM   17  O   UNL     1      42.946 -29.730   0.433  1.00  0.00    -0.356 OA
HETATM   18  C   UNL     1      42.393 -29.175   1.619  1.00  0.00     0.210 C 
ENDBRANCH  13  17
BRANCH  15  19
HETATM   19  O   UNL     1      45.768 -27.736  -2.887  1.00  0.00    -0.356 OA
HETATM   20  C   UNL     1      45.158 -28.512  -3.913  1.00  0.00     0.210 C 
ENDBRANCH  15  19
ENDBRANCH   8  11
ENDBRANCH   4   7
BRANCH   1  21
HETATM   21  C   UNL     1      51.535 -31.653   5.976  1.00  0.00     0.180 A 
HETATM   22  N   UNL     1      51.386 -32.673   6.804  1.00  0.00    -0.221 NA
HETATM   23  C   UNL     1      52.363 -32.473   7.746  1.00  0.00     0.093 A 
HETATM   24  C   UNL     1      53.091 -31.337   7.437  1.00  0.00     0.107 A 
HETATM   25  C   UNL     1      52.694 -33.194   8.898  1.00  0.00     0.035 A 
HETATM   26  C   UNL     1      54.150 -30.843   8.187  1.00  0.00     0.046 A 
HETATM   27  O   UNL     1      52.567 -30.804   6.295  1.00  0.00    -0.289 OA
HETATM   28  C   UNL     1      54.486 -31.575   9.339  1.00  0.00    -0.059 A 
HETATM   29  C   UNL     1      55.589 -31.091  10.238  1.00  0.00     0.048 C 
HETATM   30  C   UNL     1      53.756 -32.726   9.690  1.00  0.00     0.009 A 
ENDBRANCH   1  21
TORSDOF 5
ENDMDL
MODEL 6
REMARK VINA RESULT:      -7.9     11.245     15.899
REMARK  5 active torsions:
REMARK  status: ('A' for Active; 'I' for Inactive)
REMARK    1  A    between atoms: C_7  and  C_8 
REMARK    2  A    between atoms: C_11  and  N_12 
REMARK       I    between atoms: N_12  and  C_13 
REMARK    3  A    between atoms: C_13  and  C_14 
REMARK    4  A    between atoms: C_16  and  O_17 
REMARK    5  A    between atoms: C_20  and  O_21 
ROOT
HETATM    1  C   UNL     1      39.806 -12.912  -0.723  1.00  0.00     0.017 A 
HETATM    2  C   UNL     1      39.574 -14.290  -0.633  1.00  0.00     0.018 A 
HETATM    3  C   UNL     1      40.204 -15.065   0.350  1.00  0.00     0.030 A 
HETATM    4  C   UNL     1      41.079 -14.477   1.263  1.00  0.00     0.035 A 
HETATM    5  C   UNL     1      41.352 -13.110   1.149  1.00  0.00     0.030 A 
HETATM    6  C   UNL     1      40.719 -12.335   0.169  1.00  0.00     0.018 A 
ENDROOT
BRANCH   4   7
HETATM    7  N   UNL     1      41.684 -15.166   2.335  1.00  0.00    -0.323 N 
HETATM    8  C   UNL     1      42.931 -15.764   2.343  1.00  0.00     0.256 C 
HETATM    9  O   UNL     1      43.776 -15.740   1.459  1.00  0.00    -0.267 OA
HETATM   10  H   UNL     1      41.081 -15.356   3.125  1.00  0.00     0.169 HD
BRANCH   8  11
HETATM   11  C   UNL     1      43.205 -16.575   3.556  1.00  0.00     0.037 A 
HETATM   12  C   UNL     1      43.598 -17.904   3.382  1.00  0.00     0.054 A 
HETATM   13  C   UNL     1      43.803 -18.725   4.489  1.00  0.00     0.071 A 
HETATM   14  C   UNL     1      43.638 -18.195   5.770  1.00  0.00     0.073 A 
HETATM   15  C   UNL     1      43.271 -16.855   5.952  1.00  0.00     0.071 A 
HETATM   16  C   UNL     1      43.051 -16.040   4.842  1.00  0.00     0.054 A 
BRANCH  13  17
HETATM   17  O   UNL     1      44.152 -20.013   4.188  1.00  0.00    -0.356 OA
HETATM   18  C   UNL     1      44.294 -20.913   5.279  1.00  0.00     0.210 C 
ENDBRANCH  13  17
BRANCH  15  19
HETATM   19  O   UNL     1      43.154 -16.475   7.262  1.00  0.00    -0.356 OA
HETATM   20  C   UNL     1      42.865 -15.105   7.519  1.00  0.00     0.210 C 
ENDBRANCH  15  19
ENDBRANCH   8  11
ENDBRANCH   4   7
BRANCH   1  21
HETATM   21  C   UNL     1      39.096 -12.062  -1.676  1.00  0.00     0.180 A 
HETATM   22  N   UNL     1      39.577 -11.095  -2.439  1.00  0.00    -0.221 NA
HETATM   23  C   UNL     1      38.464 -10.582  -3.054  1.00  0.00     0.093 A 
HETATM   24  C   UNL     1      37.338 -11.280  -2.652  1.00  0.00     0.107 A 
HETATM   25  C   UNL     1      38.314  -9.520  -3.953  1.00  0.00     0.035 A 
HETATM   26  C   UNL     1      36.043 -11.014  -3.079  1.00  0.00     0.046 A 
HETATM   27  O   UNL     1      37.736 -12.239  -1.768  1.00  0.00    -0.289 OA
HETATM   28  C   UNL     1      35.898  -9.953  -3.989  1.00  0.00    -0.059 A 
HETATM   29  C   UNL     1      34.529  -9.562  -4.472  1.00  0.00     0.048 C 
HETATM   30  C   UNL     1      37.020  -9.213  -4.406  1.00  0.00     0.009 A 
ENDBRANCH   1  21
TORSDOF 5
ENDMDL
MODEL 7
REMARK VINA RESULT:      -7.7     25.084     26.274
REMARK  5 active torsions:
REMARK  status: ('A' for Active; 'I' for Inactive)
REMARK    1  A    between atoms: C_7  and  C_8 
REMARK    2  A    between atoms: C_11  and  N_12 
REMARK       I    between atoms: N_12  and  C_13 
REMARK    3  A    between atoms: C_13  and  C_14 
REMARK    4  A    between atoms: C_16  and  O_17 
REMARK    5  A    between atoms: C_20  and  O_21 
ROOT
HETATM    1  C   UNL     1      48.766 -29.709   2.030  1.00  0.00     0.017 A 
HETATM    2  C   UNL     1      49.909 -30.418   1.641  1.00  0.00     0.018 A 
HETATM    3  C   UNL     1      50.880 -30.793   2.580  1.00  0.00     0.030 A 
HETATM    4  C   UNL     1      50.725 -30.468   3.928  1.00  0.00     0.035 A 
HETATM    5  C   UNL     1      49.609 -29.718   4.315  1.00  0.00     0.030 A 
HETATM    6  C   UNL     1      48.639 -29.346   3.376  1.00  0.00     0.018 A 
ENDROOT
BRANCH   4   7
HETATM    7  N   UNL     1      51.606 -30.883   4.948  1.00  0.00    -0.323 N 
HETATM    8  C   UNL     1      51.468 -31.987   5.768  1.00  0.00     0.256 C 
HETATM    9  O   UNL     1      50.608 -32.856   5.713  1.00  0.00    -0.267 OA
HETATM   10  H   UNL     1      52.335 -30.223   5.188  1.00  0.00     0.169 HD
BRANCH   8  11
HETATM   11  C   UNL     1      52.460 -32.049   6.871  1.00  0.00     0.037 A 
HETATM   12  C   UNL     1      53.715 -31.469   6.659  1.00  0.00     0.054 A 
HETATM   13  C   UNL     1      54.702 -31.559   7.638  1.00  0.00     0.071 A 
HETATM   14  C   UNL     1      54.414 -32.207   8.839  1.00  0.00     0.073 A 
HETATM   15  C   UNL     1      53.149 -32.766   9.070  1.00  0.00     0.071 A 
HETATM   16  C   UNL     1      52.167 -32.689   8.083  1.00  0.00     0.054 A 
BRANCH  13  17
HETATM   17  O   UNL     1      55.896 -30.983   7.299  1.00  0.00    -0.356 OA
HETATM   18  C   UNL     1      56.536 -31.469   6.127  1.00  0.00     0.210 C 
ENDBRANCH  13  17
BRANCH  15  19
HETATM   19  O   UNL     1      53.010 -33.362  10.294  1.00  0.00    -0.356 OA
HETATM   20  C   UNL     1      53.699 -32.770  11.389  1.00  0.00     0.210 C 
ENDBRANCH  15  19
ENDBRANCH   8  11
ENDBRANCH   4   7
BRANCH   1  21
HETATM   21  C   UNL     1      47.695 -29.382   1.092  1.00  0.00     0.180 A 
HETATM   22  N   UNL     1      46.394 -29.581   1.221  1.00  0.00    -0.221 NA
HETATM   23  C   UNL     1      45.882 -29.176   0.015  1.00  0.00     0.093 A 
HETATM   24  C   UNL     1      46.902 -28.721  -0.802  1.00  0.00     0.107 A 
HETATM   25  C   UNL     1      44.571 -29.172  -0.475  1.00  0.00     0.035 A 
HETATM   26  C   UNL     1      46.731 -28.244  -2.096  1.00  0.00     0.046 A 
HETATM   27  O   UNL     1      48.073 -28.846  -0.116  1.00  0.00    -0.289 OA
HETATM   28  C   UNL     1      45.412 -28.234  -2.582  1.00  0.00    -0.059 A 
HETATM   29  C   UNL     1      45.135 -27.778  -3.987  1.00  0.00     0.048 C 
HETATM   30  C   UNL     1      44.353 -28.704  -1.782  1.00  0.00     0.009 A 
ENDBRANCH   1  21
TORSDOF 5
ENDMDL
MODEL 8
REMARK VINA RESULT:      -7.7     25.052     26.268
REMARK  5 active torsions:
REMARK  status: ('A' for Active; 'I' for Inactive)
REMARK    1  A    between atoms: C_7  and  C_8 
REMARK    2  A    between atoms: C_11  and  N_12 
REMARK       I    between atoms: N_12  and  C_13 
REMARK    3  A    between atoms: C_13  and  C_14 
REMARK    4  A    between atoms: C_16  and  O_17 
REMARK    5  A    between atoms: C_20  and  O_21 
ROOT
HETATM    1  C   UNL     1      48.944 -29.702   2.115  1.00  0.00     0.017 A 
HETATM    2  C   UNL     1      50.076 -30.404   1.683  1.00  0.00     0.018 A 
HETATM    3  C   UNL     1      51.065 -30.807   2.589  1.00  0.00     0.030 A 
HETATM    4  C   UNL     1      50.942 -30.518   3.948  1.00  0.00     0.035 A 
HETATM    5  C   UNL     1      49.837 -29.777   4.380  1.00  0.00     0.030 A 
HETATM    6  C   UNL     1      48.848 -29.376   3.474  1.00  0.00     0.018 A 
ENDROOT
BRANCH   4   7
HETATM    7  N   UNL     1      51.843 -30.964   4.936  1.00  0.00    -0.323 N 
HETATM    8  C   UNL     1      51.600 -31.901   5.924  1.00  0.00     0.256 C 
HETATM    9  O   UNL     1      50.593 -32.579   6.078  1.00  0.00    -0.267 OA
HETATM   10  H   UNL     1      52.705 -30.438   5.008  1.00  0.00     0.169 HD
BRANCH   8  11
HETATM   11  C   UNL     1      52.685 -32.015   6.930  1.00  0.00     0.037 A 
HETATM   12  C   UNL     1      52.340 -32.411   8.226  1.00  0.00     0.054 A 
HETATM   13  C   UNL     1      53.312 -32.469   9.223  1.00  0.00     0.071 A 
HETATM   14  C   UNL     1      54.634 -32.155   8.904  1.00  0.00     0.073 A 
HETATM   15  C   UNL     1      54.992 -31.785   7.600  1.00  0.00     0.071 A 
HETATM   16  C   UNL     1      54.015 -31.712   6.608  1.00  0.00     0.054 A 
BRANCH  13  17
HETATM   17  O   UNL     1      52.845 -32.836  10.455  1.00  0.00    -0.356 OA
HETATM   18  C   UNL     1      51.509 -32.469  10.773  1.00  0.00     0.210 C 
ENDBRANCH  13  17
BRANCH  15  19
HETATM   19  O   UNL     1      56.323 -31.513   7.436  1.00  0.00    -0.356 OA
HETATM   20  C   UNL     1      56.759 -31.155   6.129  1.00  0.00     0.210 C 
ENDBRANCH  15  19
ENDBRANCH   8  11
ENDBRANCH   4   7
BRANCH   1  21
HETATM   21  C   UNL     1      47.853 -29.347   1.211  1.00  0.00     0.180 A 
HETATM   22  N   UNL     1      46.550 -29.459   1.403  1.00  0.00    -0.221 NA
HETATM   23  C   UNL     1      46.009 -29.071   0.204  1.00  0.00     0.093 A 
HETATM   24  C   UNL     1      47.017 -28.713  -0.674  1.00  0.00     0.107 A 
HETATM   25  C   UNL     1      44.680 -29.005  -0.230  1.00  0.00     0.035 A 
HETATM   26  C   UNL     1      46.817 -28.278  -1.979  1.00  0.00     0.046 A 
HETATM   27  O   UNL     1      48.209 -28.883  -0.033  1.00  0.00    -0.289 OA
HETATM   28  C   UNL     1      45.481 -28.205  -2.408  1.00  0.00    -0.059 A 
HETATM   29  C   UNL     1      45.170 -27.788  -3.818  1.00  0.00     0.048 C 
HETATM   30  C   UNL     1      44.433 -28.576  -1.545  1.00  0.00     0.009 A 
ENDBRANCH   1  21
TORSDOF 5
ENDMDL
MODEL 9
REMARK VINA RESULT:      -7.6     24.870     26.632
REMARK  5 active torsions:
REMARK  status: ('A' for Active; 'I' for Inactive)
REMARK    1  A    between atoms: C_7  and  C_8 
REMARK    2  A    between atoms: C_11  and  N_12 
REMARK       I    between atoms: N_12  and  C_13 
REMARK    3  A    between atoms: C_13  and  C_14 
REMARK    4  A    between atoms: C_16  and  O_17 
REMARK    5  A    between atoms: C_20  and  O_21 
ROOT
HETATM    1  C   UNL     1      50.777 -31.389   5.010  1.00  0.00     0.017 A 
HETATM    2  C   UNL     1      51.179 -30.441   4.060  1.00  0.00     0.018 A 
HETATM    3  C   UNL     1      50.323 -30.054   3.020  1.00  0.00     0.030 A 
HETATM    4  C   UNL     1      49.047 -30.606   2.910  1.00  0.00     0.035 A 
HETATM    5  C   UNL     1      48.657 -31.588   3.827  1.00  0.00     0.030 A 
HETATM    6  C   UNL     1      49.512 -31.972   4.867  1.00  0.00     0.018 A 
ENDROOT
BRANCH   4   7
HETATM    7  N   UNL     1      48.093 -30.209   1.950  1.00  0.00    -0.323 N 
HETATM    8  C   UNL     1      47.469 -28.978   1.857  1.00  0.00     0.256 C 
HETATM    9  O   UNL     1      47.682 -27.980   2.531  1.00  0.00    -0.267 OA
HETATM   10  H   UNL     1      47.734 -30.949   1.361  1.00  0.00     0.169 HD
BRANCH   8  11
HETATM   11  C   UNL     1      46.373 -28.931   0.856  1.00  0.00     0.037 A 
HETATM   12  C   UNL     1      46.698 -28.576  -0.457  1.00  0.00     0.054 A 
HETATM   13  C   UNL     1      45.696 -28.452  -1.417  1.00  0.00     0.071 A 
HETATM   14  C   UNL     1      44.373 -28.714  -1.059  1.00  0.00     0.073 A 
HETATM   15  C   UNL     1      44.044 -29.098   0.249  1.00  0.00     0.071 A 
HETATM   16  C   UNL     1      45.046 -29.205   1.212  1.00  0.00     0.054 A 
BRANCH  13  17
HETATM   17  O   UNL     1      46.135 -28.067  -2.654  1.00  0.00    -0.356 OA
HETATM   18  C   UNL     1      45.142 -27.788  -3.632  1.00  0.00     0.210 C 
ENDBRANCH  13  17
BRANCH  15  19
HETATM   19  O   UNL     1      42.710 -29.328   0.451  1.00  0.00    -0.356 OA
HETATM   20  C   UNL     1      42.348 -30.109   1.584  1.00  0.00     0.210 C 
ENDBRANCH  15  19
ENDBRANCH   8  11
ENDBRANCH   4   7
BRANCH   1  21
HETATM   21  C   UNL     1      51.610 -31.746   6.156  1.00  0.00     0.180 A 
HETATM   22  N   UNL     1      51.470 -32.756   6.997  1.00  0.00    -0.221 NA
HETATM   23  C   UNL     1      52.465 -32.552   7.919  1.00  0.00     0.093 A 
HETATM   24  C   UNL     1      53.193 -31.424   7.585  1.00  0.00     0.107 A 
HETATM   25  C   UNL     1      52.812 -33.264   9.073  1.00  0.00     0.035 A 
HETATM   26  C   UNL     1      54.269 -30.930   8.312  1.00  0.00     0.046 A 
HETATM   27  O   UNL     1      52.654 -30.900   6.448  1.00  0.00    -0.289 OA
HETATM   28  C   UNL     1      54.620 -31.652   9.465  1.00  0.00    -0.059 A 
HETATM   29  C   UNL     1      55.743 -31.166  10.340  1.00  0.00     0.048 C 
HETATM   30  C   UNL     1      53.890 -32.795   9.841  1.00  0.00     0.009 A 
ENDBRANCH   1  21
TORSDOF 5
ENDMDL
MODEL 10
REMARK VINA RESULT:      -7.4      6.378     10.134
REMARK  5 active torsions:
REMARK  status: ('A' for Active; 'I' for Inactive)
REMARK    1  A    between atoms: C_7  and  C_8 
REMARK    2  A    between atoms: C_11  and  N_12 
REMARK       I    between atoms: N_12  and  C_13 
REMARK    3  A    between atoms: C_13  and  C_14 
REMARK    4  A    between atoms: C_16  and  O_17 
REMARK    5  A    between atoms: C_20  and  O_21 
ROOT
HETATM    1  C   UNL     1      42.760 -14.264   5.708  1.00  0.00     0.017 A 
HETATM    2  C   UNL     1      41.495 -13.672   5.606  1.00  0.00     0.018 A 
HETATM    3  C   UNL     1      41.305 -12.318   5.913  1.00  0.00     0.030 A 
HETATM    4  C   UNL     1      42.377 -11.529   6.327  1.00  0.00     0.035 A 
HETATM    5  C   UNL     1      43.634 -12.125   6.477  1.00  0.00     0.030 A 
HETATM    6  C   UNL     1      43.823 -13.477   6.168  1.00  0.00     0.018 A 
ENDROOT
BRANCH   4   7
HETATM    7  N   UNL     1      42.291 -10.142   6.569  1.00  0.00    -0.323 N 
HETATM    8  C   UNL     1      42.558  -9.485   7.756  1.00  0.00     0.256 C 
HETATM    9  O   UNL     1      42.996  -9.965   8.793  1.00  0.00    -0.267 OA
HETATM   10  H   UNL     1      41.856  -9.598   5.834  1.00  0.00     0.169 HD
BRANCH   8  11
HETATM   11  C   UNL     1      42.191  -8.046   7.748  1.00  0.00     0.037 A 
HETATM   12  C   UNL     1      41.767  -7.485   6.540  1.00  0.00     0.054 A 
HETATM   13  C   UNL     1      41.475  -6.124   6.465  1.00  0.00     0.071 A 
HETATM   14  C   UNL     1      41.584  -5.340   7.614  1.00  0.00     0.073 A 
HETATM   15  C   UNL     1      41.982  -5.903   8.834  1.00  0.00     0.071 A 
HETATM   16  C   UNL     1      42.289  -7.261   8.904  1.00  0.00     0.054 A 
BRANCH  13  17
HETATM   17  O   UNL     1      41.103  -5.688   5.223  1.00  0.00    -0.356 OA
HETATM   18  C   UNL     1      41.541  -6.458   4.111  1.00  0.00     0.210 C 
ENDBRANCH  13  17
BRANCH  15  19
HETATM   19  O   UNL     1      42.037  -5.014   9.874  1.00  0.00    -0.356 OA
HETATM   20  C   UNL     1      42.307  -5.542  11.168  1.00  0.00     0.210 C 
ENDBRANCH  15  19
ENDBRANCH   8  11
ENDBRANCH   4   7
BRANCH   1  21
HETATM   21  C   UNL     1      43.008 -15.648   5.309  1.00  0.00     0.180 A 
HETATM   22  N   UNL     1      43.422 -16.661   6.051  1.00  0.00    -0.221 NA
HETATM   23  C   UNL     1      43.571 -17.684   5.151  1.00  0.00     0.093 A 
HETATM   24  C   UNL     1      43.216 -17.254   3.884  1.00  0.00     0.107 A 
HETATM   25  C   UNL     1      44.013 -19.001   5.318  1.00  0.00     0.035 A 
HETATM   26  C   UNL     1      43.256 -18.039   2.739  1.00  0.00     0.046 A 
HETATM   27  O   UNL     1      42.847 -15.945   3.977  1.00  0.00    -0.289 OA
HETATM   28  C   UNL     1      43.692 -19.364   2.912  1.00  0.00    -0.059 A 
HETATM   29  C   UNL     1      43.812 -20.274   1.721  1.00  0.00     0.048 C 
HETATM   30  C   UNL     1      44.075 -19.828   4.184  1.00  0.00     0.009 A 
ENDBRANCH   1  21
TORSDOF 5
ENDMDL
