MODEL 1
REMARK VINA RESULT:      -9.7      0.000      0.000
REMARK  3 active torsions:
REMARK  status: ('A' for Active; 'I' for Inactive)
REMARK    1  A    between atoms: N_5  and  C_6 
REMARK    2  A    between atoms: C_7  and  C_8 
REMARK       I    between atoms: C_8  and  N_9 
REMARK    3  A    between atoms: N_9  and  N_10 
ROOT
HETATM    1  C   UNL     1      41.252 -12.278   2.418  1.00  0.00     0.056 C 
HETATM    2  C   UNL     1      41.749 -13.173   3.540  1.00  0.00     0.158 C 
HETATM    3  C   UNL     1      42.563 -14.366   3.033  1.00  0.00     0.267 C 
HETATM    4  O   UNL     1      43.553 -14.257   2.315  1.00  0.00    -0.269 OA
HETATM    5  N   UNL     1      42.100 -15.500   3.669  1.00  0.00    -0.230 N 
HETATM    6  C   UNL     1      41.059 -15.176   4.514  1.00  0.00     0.333 C 
HETATM    7  O   UNL     1      40.527 -15.895   5.348  1.00  0.00    -0.246 OA
HETATM    8  N   UNL     1      40.686 -13.849   4.269  1.00  0.00    -0.309 N 
HETATM    9  C   UNL     1      39.910 -13.090   5.256  1.00  0.00     0.134 C 
HETATM   10  C   UNL     1      40.798 -12.522   6.388  1.00  0.00     0.061 C 
HETATM   11  C   UNL     1      42.153 -12.150   5.870  1.00  0.00    -0.018 A 
HETATM   12  C   UNL     1      42.557 -12.443   4.580  1.00  0.00     0.055 A 
HETATM   13  N   UNL     1      43.873 -12.083   4.449  1.00  0.00    -0.356 N 
HETATM   14  H   UNL     1      44.447 -12.234   3.626  1.00  0.00     0.166 HD
HETATM   15  C   UNL     1      44.351 -11.634   5.661  1.00  0.00     0.043 A 
HETATM   16  C   UNL     1      43.281 -11.630   6.562  1.00  0.00    -0.001 A 
HETATM   17  C   UNL     1      45.648 -11.262   6.032  1.00  0.00     0.030 A 
HETATM   18  C   UNL     1      45.858 -10.870   7.357  1.00  0.00     0.002 A 
HETATM   19  C   UNL     1      44.807 -10.840   8.272  1.00  0.00     0.001 A 
HETATM   20  C   UNL     1      43.515 -11.218   7.888  1.00  0.00     0.014 A 
ENDROOT
BRANCH   5  21
HETATM   21  C   UNL     1      42.873 -16.688   3.729  1.00  0.00     0.063 A 
HETATM   22  C   UNL     1      43.481 -17.137   4.919  1.00  0.00     0.060 A 
HETATM   23  C   UNL     1      44.041 -18.424   4.986  1.00  0.00     0.019 A 
HETATM   24  C   UNL     1      44.043 -19.250   3.864  1.00  0.00     0.001 A 
HETATM   25  C   UNL     1      43.506 -18.791   2.666  1.00  0.00     0.002 A 
HETATM   26  C   UNL     1      42.932 -17.518   2.596  1.00  0.00     0.031 A 
BRANCH  22  27
HETATM   27  C   UNL     1      43.678 -16.275   6.116  1.00  0.00     0.268 C 
HETATM   28  N   UNL     1      43.057 -16.716   7.282  1.00  0.00    -0.290 N 
HETATM   29  H   UNL     1      42.400 -17.494   7.259  1.00  0.00     0.183 HD
HETATM   30  O   UNL     1      44.275 -15.205   6.035  1.00  0.00    -0.266 OA
BRANCH  28  31
HETATM   31  N   UNL     1      43.101 -15.904   8.435  1.00  0.00    -0.247 NA
HETATM   32  H   UNL     1      42.199 -15.413   8.484  1.00  0.00     0.143 HD
HETATM   33  H   UNL     1      43.756 -15.139   8.234  1.00  0.00     0.143 HD
ENDBRANCH  28  31
ENDBRANCH  22  27
ENDBRANCH   5  21
TORSDOF 3
ENDMDL
MODEL 2
REMARK VINA RESULT:      -9.5      2.425      5.310
REMARK  3 active torsions:
REMARK  status: ('A' for Active; 'I' for Inactive)
REMARK    1  A    between atoms: N_5  and  C_6 
REMARK    2  A    between atoms: C_7  and  C_8 
REMARK       I    between atoms: C_8  and  N_9 
REMARK    3  A    between atoms: N_9  and  N_10 
ROOT
HETATM    1  C   UNL     1      39.237 -12.639   3.993  1.00  0.00     0.056 C 
HETATM    2  C   UNL     1      40.429 -13.157   3.206  1.00  0.00     0.158 C 
HETATM    3  C   UNL     1      40.845 -14.570   3.620  1.00  0.00     0.267 C 
HETATM    4  O   UNL     1      40.081 -15.531   3.618  1.00  0.00    -0.269 OA
HETATM    5  N   UNL     1      42.215 -14.579   3.793  1.00  0.00    -0.230 N 
HETATM    6  C   UNL     1      42.727 -13.319   3.561  1.00  0.00     0.333 C 
HETATM    7  O   UNL     1      43.904 -13.002   3.463  1.00  0.00    -0.246 OA
HETATM    8  N   UNL     1      41.660 -12.420   3.448  1.00  0.00    -0.309 N 
HETATM    9  C   UNL     1      41.841 -11.113   2.807  1.00  0.00     0.134 C 
HETATM   10  C   UNL     1      41.791 -11.204   1.264  1.00  0.00     0.061 C 
HETATM   11  C   UNL     1      40.834 -12.268   0.822  1.00  0.00    -0.018 A 
HETATM   12  C   UNL     1      40.223 -13.130   1.715  1.00  0.00     0.055 A 
HETATM   13  N   UNL     1      39.504 -14.051   1.000  1.00  0.00    -0.356 N 
HETATM   14  H   UNL     1      38.998 -14.839   1.391  1.00  0.00     0.166 HD
HETATM   15  C   UNL     1      39.705 -13.848  -0.349  1.00  0.00     0.043 A 
HETATM   16  C   UNL     1      40.507 -12.710  -0.489  1.00  0.00    -0.001 A 
HETATM   17  C   UNL     1      39.265 -14.598  -1.445  1.00  0.00     0.030 A 
HETATM   18  C   UNL     1      39.649 -14.172  -2.720  1.00  0.00     0.002 A 
HETATM   19  C   UNL     1      40.433 -13.033  -2.890  1.00  0.00     0.001 A 
HETATM   20  C   UNL     1      40.869 -12.294  -1.785  1.00  0.00     0.014 A 
ENDROOT
BRANCH   5  21
HETATM   21  C   UNL     1      42.958 -15.787   3.789  1.00  0.00     0.063 A 
HETATM   22  C   UNL     1      43.463 -16.369   4.970  1.00  0.00     0.060 A 
HETATM   23  C   UNL     1      43.991 -17.671   4.947  1.00  0.00     0.019 A 
HETATM   24  C   UNL     1      44.064 -18.381   3.751  1.00  0.00     0.001 A 
HETATM   25  C   UNL     1      43.630 -17.789   2.569  1.00  0.00     0.002 A 
HETATM   26  C   UNL     1      43.088 -16.501   2.585  1.00  0.00     0.031 A 
BRANCH  22  27
HETATM   27  C   UNL     1      43.584 -15.637   6.260  1.00  0.00     0.268 C 
HETATM   28  N   UNL     1      43.221 -16.357   7.395  1.00  0.00    -0.290 N 
HETATM   29  H   UNL     1      42.768 -17.265   7.312  1.00  0.00     0.183 HD
HETATM   30  O   UNL     1      43.897 -14.449   6.287  1.00  0.00    -0.266 OA
BRANCH  28  31
HETATM   31  N   UNL     1      43.200 -15.704   8.646  1.00  0.00    -0.247 NA
HETATM   32  H   UNL     1      43.977 -15.031   8.640  1.00  0.00     0.143 HD
HETATM   33  H   UNL     1      43.510 -16.391   9.343  1.00  0.00     0.143 HD
ENDBRANCH  28  31
ENDBRANCH  22  27
ENDBRANCH   5  21
TORSDOF 3
ENDMDL
MODEL 3
REMARK VINA RESULT:      -9.1      2.701      6.328
REMARK  3 active torsions:
REMARK  status: ('A' for Active; 'I' for Inactive)
REMARK    1  A    between atoms: N_5  and  C_6 
REMARK    2  A    between atoms: C_7  and  C_8 
REMARK       I    between atoms: C_8  and  N_9 
REMARK    3  A    between atoms: N_9  and  N_10 
ROOT
HETATM    1  C   UNL     1      43.955 -11.183   4.865  1.00  0.00     0.056 C 
HETATM    2  C   UNL     1      42.672 -11.868   4.430  1.00  0.00     0.158 C 
HETATM    3  C   UNL     1      41.927 -11.098   3.337  1.00  0.00     0.267 C 
HETATM    4  O   UNL     1      42.437 -10.772   2.269  1.00  0.00    -0.269 OA
HETATM    5  N   UNL     1      40.597 -11.023   3.698  1.00  0.00    -0.230 N 
HETATM    6  C   UNL     1      40.404 -11.640   4.917  1.00  0.00     0.333 C 
HETATM    7  O   UNL     1      39.338 -11.905   5.455  1.00  0.00    -0.246 OA
HETATM    8  N   UNL     1      41.656 -11.932   5.470  1.00  0.00    -0.309 N 
HETATM    9  C   UNL     1      41.795 -12.931   6.535  1.00  0.00     0.134 C 
HETATM   10  C   UNL     1      41.817 -14.376   5.985  1.00  0.00     0.061 C 
HETATM   11  C   UNL     1      42.487 -14.430   4.647  1.00  0.00    -0.018 A 
HETATM   12  C   UNL     1      42.874 -13.287   3.969  1.00  0.00     0.055 A 
HETATM   13  N   UNL     1      43.347 -13.658   2.737  1.00  0.00    -0.356 N 
HETATM   14  H   UNL     1      43.648 -13.024   2.004  1.00  0.00     0.166 HD
HETATM   15  C   UNL     1      43.197 -15.019   2.576  1.00  0.00     0.043 A 
HETATM   16  C   UNL     1      42.693 -15.534   3.775  1.00  0.00    -0.001 A 
HETATM   17  C   UNL     1      43.440 -15.822   1.455  1.00  0.00     0.030 A 
HETATM   18  C   UNL     1      43.166 -17.189   1.565  1.00  0.00     0.002 A 
HETATM   19  C   UNL     1      42.681 -17.731   2.752  1.00  0.00     0.001 A 
HETATM   20  C   UNL     1      42.439 -16.916   3.864  1.00  0.00     0.014 A 
ENDROOT
BRANCH   5  21
HETATM   21  C   UNL     1      39.583 -10.732   2.749  1.00  0.00     0.063 A 
HETATM   22  C   UNL     1      38.950 -11.735   1.985  1.00  0.00     0.060 A 
HETATM   23  C   UNL     1      37.805 -11.432   1.231  1.00  0.00     0.019 A 
HETATM   24  C   UNL     1      37.311 -10.130   1.192  1.00  0.00     0.001 A 
HETATM   25  C   UNL     1      37.968  -9.120   1.888  1.00  0.00     0.002 A 
HETATM   26  C   UNL     1      39.098  -9.416   2.655  1.00  0.00     0.031 A 
BRANCH  22  27
HETATM   27  C   UNL     1      39.493 -13.112   1.827  1.00  0.00     0.268 C 
HETATM   28  N   UNL     1      38.843 -14.101   2.562  1.00  0.00    -0.290 N 
HETATM   29  H   UNL     1      38.147 -13.854   3.263  1.00  0.00     0.183 HD
HETATM   30  O   UNL     1      40.502 -13.323   1.160  1.00  0.00    -0.266 OA
BRANCH  28  31
HETATM   31  N   UNL     1      39.360 -15.413   2.557  1.00  0.00    -0.247 NA
HETATM   32  H   UNL     1      40.344 -15.342   2.267  1.00  0.00     0.143 HD
HETATM   33  H   UNL     1      38.932 -15.897   1.760  1.00  0.00     0.143 HD
ENDBRANCH  28  31
ENDBRANCH  22  27
ENDBRANCH   5  21
TORSDOF 3
ENDMDL
MODEL 4
REMARK VINA RESULT:      -8.9      2.215      3.435
REMARK  3 active torsions:
REMARK  status: ('A' for Active; 'I' for Inactive)
REMARK    1  A    between atoms: N_5  and  C_6 
REMARK    2  A    between atoms: C_7  and  C_8 
REMARK       I    between atoms: C_8  and  N_9 
REMARK    3  A    between atoms: N_9  and  N_10 
ROOT
HETATM    1  C   UNL     1      42.397 -10.345   3.921  1.00  0.00     0.056 C 
HETATM    2  C   UNL     1      42.189 -11.173   5.177  1.00  0.00     0.158 C 
HETATM    3  C   UNL     1      42.720 -12.602   5.041  1.00  0.00     0.267 C 
HETATM    4  O   UNL     1      43.877 -12.870   4.729  1.00  0.00    -0.269 OA
HETATM    5  N   UNL     1      41.748 -13.465   5.505  1.00  0.00    -0.230 N 
HETATM    6  C   UNL     1      40.635 -12.753   5.902  1.00  0.00     0.333 C 
HETATM    7  O   UNL     1      39.661 -13.174   6.510  1.00  0.00    -0.246 OA
HETATM    8  N   UNL     1      40.790 -11.423   5.492  1.00  0.00    -0.309 N 
HETATM    9  C   UNL     1      39.999 -10.349   6.103  1.00  0.00     0.134 C 
HETATM   10  C   UNL     1      40.583  -9.890   7.460  1.00  0.00     0.061 C 
HETATM   11  C   UNL     1      42.078  -9.979   7.458  1.00  0.00    -0.018 A 
HETATM   12  C   UNL     1      42.782 -10.551   6.413  1.00  0.00     0.055 A 
HETATM   13  N   UNL     1      44.108 -10.586   6.757  1.00  0.00    -0.356 N 
HETATM   14  H   UNL     1      44.851 -11.002   6.205  1.00  0.00     0.166 HD
HETATM   15  C   UNL     1      44.264 -10.117   8.044  1.00  0.00     0.043 A 
HETATM   16  C   UNL     1      43.009  -9.694   8.494  1.00  0.00    -0.001 A 
HETATM   17  C   UNL     1      45.408 -10.064   8.847  1.00  0.00     0.030 A 
HETATM   18  C   UNL     1      45.269  -9.561  10.144  1.00  0.00     0.002 A 
HETATM   19  C   UNL     1      44.034  -9.116  10.613  1.00  0.00     0.001 A 
HETATM   20  C   UNL     1      42.897  -9.178   9.799  1.00  0.00     0.014 A 
ENDROOT
BRANCH   5  21
HETATM   21  C   UNL     1      42.054 -14.798   5.882  1.00  0.00     0.063 A 
HETATM   22  C   UNL     1      42.027 -15.870   4.966  1.00  0.00     0.060 A 
HETATM   23  C   UNL     1      42.554 -17.121   5.326  1.00  0.00     0.019 A 
HETATM   24  C   UNL     1      43.064 -17.329   6.606  1.00  0.00     0.001 A 
HETATM   25  C   UNL     1      43.034 -16.297   7.538  1.00  0.00     0.002 A 
HETATM   26  C   UNL     1      42.527 -15.044   7.183  1.00  0.00     0.031 A 
BRANCH  22  27
HETATM   27  C   UNL     1      41.356 -15.800   3.640  1.00  0.00     0.268 C 
HETATM   28  N   UNL     1      39.986 -15.552   3.673  1.00  0.00    -0.290 N 
HETATM   29  H   UNL     1      39.476 -15.570   4.554  1.00  0.00     0.183 HD
HETATM   30  O   UNL     1      41.972 -16.039   2.604  1.00  0.00    -0.266 OA
BRANCH  28  31
HETATM   31  N   UNL     1      39.253 -15.579   2.468  1.00  0.00    -0.247 NA
HETATM   32  H   UNL     1      39.634 -16.351   1.907  1.00  0.00     0.143 HD
HETATM   33  H   UNL     1      39.539 -14.754   1.929  1.00  0.00     0.143 HD
ENDBRANCH  28  31
ENDBRANCH  22  27
ENDBRANCH   5  21
TORSDOF 3
ENDMDL
MODEL 5
REMARK VINA RESULT:      -8.9      2.302      6.203
REMARK  3 active torsions:
REMARK  status: ('A' for Active; 'I' for Inactive)
REMARK    1  A    between atoms: N_5  and  C_6 
REMARK    2  A    between atoms: C_7  and  C_8 
REMARK       I    between atoms: C_8  and  N_9 
REMARK    3  A    between atoms: N_9  and  N_10 
ROOT
HETATM    1  C   UNL     1      39.715 -13.676   3.596  1.00  0.00     0.056 C 
HETATM    2  C   UNL     1      41.195 -13.627   3.931  1.00  0.00     0.158 C 
HETATM    3  C   UNL     1      41.492 -12.826   5.201  1.00  0.00     0.267 C 
HETATM    4  O   UNL     1      40.976 -13.064   6.289  1.00  0.00    -0.269 OA
HETATM    5  N   UNL     1      42.538 -11.967   4.930  1.00  0.00    -0.230 N 
HETATM    6  C   UNL     1      42.934 -12.106   3.616  1.00  0.00     0.333 C 
HETATM    7  O   UNL     1      43.927 -11.629   3.084  1.00  0.00    -0.246 OA
HETATM    8  N   UNL     1      41.998 -12.907   2.952  1.00  0.00    -0.309 N 
HETATM    9  C   UNL     1      42.334 -13.570   1.687  1.00  0.00     0.134 C 
HETATM   10  C   UNL     1      43.140 -14.872   1.903  1.00  0.00     0.061 C 
HETATM   11  C   UNL     1      42.715 -15.562   3.163  1.00  0.00    -0.018 A 
HETATM   12  C   UNL     1      41.829 -14.987   4.057  1.00  0.00     0.055 A 
HETATM   13  N   UNL     1      41.732 -15.805   5.152  1.00  0.00    -0.356 N 
HETATM   14  H   UNL     1      41.197 -15.608   5.991  1.00  0.00     0.166 HD
HETATM   15  C   UNL     1      42.605 -16.863   5.016  1.00  0.00     0.043 A 
HETATM   16  C   UNL     1      43.208 -16.755   3.758  1.00  0.00    -0.001 A 
HETATM   17  C   UNL     1      42.925 -17.884   5.919  1.00  0.00     0.030 A 
HETATM   18  C   UNL     1      43.883 -18.823   5.524  1.00  0.00     0.002 A 
HETATM   19  C   UNL     1      44.487 -18.749   4.271  1.00  0.00     0.001 A 
HETATM   20  C   UNL     1      44.159 -17.721   3.379  1.00  0.00     0.014 A 
ENDROOT
BRANCH   5  21
HETATM   21  C   UNL     1      43.307 -11.380   5.968  1.00  0.00     0.063 A 
HETATM   22  C   UNL     1      42.764 -10.452   6.880  1.00  0.00     0.060 A 
HETATM   23  C   UNL     1      43.492 -10.073   8.020  1.00  0.00     0.019 A 
HETATM   24  C   UNL     1      44.774 -10.573   8.236  1.00  0.00     0.001 A 
HETATM   25  C   UNL     1      45.345 -11.437   7.307  1.00  0.00     0.002 A 
HETATM   26  C   UNL     1      44.621 -11.833   6.179  1.00  0.00     0.031 A 
BRANCH  22  27
HETATM   27  C   UNL     1      41.479  -9.735   6.656  1.00  0.00     0.268 C 
HETATM   28  N   UNL     1      40.398 -10.196   7.403  1.00  0.00    -0.290 N 
HETATM   29  H   UNL     1      40.468 -11.055   7.945  1.00  0.00     0.183 HD
HETATM   30  O   UNL     1      41.382  -8.862   5.798  1.00  0.00    -0.266 OA
BRANCH  28  31
HETATM   31  N   UNL     1      39.119  -9.646   7.172  1.00  0.00    -0.247 NA
HETATM   32  H   UNL     1      38.721 -10.151   6.369  1.00  0.00     0.143 HD
HETATM   33  H   UNL     1      39.265  -8.706   6.789  1.00  0.00     0.143 HD
ENDBRANCH  28  31
ENDBRANCH  22  27
ENDBRANCH   5  21
TORSDOF 3
ENDMDL
MODEL 6
REMARK VINA RESULT:      -8.7     15.413     17.512
REMARK  3 active torsions:
REMARK  status: ('A' for Active; 'I' for Inactive)
REMARK    1  A    between atoms: N_5  and  C_6 
REMARK    2  A    between atoms: C_7  and  C_8 
REMARK       I    between atoms: C_8  and  N_9 
REMARK    3  A    between atoms: N_9  and  N_10 
ROOT
HETATM    1  C   UNL     1      45.232 -27.779  -3.353  1.00  0.00     0.056 C 
HETATM    2  C   UNL     1      45.746 -28.930  -2.506  1.00  0.00     0.158 C 
HETATM    3  C   UNL     1      47.160 -28.691  -1.972  1.00  0.00     0.267 C 
HETATM    4  O   UNL     1      47.479 -27.705  -1.313  1.00  0.00    -0.269 OA
HETATM    5  N   UNL     1      47.903 -29.831  -2.203  1.00  0.00    -0.230 N 
HETATM    6  C   UNL     1      47.131 -30.773  -2.850  1.00  0.00     0.333 C 
HETATM    7  O   UNL     1      47.411 -31.946  -3.060  1.00  0.00    -0.246 OA
HETATM    8  N   UNL     1      45.933 -30.169  -3.247  1.00  0.00    -0.309 N 
HETATM    9  C   UNL     1      44.756 -30.978  -3.581  1.00  0.00     0.134 C 
HETATM   10  C   UNL     1      43.985 -31.441  -2.323  1.00  0.00     0.061 C 
HETATM   11  C   UNL     1      44.054 -30.406  -1.242  1.00  0.00    -0.018 A 
HETATM   12  C   UNL     1      44.845 -29.277  -1.351  1.00  0.00     0.055 A 
HETATM   13  N   UNL     1      44.782 -28.593  -0.165  1.00  0.00    -0.356 N 
HETATM   14  H   UNL     1      45.307 -27.754   0.062  1.00  0.00     0.166 HD
HETATM   15  C   UNL     1      44.023 -29.305   0.739  1.00  0.00     0.043 A 
HETATM   16  C   UNL     1      43.523 -30.431   0.076  1.00  0.00    -0.001 A 
HETATM   17  C   UNL     1      43.770 -29.054   2.093  1.00  0.00     0.030 A 
HETATM   18  C   UNL     1      42.979 -29.974   2.787  1.00  0.00     0.002 A 
HETATM   19  C   UNL     1      42.453 -31.095   2.147  1.00  0.00     0.001 A 
HETATM   20  C   UNL     1      42.717 -31.335   0.794  1.00  0.00     0.014 A 
ENDROOT
BRANCH   5  21
HETATM   21  C   UNL     1      49.107 -30.090  -1.498  1.00  0.00     0.063 A 
HETATM   22  C   UNL     1      49.146 -30.246  -0.097  1.00  0.00     0.060 A 
HETATM   23  C   UNL     1      50.309 -30.724   0.529  1.00  0.00     0.019 A 
HETATM   24  C   UNL     1      51.449 -31.004  -0.221  1.00  0.00     0.001 A 
HETATM   25  C   UNL     1      51.442 -30.789  -1.595  1.00  0.00     0.002 A 
HETATM   26  C   UNL     1      50.284 -30.330  -2.229  1.00  0.00     0.031 A 
BRANCH  22  27
HETATM   27  C   UNL     1      48.044 -29.820   0.807  1.00  0.00     0.268 C 
HETATM   28  N   UNL     1      48.153 -28.530   1.320  1.00  0.00    -0.290 N 
HETATM   29  H   UNL     1      49.008 -27.990   1.191  1.00  0.00     0.183 HD
HETATM   30  O   UNL     1      47.156 -30.602   1.138  1.00  0.00    -0.266 OA
BRANCH  28  31
HETATM   31  N   UNL     1      47.211 -28.085   2.271  1.00  0.00    -0.247 NA
HETATM   32  H   UNL     1      46.375 -27.798   1.746  1.00  0.00     0.143 HD
HETATM   33  H   UNL     1      47.558 -27.191   2.636  1.00  0.00     0.143 HD
ENDBRANCH  28  31
ENDBRANCH  22  27
ENDBRANCH   5  21
TORSDOF 3
ENDMDL
MODEL 7
REMARK VINA RESULT:      -8.4      3.129      5.417
REMARK  3 active torsions:
REMARK  status: ('A' for Active; 'I' for Inactive)
REMARK    1  A    between atoms: N_5  and  C_6 
REMARK    2  A    between atoms: C_7  and  C_8 
REMARK       I    between atoms: C_8  and  N_9 
REMARK    3  A    between atoms: N_9  and  N_10 
ROOT
HETATM    1  C   UNL     1      41.914  -9.614   4.575  1.00  0.00     0.056 C 
HETATM    2  C   UNL     1      41.217 -10.804   3.940  1.00  0.00     0.158 C 
HETATM    3  C   UNL     1      41.619 -11.019   2.479  1.00  0.00     0.267 C 
HETATM    4  O   UNL     1      42.781 -11.157   2.108  1.00  0.00    -0.269 OA
HETATM    5  N   UNL     1      40.468 -11.210   1.742  1.00  0.00    -0.230 N 
HETATM    6  C   UNL     1      39.362 -11.117   2.562  1.00  0.00     0.333 C 
HETATM    7  O   UNL     1      38.204 -11.394   2.283  1.00  0.00    -0.246 OA
HETATM    8  N   UNL     1      39.775 -10.643   3.812  1.00  0.00    -0.309 N 
HETATM    9  C   UNL     1      38.935 -10.821   5.002  1.00  0.00     0.134 C 
HETATM   10  C   UNL     1      39.072 -12.236   5.610  1.00  0.00     0.061 C 
HETATM   11  C   UNL     1      40.465 -12.760   5.440  1.00  0.00    -0.018 A 
HETATM   12  C   UNL     1      41.419 -12.092   4.692  1.00  0.00     0.055 A 
HETATM   13  N   UNL     1      42.542 -12.875   4.632  1.00  0.00    -0.356 N 
HETATM   14  H   UNL     1      43.382 -12.663   4.104  1.00  0.00     0.166 HD
HETATM   15  C   UNL     1      42.302 -14.076   5.264  1.00  0.00     0.043 A 
HETATM   16  C   UNL     1      41.017 -14.016   5.813  1.00  0.00    -0.001 A 
HETATM   17  C   UNL     1      43.111 -15.214   5.364  1.00  0.00     0.030 A 
HETATM   18  C   UNL     1      42.595 -16.319   6.048  1.00  0.00     0.002 A 
HETATM   19  C   UNL     1      41.324 -16.281   6.619  1.00  0.00     0.001 A 
HETATM   20  C   UNL     1      40.526 -15.137   6.509  1.00  0.00     0.014 A 
ENDROOT
BRANCH   5  21
HETATM   21  C   UNL     1      40.497 -11.815   0.459  1.00  0.00     0.063 A 
HETATM   22  C   UNL     1      40.417 -13.211   0.278  1.00  0.00     0.060 A 
HETATM   23  C   UNL     1      40.220 -13.748  -1.005  1.00  0.00     0.019 A 
HETATM   24  C   UNL     1      40.149 -12.909  -2.116  1.00  0.00     0.001 A 
HETATM   25  C   UNL     1      40.295 -11.535  -1.956  1.00  0.00     0.002 A 
HETATM   26  C   UNL     1      40.473 -10.992  -0.680  1.00  0.00     0.031 A 
BRANCH  22  27
HETATM   27  C   UNL     1      40.646 -14.195   1.370  1.00  0.00     0.268 C 
HETATM   28  N   UNL     1      39.502 -14.810   1.874  1.00  0.00    -0.290 N 
HETATM   29  H   UNL     1      38.576 -14.485   1.603  1.00  0.00     0.183 HD
HETATM   30  O   UNL     1      41.767 -14.369   1.843  1.00  0.00    -0.266 OA
BRANCH  28  31
HETATM   31  N   UNL     1      39.617 -15.673   2.984  1.00  0.00    -0.247 NA
HETATM   32  H   UNL     1      40.446 -15.369   3.510  1.00  0.00     0.143 HD
HETATM   33  H   UNL     1      39.911 -16.586   2.620  1.00  0.00     0.143 HD
ENDBRANCH  28  31
ENDBRANCH  22  27
ENDBRANCH   5  21
TORSDOF 3
ENDMDL
MODEL 8
REMARK VINA RESULT:      -8.3      3.746      7.020
REMARK  3 active torsions:
REMARK  status: ('A' for Active; 'I' for Inactive)
REMARK    1  A    between atoms: N_5  and  C_6 
REMARK    2  A    between atoms: C_7  and  C_8 
REMARK       I    between atoms: C_8  and  N_9 
REMARK    3  A    between atoms: N_9  and  N_10 
ROOT
HETATM    1  C   UNL     1      42.045 -10.055   3.936  1.00  0.00     0.056 C 
HETATM    2  C   UNL     1      41.199 -10.924   3.022  1.00  0.00     0.158 C 
HETATM    3  C   UNL     1      41.168 -10.415   1.579  1.00  0.00     0.267 C 
HETATM    4  O   UNL     1      42.177 -10.217   0.907  1.00  0.00    -0.269 OA
HETATM    5  N   UNL     1      39.855 -10.415   1.154  1.00  0.00    -0.230 N 
HETATM    6  C   UNL     1      39.029 -10.844   2.173  1.00  0.00     0.333 C 
HETATM    7  O   UNL     1      37.841 -11.122   2.099  1.00  0.00    -0.246 OA
HETATM    8  N   UNL     1      39.781 -10.919   3.351  1.00  0.00    -0.309 N 
HETATM    9  C   UNL     1      39.316 -11.715   4.492  1.00  0.00     0.134 C 
HETATM   10  C   UNL     1      39.625 -13.221   4.322  1.00  0.00     0.061 C 
HETATM   11  C   UNL     1      40.914 -13.423   3.584  1.00  0.00    -0.018 A 
HETATM   12  C   UNL     1      41.612 -12.372   3.016  1.00  0.00     0.055 A 
HETATM   13  N   UNL     1      42.674 -12.888   2.322  1.00  0.00    -0.356 N 
HETATM   14  H   UNL     1      43.328 -12.353   1.759  1.00  0.00     0.166 HD
HETATM   15  C   UNL     1      42.629 -14.265   2.365  1.00  0.00     0.043 A 
HETATM   16  C   UNL     1      41.554 -14.627   3.183  1.00  0.00    -0.001 A 
HETATM   17  C   UNL     1      43.436 -15.210   1.721  1.00  0.00     0.030 A 
HETATM   18  C   UNL     1      43.141 -16.561   1.922  1.00  0.00     0.002 A 
HETATM   19  C   UNL     1      42.087 -16.951   2.746  1.00  0.00     0.001 A 
HETATM   20  C   UNL     1      41.286 -15.995   3.381  1.00  0.00     0.014 A 
ENDROOT
BRANCH   5  21
HETATM   21  C   UNL     1      39.519 -10.381  -0.224  1.00  0.00     0.063 A 
HETATM   22  C   UNL     1      39.452 -11.546  -1.016  1.00  0.00     0.060 A 
HETATM   23  C   UNL     1      38.897 -11.493  -2.306  1.00  0.00     0.019 A 
HETATM   24  C   UNL     1      38.452 -10.282  -2.832  1.00  0.00     0.001 A 
HETATM   25  C   UNL     1      38.576  -9.116  -2.084  1.00  0.00     0.002 A 
HETATM   26  C   UNL     1      39.111  -9.162  -0.794  1.00  0.00     0.031 A 
BRANCH  22  27
HETATM   27  C   UNL     1      40.048 -12.848  -0.614  1.00  0.00     0.268 C 
HETATM   28  N   UNL     1      39.141 -13.822  -0.203  1.00  0.00    -0.290 N 
HETATM   29  H   UNL     1      38.161 -13.590  -0.055  1.00  0.00     0.183 HD
HETATM   30  O   UNL     1      41.266 -13.000  -0.566  1.00  0.00    -0.266 OA
BRANCH  28  31
HETATM   31  N   UNL     1      39.628 -15.047   0.300  1.00  0.00    -0.247 NA
HETATM   32  H   UNL     1      40.430 -15.309  -0.288  1.00  0.00     0.143 HD
HETATM   33  H   UNL     1      38.935 -15.764   0.057  1.00  0.00     0.143 HD
ENDBRANCH  28  31
ENDBRANCH  22  27
ENDBRANCH   5  21
TORSDOF 3
ENDMDL
MODEL 9
REMARK VINA RESULT:      -8.2     15.456     17.619
REMARK  3 active torsions:
REMARK  status: ('A' for Active; 'I' for Inactive)
REMARK    1  A    between atoms: N_5  and  C_6 
REMARK    2  A    between atoms: C_7  and  C_8 
REMARK       I    between atoms: C_8  and  N_9 
REMARK    3  A    between atoms: N_9  and  N_10 
ROOT
HETATM    1  C   UNL     1      45.249 -28.014  -1.103  1.00  0.00     0.056 C 
HETATM    2  C   UNL     1      45.510 -29.193  -0.183  1.00  0.00     0.158 C 
HETATM    3  C   UNL     1      46.612 -28.916   0.842  1.00  0.00     0.267 C 
HETATM    4  O   UNL     1      46.593 -27.965   1.619  1.00  0.00    -0.269 OA
HETATM    5  N   UNL     1      47.474 -29.994   0.845  1.00  0.00    -0.230 N 
HETATM    6  C   UNL     1      47.064 -30.928  -0.084  1.00  0.00     0.333 C 
HETATM    7  O   UNL     1      47.491 -32.065  -0.232  1.00  0.00    -0.246 OA
HETATM    8  N   UNL     1      46.048 -30.363  -0.862  1.00  0.00    -0.309 N 
HETATM    9  C   UNL     1      45.138 -31.209  -1.643  1.00  0.00     0.134 C 
HETATM   10  C   UNL     1      44.003 -31.804  -0.777  1.00  0.00     0.061 C 
HETATM   11  C   UNL     1      43.595 -30.848   0.301  1.00  0.00    -0.018 A 
HETATM   12  C   UNL     1      44.282 -29.672   0.544  1.00  0.00     0.055 A 
HETATM   13  N   UNL     1      43.741 -29.081   1.656  1.00  0.00    -0.356 N 
HETATM   14  H   UNL     1      44.081 -28.233   2.099  1.00  0.00     0.166 HD
HETATM   15  C   UNL     1      42.764 -29.897   2.184  1.00  0.00     0.043 A 
HETATM   16  C   UNL     1      42.626 -30.997   1.331  1.00  0.00    -0.001 A 
HETATM   17  C   UNL     1      42.019 -29.760   3.361  1.00  0.00     0.030 A 
HETATM   18  C   UNL     1      41.105 -30.770   3.673  1.00  0.00     0.002 A 
HETATM   19  C   UNL     1      40.934 -31.868   2.833  1.00  0.00     0.001 A 
HETATM   20  C   UNL     1      41.688 -31.995   1.660  1.00  0.00     0.014 A 
ENDROOT
BRANCH   5  21
HETATM   21  C   UNL     1      48.357 -30.238   1.929  1.00  0.00     0.063 A 
HETATM   22  C   UNL     1      49.758 -30.285   1.768  1.00  0.00     0.060 A 
HETATM   23  C   UNL     1      50.598 -30.301   2.893  1.00  0.00     0.019 A 
HETATM   24  C   UNL     1      50.057 -30.318   4.177  1.00  0.00     0.001 A 
HETATM   25  C   UNL     1      48.676 -30.340   4.345  1.00  0.00     0.002 A 
HETATM   26  C   UNL     1      47.832 -30.307   3.231  1.00  0.00     0.031 A 
BRANCH  22  27
HETATM   27  C   UNL     1      50.428 -30.437   0.449  1.00  0.00     0.268 C 
HETATM   28  N   UNL     1      51.234 -31.565   0.312  1.00  0.00    -0.290 N 
HETATM   29  H   UNL     1      51.452 -32.149   1.117  1.00  0.00     0.183 HD
HETATM   30  O   UNL     1      50.336 -29.568  -0.414  1.00  0.00    -0.266 OA
BRANCH  28  31
HETATM   31  N   UNL     1      51.993 -31.730  -0.866  1.00  0.00    -0.247 NA
HETATM   32  H   UNL     1      51.761 -32.660  -1.238  1.00  0.00     0.143 HD
HETATM   33  H   UNL     1      52.970 -31.847  -0.575  1.00  0.00     0.143 HD
ENDBRANCH  28  31
ENDBRANCH  22  27
ENDBRANCH   5  21
TORSDOF 3
ENDMDL
MODEL 10
REMARK VINA RESULT:      -8.2      3.946      5.897
REMARK  3 active torsions:
REMARK  status: ('A' for Active; 'I' for Inactive)
REMARK    1  A    between atoms: N_5  and  C_6 
REMARK    2  A    between atoms: C_7  and  C_8 
REMARK       I    between atoms: C_8  and  N_9 
REMARK    3  A    between atoms: N_9  and  N_10 
ROOT
HETATM    1  C   UNL     1      40.382  -8.039   0.655  1.00  0.00     0.056 C 
HETATM    2  C   UNL     1      40.056  -9.489   0.967  1.00  0.00     0.158 C 
HETATM    3  C   UNL     1      40.299 -10.423  -0.221  1.00  0.00     0.267 C 
HETATM    4  O   UNL     1      41.374 -10.508  -0.809  1.00  0.00    -0.269 OA
HETATM    5  N   UNL     1      39.193 -11.237  -0.358  1.00  0.00    -0.230 N 
HETATM    6  C   UNL     1      38.250 -10.916   0.596  1.00  0.00     0.333 C 
HETATM    7  O   UNL     1      37.231 -11.534   0.872  1.00  0.00    -0.246 OA
HETATM    8  N   UNL     1      38.645  -9.732   1.229  1.00  0.00    -0.309 N 
HETATM    9  C   UNL     1      38.093  -9.355   2.535  1.00  0.00     0.134 C 
HETATM   10  C   UNL     1      38.792 -10.091   3.702  1.00  0.00     0.061 C 
HETATM   11  C   UNL     1      40.242 -10.317   3.400  1.00  0.00    -0.018 A 
HETATM   12  C   UNL     1      40.793 -10.028   2.164  1.00  0.00     0.055 A 
HETATM   13  N   UNL     1      42.097 -10.448   2.166  1.00  0.00    -0.356 N 
HETATM   14  H   UNL     1      42.730 -10.415   1.374  1.00  0.00     0.166 HD
HETATM   15  C   UNL     1      42.377 -11.078   3.360  1.00  0.00     0.043 A 
HETATM   16  C   UNL     1      41.240 -10.977   4.168  1.00  0.00    -0.001 A 
HETATM   17  C   UNL     1      43.534 -11.752   3.769  1.00  0.00     0.030 A 
HETATM   18  C   UNL     1      43.531 -12.333   5.041  1.00  0.00     0.002 A 
HETATM   19  C   UNL     1      42.419 -12.233   5.874  1.00  0.00     0.001 A 
HETATM   20  C   UNL     1      41.268 -11.559   5.450  1.00  0.00     0.014 A 
ENDROOT
BRANCH   5  21
HETATM   21  C   UNL     1      39.249 -12.452  -1.089  1.00  0.00     0.063 A 
HETATM   22  C   UNL     1      39.579 -13.684  -0.487  1.00  0.00     0.060 A 
HETATM   23  C   UNL     1      39.401 -14.886  -1.192  1.00  0.00     0.019 A 
HETATM   24  C   UNL     1      38.942 -14.869  -2.508  1.00  0.00     0.001 A 
HETATM   25  C   UNL     1      38.678 -13.655  -3.133  1.00  0.00     0.002 A 
HETATM   26  C   UNL     1      38.836 -12.455  -2.433  1.00  0.00     0.031 A 
BRANCH  22  27
HETATM   27  C   UNL     1      40.229 -13.798   0.847  1.00  0.00     0.268 C 
HETATM   28  N   UNL     1      39.394 -14.189   1.890  1.00  0.00    -0.290 N 
HETATM   29  H   UNL     1      38.386 -14.244   1.756  1.00  0.00     0.183 HD
HETATM   30  O   UNL     1      41.403 -13.474   1.009  1.00  0.00    -0.266 OA
BRANCH  28  31
HETATM   31  N   UNL     1      39.903 -14.216   3.206  1.00  0.00    -0.247 NA
HETATM   32  H   UNL     1      39.400 -14.963   3.702  1.00  0.00     0.143 HD
HETATM   33  H   UNL     1      39.557 -13.371   3.674  1.00  0.00     0.143 HD
ENDBRANCH  28  31
ENDBRANCH  22  27
ENDBRANCH   5  21
TORSDOF 3
ENDMDL
