MODEL 1
REMARK VINA RESULT:      -9.3      0.000      0.000
REMARK  5 active torsions:
REMARK  status: ('A' for Active; 'I' for Inactive)
REMARK    1  A    between atoms: O_2  and  C_3 
REMARK    2  A    between atoms: C_5  and  C_6 
REMARK    3  A    between atoms: C_6  and  C_7 
REMARK       I    between atoms: C_7  and  N_8 
REMARK    4  A    between atoms: N_11  and  C_12 
REMARK    5  A    between atoms: C_16  and  C_17 
ROOT
HETATM    1  C   UNL     1      43.134  -8.761   9.498  1.00  0.00     0.224 C 
HETATM    2  N   UNL     1      43.360  -9.616   8.433  1.00  0.00    -0.349 N 
HETATM    3  C   UNL     1      44.429 -10.613   8.333  1.00  0.00     0.145 C 
HETATM    4  C   UNL     1      43.926 -11.937   7.722  1.00  0.00     0.144 C 
HETATM    5  N   UNL     1      43.183 -11.724   6.454  1.00  0.00    -0.363 N 
HETATM    6  C   UNL     1      42.122 -10.687   6.567  1.00  0.00     0.144 C 
HETATM    7  C   UNL     1      42.660  -9.381   7.169  1.00  0.00     0.145 C 
HETATM    8  O   UNL     1      42.305  -7.849   9.433  1.00  0.00    -0.273 OA
ENDROOT
BRANCH   5   9
HETATM    9  C   UNL     1      42.889 -12.823   5.685  1.00  0.00     0.122 A 
HETATM   10  N   UNL     1      41.721 -12.956   4.982  1.00  0.00    -0.262 N 
HETATM   11  H   UNL     1      40.943 -12.311   4.954  1.00  0.00     0.191 HD
HETATM   12  N   UNL     1      41.622 -14.091   4.274  1.00  0.00    -0.173 NA
HETATM   13  C   UNL     1      42.750 -14.764   4.557  1.00  0.00     0.090 A 
HETATM   14  C   UNL     1      43.557 -14.007   5.453  1.00  0.00     0.084 A 
BRANCH  13  15
HETATM   15  C   UNL     1      43.025 -16.087   3.979  1.00  0.00    -0.005 A 
HETATM   16  C   UNL     1      42.612 -16.414   2.678  1.00  0.00     0.015 A 
HETATM   17  C   UNL     1      42.881 -17.677   2.138  1.00  0.00     0.024 A 
HETATM   18  C   UNL     1      43.565 -18.625   2.895  1.00  0.00     0.034 A 
HETATM   19 CL   UNL     1      43.895 -20.175   2.229  1.00  0.00    -0.084 Cl
HETATM   20  C   UNL     1      43.983 -18.321   4.187  1.00  0.00     0.024 A 
HETATM   21  C   UNL     1      43.712 -17.059   4.726  1.00  0.00     0.015 A 
ENDBRANCH  13  15
ENDBRANCH   5   9
BRANCH   1  22
HETATM   22  C   UNL     1      43.921  -8.965  10.785  1.00  0.00     0.141 C 
BRANCH  22  23
HETATM   23  C   UNL     1      43.103  -8.795  12.045  1.00  0.00    -0.047 A 
HETATM   24  C   UNL     1      41.987  -9.612  12.299  1.00  0.00     0.044 A 
HETATM   25  C   UNL     1      41.252  -9.472  13.478  1.00  0.00     0.068 A 
HETATM   26  C   UNL     1      41.649  -8.523  14.420  1.00  0.00     0.037 A 
HETATM   27  C   UNL     1      42.768  -7.723  14.195  1.00  0.00     0.003 A 
HETATM   28  C   UNL     1      43.496  -7.861  13.014  1.00  0.00     0.007 A 
BRANCH  25  29
HETATM   29  O   UNL     1      40.145 -10.197  13.826  1.00  0.00    -0.356 OA
HETATM   30  C   UNL     1      39.398 -10.778  12.763  1.00  0.00     0.210 C 
ENDBRANCH  25  29
ENDBRANCH  22  23
ENDBRANCH   1  22
TORSDOF 5
ENDMDL
MODEL 2
REMARK VINA RESULT:      -9.1      0.966      1.871
REMARK  5 active torsions:
REMARK  status: ('A' for Active; 'I' for Inactive)
REMARK    1  A    between atoms: O_2  and  C_3 
REMARK    2  A    between atoms: C_5  and  C_6 
REMARK    3  A    between atoms: C_6  and  C_7 
REMARK       I    between atoms: C_7  and  N_8 
REMARK    4  A    between atoms: N_11  and  C_12 
REMARK    5  A    between atoms: C_16  and  C_17 
ROOT
HETATM    1  C   UNL     1      43.049  -8.930   9.443  1.00  0.00     0.224 C 
HETATM    2  N   UNL     1      43.291  -9.723   8.335  1.00  0.00    -0.349 N 
HETATM    3  C   UNL     1      44.432 -10.622   8.144  1.00  0.00     0.145 C 
HETATM    4  C   UNL     1      44.010 -11.959   7.504  1.00  0.00     0.144 C 
HETATM    5  N   UNL     1      43.190 -11.763   6.281  1.00  0.00    -0.363 N 
HETATM    6  C   UNL     1      42.054 -10.823   6.485  1.00  0.00     0.144 C 
HETATM    7  C   UNL     1      42.513  -9.500   7.116  1.00  0.00     0.145 C 
HETATM    8  O   UNL     1      42.145  -8.088   9.454  1.00  0.00    -0.273 OA
ENDROOT
BRANCH   5   9
HETATM    9  C   UNL     1      42.949 -12.853   5.481  1.00  0.00     0.122 A 
HETATM   10  N   UNL     1      41.951 -12.891   4.545  1.00  0.00    -0.262 N 
HETATM   11  H   UNL     1      41.271 -12.171   4.341  1.00  0.00     0.191 HD
HETATM   12  N   UNL     1      41.883 -14.035   3.847  1.00  0.00    -0.173 NA
HETATM   13  C   UNL     1      42.844 -14.809   4.377  1.00  0.00     0.090 A 
HETATM   14  C   UNL     1      43.518 -14.107   5.416  1.00  0.00     0.084 A 
BRANCH  13  15
HETATM   15  C   UNL     1      43.091 -16.173   3.890  1.00  0.00    -0.005 A 
HETATM   16  C   UNL     1      43.818 -17.100   4.655  1.00  0.00     0.015 A 
HETATM   17  C   UNL     1      44.046 -18.397   4.182  1.00  0.00     0.024 A 
HETATM   18  C   UNL     1      43.550 -18.779   2.937  1.00  0.00     0.034 A 
HETATM   19 CL   UNL     1      43.831 -20.374   2.358  1.00  0.00    -0.084 Cl
HETATM   20  C   UNL     1      42.829 -17.876   2.163  1.00  0.00     0.024 A 
HETATM   21  C   UNL     1      42.602 -16.580   2.638  1.00  0.00     0.015 A 
ENDBRANCH  13  15
ENDBRANCH   5   9
BRANCH   1  22
HETATM   22  C   UNL     1      43.913  -9.115  10.684  1.00  0.00     0.141 C 
BRANCH  22  23
HETATM   23  C   UNL     1      43.157  -8.999  11.987  1.00  0.00    -0.047 A 
HETATM   24  C   UNL     1      43.431  -7.959  12.894  1.00  0.00     0.044 A 
HETATM   25  C   UNL     1      42.710  -7.837  14.083  1.00  0.00     0.068 A 
HETATM   26  C   UNL     1      41.690  -8.750  14.358  1.00  0.00     0.037 A 
HETATM   27  C   UNL     1      41.389  -9.771  13.458  1.00  0.00     0.003 A 
HETATM   28  C   UNL     1      42.116  -9.893  12.275  1.00  0.00     0.007 A 
BRANCH  25  29
HETATM   29  O   UNL     1      42.897  -6.879  15.042  1.00  0.00    -0.356 OA
HETATM   30  C   UNL     1      42.026  -6.918  16.166  1.00  0.00     0.210 C 
ENDBRANCH  25  29
ENDBRANCH  22  23
ENDBRANCH   1  22
TORSDOF 5
ENDMDL
MODEL 3
REMARK VINA RESULT:      -9.0      4.678     10.346
REMARK  5 active torsions:
REMARK  status: ('A' for Active; 'I' for Inactive)
REMARK    1  A    between atoms: O_2  and  C_3 
REMARK    2  A    between atoms: C_5  and  C_6 
REMARK    3  A    between atoms: C_6  and  C_7 
REMARK       I    between atoms: C_7  and  N_8 
REMARK    4  A    between atoms: N_11  and  C_12 
REMARK    5  A    between atoms: C_16  and  C_17 
ROOT
HETATM    1  C   UNL     1      43.036 -14.186   2.509  1.00  0.00     0.224 C 
HETATM    2  N   UNL     1      42.832 -13.246   3.504  1.00  0.00    -0.349 N 
HETATM    3  C   UNL     1      41.724 -13.226   4.463  1.00  0.00     0.145 C 
HETATM    4  C   UNL     1      42.197 -12.850   5.881  1.00  0.00     0.144 C 
HETATM    5  N   UNL     1      43.022 -11.615   5.890  1.00  0.00    -0.363 N 
HETATM    6  C   UNL     1      44.123 -11.642   4.890  1.00  0.00     0.144 C 
HETATM    7  C   UNL     1      43.614 -12.010   3.489  1.00  0.00     0.145 C 
HETATM    8  O   UNL     1      43.911 -14.041   1.649  1.00  0.00    -0.273 OA
ENDROOT
BRANCH   5   9
HETATM    9  C   UNL     1      43.307 -11.036   7.102  1.00  0.00     0.122 A 
HETATM   10  N   UNL     1      44.356 -11.426   7.891  1.00  0.00    -0.262 N 
HETATM   11  H   UNL     1      45.016 -12.171   7.714  1.00  0.00     0.191 HD
HETATM   12  N   UNL     1      44.486 -10.731   9.032  1.00  0.00    -0.173 NA
HETATM   13  C   UNL     1      43.449  -9.876   9.024  1.00  0.00     0.090 A 
HETATM   14  C   UNL     1      42.679 -10.054   7.840  1.00  0.00     0.084 A 
BRANCH  13  15
HETATM   15  C   UNL     1      43.221  -8.930  10.125  1.00  0.00    -0.005 A 
HETATM   16  C   UNL     1      43.589  -9.243  11.444  1.00  0.00     0.015 A 
HETATM   17  C   UNL     1      43.368  -8.333  12.483  1.00  0.00     0.024 A 
HETATM   18  C   UNL     1      42.775  -7.102  12.215  1.00  0.00     0.034 A 
HETATM   19 CL   UNL     1      42.505  -5.986  13.495  1.00  0.00    -0.084 Cl
HETATM   20  C   UNL     1      42.402  -6.772  10.916  1.00  0.00     0.024 A 
HETATM   21  C   UNL     1      42.623  -7.683   9.878  1.00  0.00     0.015 A 
ENDBRANCH  13  15
ENDBRANCH   5   9
BRANCH   1  22
HETATM   22  C   UNL     1      42.167 -15.436   2.487  1.00  0.00     0.141 C 
BRANCH  22  23
HETATM   23  C   UNL     1      42.829 -16.661   3.077  1.00  0.00    -0.047 A 
HETATM   24  C   UNL     1      43.051 -16.768   4.461  1.00  0.00     0.044 A 
HETATM   25  C   UNL     1      43.635 -17.914   5.005  1.00  0.00     0.068 A 
HETATM   26  C   UNL     1      43.979 -18.970   4.161  1.00  0.00     0.037 A 
HETATM   27  C   UNL     1      43.743 -18.889   2.790  1.00  0.00     0.003 A 
HETATM   28  C   UNL     1      43.166 -17.742   2.249  1.00  0.00     0.007 A 
BRANCH  25  29
HETATM   29  O   UNL     1      43.911 -18.124   6.329  1.00  0.00    -0.356 OA
HETATM   30  C   UNL     1      43.612 -17.059   7.224  1.00  0.00     0.210 C 
ENDBRANCH  25  29
ENDBRANCH  22  23
ENDBRANCH   1  22
TORSDOF 5
ENDMDL
MODEL 4
REMARK VINA RESULT:      -8.8      1.208      1.592
REMARK  5 active torsions:
REMARK  status: ('A' for Active; 'I' for Inactive)
REMARK    1  A    between atoms: O_2  and  C_3 
REMARK    2  A    between atoms: C_5  and  C_6 
REMARK    3  A    between atoms: C_6  and  C_7 
REMARK       I    between atoms: C_7  and  N_8 
REMARK    4  A    between atoms: N_11  and  C_12 
REMARK    5  A    between atoms: C_16  and  C_17 
ROOT
HETATM    1  C   UNL     1      42.645  -8.273   8.143  1.00  0.00     0.224 C 
HETATM    2  N   UNL     1      43.031  -9.422   7.474  1.00  0.00    -0.349 N 
HETATM    3  C   UNL     1      44.236 -10.214   7.736  1.00  0.00     0.145 C 
HETATM    4  C   UNL     1      43.952 -11.729   7.679  1.00  0.00     0.144 C 
HETATM    5  N   UNL     1      43.234 -12.120   6.438  1.00  0.00    -0.363 N 
HETATM    6  C   UNL     1      42.031 -11.284   6.173  1.00  0.00     0.144 C 
HETATM    7  C   UNL     1      42.353  -9.784   6.229  1.00  0.00     0.145 C 
HETATM    8  O   UNL     1      41.697  -7.585   7.755  1.00  0.00    -0.273 OA
ENDROOT
BRANCH   5   9
HETATM    9  C   UNL     1      43.130 -13.457   6.146  1.00  0.00     0.122 A 
HETATM   10  N   UNL     1      42.652 -14.384   7.033  1.00  0.00    -0.262 N 
HETATM   11  H   UNL     1      42.350 -14.226   7.985  1.00  0.00     0.191 HD
HETATM   12  N   UNL     1      42.608 -15.639   6.560  1.00  0.00    -0.173 NA
HETATM   13  C   UNL     1      43.125 -15.550   5.324  1.00  0.00     0.090 A 
HETATM   14  C   UNL     1      43.481 -14.202   5.040  1.00  0.00     0.084 A 
BRANCH  13  15
HETATM   15  C   UNL     1      43.267 -16.731   4.461  1.00  0.00    -0.005 A 
HETATM   16  C   UNL     1      43.965 -17.870   4.892  1.00  0.00     0.015 A 
HETATM   17  C   UNL     1      44.092 -18.989   4.062  1.00  0.00     0.024 A 
HETATM   18  C   UNL     1      43.524 -18.979   2.790  1.00  0.00     0.034 A 
HETATM   19 CL   UNL     1      43.681 -20.356   1.772  1.00  0.00    -0.084 Cl
HETATM   20  C   UNL     1      42.829 -17.860   2.342  1.00  0.00     0.024 A 
HETATM   21  C   UNL     1      42.703 -16.742   3.174  1.00  0.00     0.015 A 
ENDBRANCH  13  15
ENDBRANCH   5   9
BRANCH   1  22
HETATM   22  C   UNL     1      43.405  -7.861   9.396  1.00  0.00     0.141 C 
BRANCH  22  23
HETATM   23  C   UNL     1      42.751  -8.297  10.688  1.00  0.00    -0.047 A 
HETATM   24  C   UNL     1      41.464  -8.866  10.692  1.00  0.00     0.044 A 
HETATM   25  C   UNL     1      40.876  -9.295  11.883  1.00  0.00     0.068 A 
HETATM   26  C   UNL     1      41.589  -9.176  13.077  1.00  0.00     0.037 A 
HETATM   27  C   UNL     1      42.874  -8.637  13.086  1.00  0.00     0.003 A 
HETATM   28  C   UNL     1      43.456  -8.203  11.896  1.00  0.00     0.007 A 
BRANCH  25  29
HETATM   29  O   UNL     1      39.631  -9.849  12.010  1.00  0.00    -0.356 OA
HETATM   30  C   UNL     1      39.474 -10.851  13.007  1.00  0.00     0.210 C 
ENDBRANCH  25  29
ENDBRANCH  22  23
ENDBRANCH   1  22
TORSDOF 5
ENDMDL
MODEL 5
REMARK VINA RESULT:      -8.8      1.544      2.120
REMARK  5 active torsions:
REMARK  status: ('A' for Active; 'I' for Inactive)
REMARK    1  A    between atoms: O_2  and  C_3 
REMARK    2  A    between atoms: C_5  and  C_6 
REMARK    3  A    between atoms: C_6  and  C_7 
REMARK       I    between atoms: C_7  and  N_8 
REMARK    4  A    between atoms: N_11  and  C_12 
REMARK    5  A    between atoms: C_16  and  C_17 
ROOT
HETATM    1  C   UNL     1      44.267  -8.266   8.391  1.00  0.00     0.224 C 
HETATM    2  N   UNL     1      43.836  -9.537   8.049  1.00  0.00    -0.349 N 
HETATM    3  C   UNL     1      42.444  -9.977   7.929  1.00  0.00     0.145 C 
HETATM    4  C   UNL     1      42.232 -10.888   6.704  1.00  0.00     0.144 C 
HETATM    5  N   UNL     1      43.219 -11.997   6.651  1.00  0.00    -0.363 N 
HETATM    6  C   UNL     1      44.625 -11.534   6.805  1.00  0.00     0.144 C 
HETATM    7  C   UNL     1      44.800 -10.638   8.039  1.00  0.00     0.145 C 
HETATM    8  O   UNL     1      45.456  -8.024   8.618  1.00  0.00    -0.273 OA
ENDROOT
BRANCH   5   9
HETATM    9  C   UNL     1      43.001 -13.014   5.755  1.00  0.00     0.122 A 
HETATM   10  N   UNL     1      42.091 -12.933   4.735  1.00  0.00    -0.262 N 
HETATM   11  H   UNL     1      41.467 -12.165   4.526  1.00  0.00     0.191 HD
HETATM   12  N   UNL     1      42.033 -14.020   3.950  1.00  0.00    -0.173 NA
HETATM   13  C   UNL     1      42.906 -14.880   4.502  1.00  0.00     0.090 A 
HETATM   14  C   UNL     1      43.515 -14.290   5.645  1.00  0.00     0.084 A 
BRANCH  13  15
HETATM   15  C   UNL     1      43.132 -16.218   3.938  1.00  0.00    -0.005 A 
HETATM   16  C   UNL     1      42.583 -16.589   2.700  1.00  0.00     0.015 A 
HETATM   17  C   UNL     1      42.807 -17.866   2.172  1.00  0.00     0.024 A 
HETATM   18  C   UNL     1      43.580 -18.784   2.879  1.00  0.00     0.034 A 
HETATM   19 CL   UNL     1      43.854 -20.352   2.228  1.00  0.00    -0.084 Cl
HETATM   20  C   UNL     1      44.132 -18.437   4.108  1.00  0.00     0.024 A 
HETATM   21  C   UNL     1      43.907 -17.160   4.634  1.00  0.00     0.015 A 
ENDBRANCH  13  15
ENDBRANCH   5   9
BRANCH   1  22
HETATM   22  C   UNL     1      43.246  -7.140   8.474  1.00  0.00     0.141 C 
BRANCH  22  23
HETATM   23  C   UNL     1      42.865  -6.752   9.884  1.00  0.00    -0.047 A 
HETATM   24  C   UNL     1      42.822  -7.710  10.912  1.00  0.00     0.044 A 
HETATM   25  C   UNL     1      42.500  -7.342  12.220  1.00  0.00     0.068 A 
HETATM   26  C   UNL     1      42.241  -6.001  12.507  1.00  0.00     0.037 A 
HETATM   27  C   UNL     1      42.304  -5.035  11.504  1.00  0.00     0.003 A 
HETATM   28  C   UNL     1      42.619  -5.408  10.198  1.00  0.00     0.007 A 
BRANCH  25  29
HETATM   29  O   UNL     1      42.414  -8.186  13.294  1.00  0.00    -0.356 OA
HETATM   30  C   UNL     1      42.461  -9.581  13.020  1.00  0.00     0.210 C 
ENDBRANCH  25  29
ENDBRANCH  22  23
ENDBRANCH   1  22
TORSDOF 5
ENDMDL
MODEL 6
REMARK VINA RESULT:      -8.6      2.281      3.576
REMARK  5 active torsions:
REMARK  status: ('A' for Active; 'I' for Inactive)
REMARK    1  A    between atoms: O_2  and  C_3 
REMARK    2  A    between atoms: C_5  and  C_6 
REMARK    3  A    between atoms: C_6  and  C_7 
REMARK       I    between atoms: C_7  and  N_8 
REMARK    4  A    between atoms: N_11  and  C_12 
REMARK    5  A    between atoms: C_16  and  C_17 
ROOT
HETATM    1  C   UNL     1      39.994  -9.467   8.166  1.00  0.00     0.224 C 
HETATM    2  N   UNL     1      40.342 -10.163   7.020  1.00  0.00    -0.349 N 
HETATM    3  C   UNL     1      41.430  -9.826   6.099  1.00  0.00     0.145 C 
HETATM    4  C   UNL     1      42.201 -11.079   5.636  1.00  0.00     0.144 C 
HETATM    5  N   UNL     1      41.294 -12.142   5.132  1.00  0.00    -0.363 N 
HETATM    6  C   UNL     1      40.178 -12.449   6.068  1.00  0.00     0.144 C 
HETATM    7  C   UNL     1      39.428 -11.180   6.499  1.00  0.00     0.145 C 
HETATM    8  O   UNL     1      38.968  -9.733   8.799  1.00  0.00    -0.273 OA
ENDROOT
BRANCH   5   9
HETATM    9  C   UNL     1      41.853 -13.208   4.472  1.00  0.00     0.122 A 
HETATM   10  N   UNL     1      42.437 -13.103   3.238  1.00  0.00    -0.262 N 
HETATM   11  H   UNL     1      42.511 -12.276   2.660  1.00  0.00     0.191 HD
HETATM   12  N   UNL     1      42.945 -14.250   2.760  1.00  0.00    -0.173 NA
HETATM   13  C   UNL     1      42.641 -15.166   3.695  1.00  0.00     0.090 A 
HETATM   14  C   UNL     1      41.940 -14.552   4.770  1.00  0.00     0.084 A 
BRANCH  13  15
HETATM   15  C   UNL     1      43.017 -16.578   3.541  1.00  0.00    -0.005 A 
HETATM   16  C   UNL     1      43.719 -17.260   4.549  1.00  0.00     0.015 A 
HETATM   17  C   UNL     1      44.071 -18.605   4.393  1.00  0.00     0.024 A 
HETATM   18  C   UNL     1      43.726 -19.282   3.225  1.00  0.00     0.034 A 
HETATM   19 CL   UNL     1      44.159 -20.935   3.035  1.00  0.00    -0.084 Cl
HETATM   20  C   UNL     1      43.032 -18.625   2.214  1.00  0.00     0.024 A 
HETATM   21  C   UNL     1      42.681 -17.280   2.372  1.00  0.00     0.015 A 
ENDBRANCH  13  15
ENDBRANCH   5   9
BRANCH   1  22
HETATM   22  C   UNL     1      40.912  -8.358   8.660  1.00  0.00     0.141 C 
BRANCH  22  23
HETATM   23  C   UNL     1      42.160  -8.851   9.356  1.00  0.00    -0.047 A 
HETATM   24  C   UNL     1      43.434  -8.623   8.805  1.00  0.00     0.044 A 
HETATM   25  C   UNL     1      44.586  -9.053   9.465  1.00  0.00     0.068 A 
HETATM   26  C   UNL     1      44.466  -9.696  10.697  1.00  0.00     0.037 A 
HETATM   27  C   UNL     1      43.212  -9.908  11.269  1.00  0.00     0.003 A 
HETATM   28  C   UNL     1      42.063  -9.483  10.603  1.00  0.00     0.007 A 
BRANCH  25  29
HETATM   29  O   UNL     1      45.871  -8.900   9.021  1.00  0.00    -0.356 OA
HETATM   30  C   UNL     1      46.259  -9.681   7.897  1.00  0.00     0.210 C 
ENDBRANCH  25  29
ENDBRANCH  22  23
ENDBRANCH   1  22
TORSDOF 5
ENDMDL
MODEL 7
REMARK VINA RESULT:      -8.2      8.275     11.222
REMARK  5 active torsions:
REMARK  status: ('A' for Active; 'I' for Inactive)
REMARK    1  A    between atoms: O_2  and  C_3 
REMARK    2  A    between atoms: C_5  and  C_6 
REMARK    3  A    between atoms: C_6  and  C_7 
REMARK       I    between atoms: C_7  and  N_8 
REMARK    4  A    between atoms: N_11  and  C_12 
REMARK    5  A    between atoms: C_16  and  C_17 
ROOT
HETATM    1  C   UNL     1      38.228 -10.763  -1.415  1.00  0.00     0.224 C 
HETATM    2  N   UNL     1      38.684 -11.899  -0.767  1.00  0.00    -0.349 N 
HETATM    3  C   UNL     1      38.909 -13.212  -1.376  1.00  0.00     0.145 C 
HETATM    4  C   UNL     1      40.208 -13.868  -0.864  1.00  0.00     0.144 C 
HETATM    5  N   UNL     1      40.288 -13.872   0.619  1.00  0.00    -0.363 N 
HETATM    6  C   UNL     1      40.027 -12.536   1.221  1.00  0.00     0.144 C 
HETATM    7  C   UNL     1      38.723 -11.918   0.696  1.00  0.00     0.145 C 
HETATM    8  O   UNL     1      37.921  -9.741  -0.793  1.00  0.00    -0.273 OA
ENDROOT
BRANCH   5   9
HETATM    9  C   UNL     1      41.267 -14.632   1.212  1.00  0.00     0.122 A 
HETATM   10  N   UNL     1      42.584 -14.261   1.250  1.00  0.00    -0.262 N 
HETATM   11  H   UNL     1      43.003 -13.433   0.847  1.00  0.00     0.191 HD
HETATM   12  N   UNL     1      43.389 -15.123   1.889  1.00  0.00    -0.173 NA
HETATM   13  C   UNL     1      42.581 -16.136   2.246  1.00  0.00     0.090 A 
HETATM   14  C   UNL     1      41.249 -15.869   1.820  1.00  0.00     0.084 A 
BRANCH  13  15
HETATM   15  C   UNL     1      43.089 -17.310   2.969  1.00  0.00    -0.005 A 
HETATM   16  C   UNL     1      43.247 -18.549   2.327  1.00  0.00     0.015 A 
HETATM   17  C   UNL     1      43.733 -19.660   3.026  1.00  0.00     0.024 A 
HETATM   18  C   UNL     1      44.064 -19.543   4.374  1.00  0.00     0.034 A 
HETATM   19 CL   UNL     1      44.661 -20.909   5.230  1.00  0.00    -0.084 Cl
HETATM   20  C   UNL     1      43.913 -18.324   5.029  1.00  0.00     0.024 A 
HETATM   21  C   UNL     1      43.427 -17.215   4.329  1.00  0.00     0.015 A 
ENDBRANCH  13  15
ENDBRANCH   5   9
BRANCH   1  22
HETATM   22  C   UNL     1      38.118 -10.776  -2.933  1.00  0.00     0.141 C 
BRANCH  22  23
HETATM   23  C   UNL     1      38.910  -9.687  -3.620  1.00  0.00    -0.047 A 
HETATM   24  C   UNL     1      40.225  -9.387  -3.223  1.00  0.00     0.044 A 
HETATM   25  C   UNL     1      40.964  -8.401  -3.880  1.00  0.00     0.068 A 
HETATM   26  C   UNL     1      40.391  -7.725  -4.958  1.00  0.00     0.037 A 
HETATM   27  C   UNL     1      39.098  -8.028  -5.380  1.00  0.00     0.003 A 
HETATM   28  C   UNL     1      38.361  -9.008  -4.717  1.00  0.00     0.007 A 
BRANCH  25  29
HETATM   29  O   UNL     1      42.241  -8.016  -3.574  1.00  0.00    -0.356 OA
HETATM   30  C   UNL     1      42.882  -7.134  -4.488  1.00  0.00     0.210 C 
ENDBRANCH  25  29
ENDBRANCH  22  23
ENDBRANCH   1  22
TORSDOF 5
ENDMDL
MODEL 8
REMARK VINA RESULT:      -8.2      1.853      2.475
REMARK  5 active torsions:
REMARK  status: ('A' for Active; 'I' for Inactive)
REMARK    1  A    between atoms: O_2  and  C_3 
REMARK    2  A    between atoms: C_5  and  C_6 
REMARK    3  A    between atoms: C_6  and  C_7 
REMARK       I    between atoms: C_7  and  N_8 
REMARK    4  A    between atoms: N_11  and  C_12 
REMARK    5  A    between atoms: C_16  and  C_17 
ROOT
HETATM    1  C   UNL     1      39.979  -9.355   7.753  1.00  0.00     0.224 C 
HETATM    2  N   UNL     1      40.397 -10.083   6.652  1.00  0.00    -0.349 N 
HETATM    3  C   UNL     1      41.549  -9.781   5.799  1.00  0.00     0.145 C 
HETATM    4  C   UNL     1      42.336 -11.052   5.423  1.00  0.00     0.144 C 
HETATM    5  N   UNL     1      41.454 -12.120   4.885  1.00  0.00    -0.363 N 
HETATM    6  C   UNL     1      40.274 -12.392   5.749  1.00  0.00     0.144 C 
HETATM    7  C   UNL     1      39.510 -11.106   6.096  1.00  0.00     0.145 C 
HETATM    8  O   UNL     1      38.909  -9.595   8.321  1.00  0.00    -0.273 OA
ENDROOT
BRANCH   5   9
HETATM    9  C   UNL     1      42.045 -13.208   4.291  1.00  0.00     0.122 A 
HETATM   10  N   UNL     1      42.814 -13.121   3.162  1.00  0.00    -0.262 N 
HETATM   11  H   UNL     1      43.021 -12.292   2.621  1.00  0.00     0.191 HD
HETATM   12  N   UNL     1      43.322 -14.289   2.740  1.00  0.00    -0.173 NA
HETATM   13  C   UNL     1      42.829 -15.198   3.597  1.00  0.00     0.090 A 
HETATM   14  C   UNL     1      42.009 -14.558   4.569  1.00  0.00     0.084 A 
BRANCH  13  15
HETATM   15  C   UNL     1      43.144 -16.628   3.470  1.00  0.00    -0.005 A 
HETATM   16  C   UNL     1      42.746 -17.365   2.342  1.00  0.00     0.015 A 
HETATM   17  C   UNL     1      43.053 -18.726   2.232  1.00  0.00     0.024 A 
HETATM   18  C   UNL     1      43.759 -19.364   3.249  1.00  0.00     0.034 A 
HETATM   19 CL   UNL     1      44.135 -21.036   3.111  1.00  0.00    -0.084 Cl
HETATM   20  C   UNL     1      44.161 -18.652   4.375  1.00  0.00     0.024 A 
HETATM   21  C   UNL     1      43.853 -17.292   4.484  1.00  0.00     0.015 A 
ENDBRANCH  13  15
ENDBRANCH   5   9
BRANCH   1  22
HETATM   22  C   UNL     1      40.873  -8.242   8.282  1.00  0.00     0.141 C 
BRANCH  22  23
HETATM   23  C   UNL     1      41.540  -8.557   9.601  1.00  0.00    -0.047 A 
HETATM   24  C   UNL     1      40.926  -9.406  10.539  1.00  0.00     0.044 A 
HETATM   25  C   UNL     1      41.559  -9.719  11.743  1.00  0.00     0.068 A 
HETATM   26  C   UNL     1      42.828  -9.198  12.002  1.00  0.00     0.037 A 
HETATM   27  C   UNL     1      43.461  -8.377  11.071  1.00  0.00     0.003 A 
HETATM   28  C   UNL     1      42.823  -8.060   9.873  1.00  0.00     0.007 A 
BRANCH  25  29
HETATM   29  O   UNL     1      41.054 -10.519  12.732  1.00  0.00    -0.356 OA
HETATM   30  C   UNL     1      39.675 -10.362  13.043  1.00  0.00     0.210 C 
ENDBRANCH  25  29
ENDBRANCH  22  23
ENDBRANCH   1  22
TORSDOF 5
ENDMDL
MODEL 9
REMARK VINA RESULT:      -8.0      5.378     10.805
REMARK  5 active torsions:
REMARK  status: ('A' for Active; 'I' for Inactive)
REMARK    1  A    between atoms: O_2  and  C_3 
REMARK    2  A    between atoms: C_5  and  C_6 
REMARK    3  A    between atoms: C_6  and  C_7 
REMARK       I    between atoms: C_7  and  N_8 
REMARK    4  A    between atoms: N_11  and  C_12 
REMARK    5  A    between atoms: C_16  and  C_17 
ROOT
HETATM    1  C   UNL     1      41.939 -16.089   2.714  1.00  0.00     0.224 C 
HETATM    2  N   UNL     1      41.919 -15.107   3.688  1.00  0.00    -0.349 N 
HETATM    3  C   UNL     1      43.049 -14.689   4.522  1.00  0.00     0.145 C 
HETATM    4  C   UNL     1      43.104 -13.157   4.691  1.00  0.00     0.144 C 
HETATM    5  N   UNL     1      41.800 -12.592   5.121  1.00  0.00    -0.363 N 
HETATM    6  C   UNL     1      40.660 -13.052   4.282  1.00  0.00     0.144 C 
HETATM    7  C   UNL     1      40.631 -14.581   4.143  1.00  0.00     0.145 C 
HETATM    8  O   UNL     1      40.904 -16.482   2.167  1.00  0.00    -0.273 OA
ENDROOT
BRANCH   5   9
HETATM    9  C   UNL     1      41.768 -11.284   5.538  1.00  0.00     0.122 A 
HETATM   10  N   UNL     1      41.283 -10.262   4.766  1.00  0.00    -0.262 N 
HETATM   11  H   UNL     1      40.925 -10.321   3.822  1.00  0.00     0.191 HD
HETATM   12  N   UNL     1      41.317  -9.055   5.351  1.00  0.00    -0.173 NA
HETATM   13  C   UNL     1      41.894  -9.277   6.544  1.00  0.00     0.090 A 
HETATM   14  C   UNL     1      42.207 -10.658   6.685  1.00  0.00     0.084 A 
BRANCH  13  15
HETATM   15  C   UNL     1      42.131  -8.187   7.500  1.00  0.00    -0.005 A 
HETATM   16  C   UNL     1      43.331  -8.099   8.224  1.00  0.00     0.015 A 
HETATM   17  C   UNL     1      43.545  -7.055   9.132  1.00  0.00     0.024 A 
HETATM   18  C   UNL     1      42.560  -6.090   9.325  1.00  0.00     0.034 A 
HETATM   19 CL   UNL     1      42.826  -4.808  10.440  1.00  0.00    -0.084 Cl
HETATM   20  C   UNL     1      41.363  -6.159   8.619  1.00  0.00     0.024 A 
HETATM   21  C   UNL     1      41.151  -7.203   7.713  1.00  0.00     0.015 A 
ENDBRANCH  13  15
ENDBRANCH   5   9
BRANCH   1  22
HETATM   22  C   UNL     1      43.277 -16.687   2.298  1.00  0.00     0.141 C 
BRANCH  22  23
HETATM   23  C   UNL     1      43.485 -18.114   2.752  1.00  0.00    -0.047 A 
HETATM   24  C   UNL     1      43.711 -18.418   4.107  1.00  0.00     0.044 A 
HETATM   25  C   UNL     1      43.872 -19.739   4.526  1.00  0.00     0.068 A 
HETATM   26  C   UNL     1      43.784 -20.768   3.587  1.00  0.00     0.037 A 
HETATM   27  C   UNL     1      43.535 -20.485   2.245  1.00  0.00     0.003 A 
HETATM   28  C   UNL     1      43.382 -19.164   1.829  1.00  0.00     0.007 A 
BRANCH  25  29
HETATM   29  O   UNL     1      44.109 -20.153   5.809  1.00  0.00    -0.356 OA
HETATM   30  C   UNL     1      43.431 -19.451   6.844  1.00  0.00     0.210 C 
ENDBRANCH  25  29
ENDBRANCH  22  23
ENDBRANCH   1  22
TORSDOF 5
ENDMDL
MODEL 10
REMARK VINA RESULT:      -8.0      7.092     10.511
REMARK  5 active torsions:
REMARK  status: ('A' for Active; 'I' for Inactive)
REMARK    1  A    between atoms: O_2  and  C_3 
REMARK    2  A    between atoms: C_5  and  C_6 
REMARK    3  A    between atoms: C_6  and  C_7 
REMARK       I    between atoms: C_7  and  N_8 
REMARK    4  A    between atoms: N_11  and  C_12 
REMARK    5  A    between atoms: C_16  and  C_17 
ROOT
HETATM    1  C   UNL     1      41.750 -14.920   5.002  1.00  0.00     0.224 C 
HETATM    2  N   UNL     1      41.410 -13.956   4.069  1.00  0.00    -0.349 N 
HETATM    3  C   UNL     1      42.336 -13.225   3.201  1.00  0.00     0.145 C 
HETATM    4  C   UNL     1      41.784 -13.075   1.768  1.00  0.00     0.144 C 
HETATM    5  N   UNL     1      40.399 -12.540   1.753  1.00  0.00    -0.363 N 
HETATM    6  C   UNL     1      39.480 -13.276   2.664  1.00  0.00     0.144 C 
HETATM    7  C   UNL     1      40.057 -13.398   4.082  1.00  0.00     0.145 C 
HETATM    8  O   UNL     1      40.922 -15.373   5.798  1.00  0.00    -0.273 OA
ENDROOT
BRANCH   5   9
HETATM    9  C   UNL     1      39.876 -12.134   0.550  1.00  0.00     0.122 A 
HETATM   10  N   UNL     1      38.766 -12.702  -0.016  1.00  0.00    -0.262 N 
HETATM   11  H   UNL     1      38.222 -13.477   0.340  1.00  0.00     0.191 HD
HETATM   12  N   UNL     1      38.394 -12.158  -1.185  1.00  0.00    -0.173 NA
HETATM   13  C   UNL     1      39.326 -11.221  -1.430  1.00  0.00     0.090 A 
HETATM   14  C   UNL     1      40.279 -11.193  -0.374  1.00  0.00     0.084 A 
BRANCH  13  15
HETATM   15  C   UNL     1      39.286 -10.393  -2.644  1.00  0.00    -0.005 A 
HETATM   16  C   UNL     1      40.464  -9.914  -3.239  1.00  0.00     0.015 A 
HETATM   17  C   UNL     1      40.413  -9.127  -4.395  1.00  0.00     0.024 A 
HETATM   18  C   UNL     1      39.183  -8.811  -4.966  1.00  0.00     0.034 A 
HETATM   19 CL   UNL     1      39.123  -7.844  -6.387  1.00  0.00    -0.084 Cl
HETATM   20  C   UNL     1      38.003  -9.274  -4.392  1.00  0.00     0.024 A 
HETATM   21  C   UNL     1      38.056 -10.061  -3.236  1.00  0.00     0.015 A 
ENDBRANCH  13  15
ENDBRANCH   5   9
BRANCH   1  22
HETATM   22  C   UNL     1      43.180 -15.442   5.033  1.00  0.00     0.141 C 
BRANCH  22  23
HETATM   23  C   UNL     1      43.391 -16.717   4.249  1.00  0.00    -0.047 A 
HETATM   24  C   UNL     1      43.959 -17.854   4.852  1.00  0.00     0.044 A 
HETATM   25  C   UNL     1      44.123 -19.038   4.133  1.00  0.00     0.068 A 
HETATM   26  C   UNL     1      43.696 -19.095   2.805  1.00  0.00     0.037 A 
HETATM   27  C   UNL     1      43.108 -17.985   2.200  1.00  0.00     0.003 A 
HETATM   28  C   UNL     1      42.952 -16.802   2.920  1.00  0.00     0.007 A 
BRANCH  25  29
HETATM   29  O   UNL     1      44.673 -20.198   4.608  1.00  0.00    -0.356 OA
HETATM   30  C   UNL     1      43.894 -20.945   5.535  1.00  0.00     0.210 C 
ENDBRANCH  25  29
ENDBRANCH  22  23
ENDBRANCH   1  22
TORSDOF 5
ENDMDL
