MODEL 1
REMARK VINA RESULT:      -8.9      0.000      0.000
REMARK  6 active torsions:
REMARK  status: ('A' for Active; 'I' for Inactive)
REMARK    1  A    between atoms: C_9  and  C_10 
REMARK    2  A    between atoms: C_10  and  N_11 
REMARK       I    between atoms: N_11  and  C_12 
REMARK    3  A    between atoms: N_11  and  C_22 
REMARK    4  A    between atoms: C_12  and  C_13 
REMARK    5  A    between atoms: C_15  and  O_16 
REMARK    6  A    between atoms: C_22  and  C_23 
ROOT
HETATM    1  N   UNL     1      42.059 -14.285   3.315  1.00  0.00    -0.341 N 
HETATM    2  C   UNL     1      43.076 -15.000   2.670  1.00  0.00     0.254 C 
HETATM    3  O   UNL     1      43.870 -14.476   1.889  1.00  0.00    -0.267 OA
ENDROOT
BRANCH   1   4
HETATM    4  C   UNL     1      41.850 -12.902   2.858  1.00  0.00     0.170 C 
BRANCH   4   5
HETATM    5  C   UNL     1      40.847 -12.776   1.741  1.00  0.00     0.029 A 
HETATM    6  C   UNL     1      39.926 -11.605   1.906  1.00  0.00     0.253 A 
HETATM    7  N   UNL     1      38.955 -11.426   0.962  1.00  0.00    -0.322 N 
HETATM    8  O   UNL     1      40.041 -10.819   2.844  1.00  0.00    -0.268 OA
HETATM    9  C   UNL     1      38.784 -12.263  -0.143  1.00  0.00     0.045 A 
HETATM   10  H   UNL     1      38.342 -10.636   1.106  1.00  0.00     0.169 HD
HETATM   11  C   UNL     1      39.649 -13.347  -0.318  1.00  0.00    -0.008 A 
HETATM   12  C   UNL     1      37.762 -12.009  -1.055  1.00  0.00     0.031 A 
HETATM   13  C   UNL     1      39.479 -14.188  -1.423  1.00  0.00     0.020 A 
HETATM   14  C   UNL     1      40.705 -13.580   0.670  1.00  0.00     0.028 A 
HETATM   15  C   UNL     1      38.444 -13.953  -2.342  1.00  0.00    -0.061 A 
HETATM   16  C   UNL     1      38.273 -14.836  -3.543  1.00  0.00     0.048 C 
HETATM   17  C   UNL     1      37.596 -12.852  -2.155  1.00  0.00     0.009 A 
ENDBRANCH   4   5
ENDBRANCH   1   4
BRANCH   1  18
HETATM   18  C   UNL     1      40.927 -14.903   4.029  1.00  0.00     0.158 C 
BRANCH  18  19
HETATM   19  C   UNL     1      40.745 -14.378   5.470  1.00  0.00     0.139 C 
HETATM   20  O   UNL     1      42.013 -13.927   5.985  1.00  0.00    -0.384 OA
HETATM   21  C   UNL     1      42.485 -14.859   6.968  1.00  0.00     0.168 C 
HETATM   22  C   UNL     1      41.584 -16.073   6.893  1.00  0.00     0.029 C 
HETATM   23  C   UNL     1      40.283 -15.471   6.424  1.00  0.00     0.035 C 
ENDBRANCH  18  19
ENDBRANCH   1  18
BRANCH   2  24
HETATM   24  C   UNL     1      43.226 -16.459   2.871  1.00  0.00     0.034 A 
HETATM   25  C   UNL     1      43.629 -16.894   4.143  1.00  0.00     0.053 A 
HETATM   26  C   UNL     1      43.737 -18.257   4.412  1.00  0.00     0.069 A 
HETATM   27  C   UNL     1      43.476 -19.180   3.396  1.00  0.00     0.037 A 
HETATM   28  C   UNL     1      43.041 -18.750   2.140  1.00  0.00     0.004 A 
HETATM   29  C   UNL     1      42.889 -17.388   1.883  1.00  0.00     0.017 A 
BRANCH  26  30
HETATM   30  O   UNL     1      44.103 -18.796   5.614  1.00  0.00    -0.356 OA
HETATM   31  C   UNL     1      43.986 -20.213   5.714  1.00  0.00     0.210 C 
ENDBRANCH  26  30
ENDBRANCH   2  24
TORSDOF 6
ENDMDL
MODEL 2
REMARK VINA RESULT:      -8.6      2.329      7.133
REMARK  6 active torsions:
REMARK  status: ('A' for Active; 'I' for Inactive)
REMARK    1  A    between atoms: C_9  and  C_10 
REMARK    2  A    between atoms: C_10  and  N_11 
REMARK       I    between atoms: N_11  and  C_12 
REMARK    3  A    between atoms: N_11  and  C_22 
REMARK    4  A    between atoms: C_12  and  C_13 
REMARK    5  A    between atoms: C_15  and  O_16 
REMARK    6  A    between atoms: C_22  and  C_23 
ROOT
HETATM    1  N   UNL     1      41.285 -12.789   3.075  1.00  0.00    -0.341 N 
HETATM    2  C   UNL     1      40.361 -12.472   2.071  1.00  0.00     0.254 C 
HETATM    3  O   UNL     1      39.175 -12.796   2.127  1.00  0.00    -0.267 OA
ENDROOT
BRANCH   1   4
HETATM    4  C   UNL     1      40.815 -13.714   4.117  1.00  0.00     0.170 C 
BRANCH   4   5
HETATM    5  C   UNL     1      41.603 -14.996   4.191  1.00  0.00     0.029 A 
HETATM    6  C   UNL     1      42.316 -15.174   5.498  1.00  0.00     0.253 A 
HETATM    7  N   UNL     1      43.090 -16.290   5.650  1.00  0.00    -0.322 N 
HETATM    8  O   UNL     1      42.204 -14.360   6.412  1.00  0.00    -0.268 OA
HETATM    9  C   UNL     1      43.240 -17.269   4.665  1.00  0.00     0.045 A 
HETATM   10  H   UNL     1      43.567 -16.377   6.536  1.00  0.00     0.169 HD
HETATM   11  C   UNL     1      42.565 -17.123   3.449  1.00  0.00    -0.008 A 
HETATM   12  C   UNL     1      44.054 -18.374   4.903  1.00  0.00     0.031 A 
HETATM   13  C   UNL     1      42.716 -18.102   2.461  1.00  0.00     0.020 A 
HETATM   14  C   UNL     1      41.725 -15.942   3.240  1.00  0.00     0.028 A 
HETATM   15  C   UNL     1      43.544 -19.212   2.681  1.00  0.00    -0.061 A 
HETATM   16  C   UNL     1      43.690 -20.278   1.634  1.00  0.00     0.048 C 
HETATM   17  C   UNL     1      44.202 -19.346   3.912  1.00  0.00     0.009 A 
ENDBRANCH   4   5
ENDBRANCH   1   4
BRANCH   1  18
HETATM   18  C   UNL     1      42.747 -12.672   2.930  1.00  0.00     0.158 C 
BRANCH  18  19
HETATM   19  C   UNL     1      43.307 -11.310   3.394  1.00  0.00     0.139 C 
HETATM   20  O   UNL     1      44.616 -11.494   3.968  1.00  0.00    -0.384 OA
HETATM   21  C   UNL     1      44.538 -11.331   5.391  1.00  0.00     0.168 C 
HETATM   22  C   UNL     1      43.070 -11.277   5.749  1.00  0.00     0.029 C 
HETATM   23  C   UNL     1      42.462 -10.691   4.500  1.00  0.00     0.035 C 
ENDBRANCH  18  19
ENDBRANCH   1  18
BRANCH   2  24
HETATM   24  C   UNL     1      40.782 -11.747   0.850  1.00  0.00     0.034 A 
HETATM   25  C   UNL     1      40.814 -12.474  -0.350  1.00  0.00     0.053 A 
HETATM   26  C   UNL     1      41.150 -11.836  -1.542  1.00  0.00     0.069 A 
HETATM   27  C   UNL     1      41.488 -10.481  -1.525  1.00  0.00     0.037 A 
HETATM   28  C   UNL     1      41.423  -9.747  -0.337  1.00  0.00     0.004 A 
HETATM   29  C   UNL     1      41.044 -10.374   0.849  1.00  0.00     0.017 A 
BRANCH  26  30
HETATM   30  O   UNL     1      41.198 -12.436  -2.771  1.00  0.00    -0.356 OA
HETATM   31  C   UNL     1      40.437 -13.634  -2.900  1.00  0.00     0.210 C 
ENDBRANCH  26  30
ENDBRANCH   2  24
TORSDOF 6
ENDMDL
MODEL 3
REMARK VINA RESULT:      -8.6      2.234      7.219
REMARK  6 active torsions:
REMARK  status: ('A' for Active; 'I' for Inactive)
REMARK    1  A    between atoms: C_9  and  C_10 
REMARK    2  A    between atoms: C_10  and  N_11 
REMARK       I    between atoms: N_11  and  C_12 
REMARK    3  A    between atoms: N_11  and  C_22 
REMARK    4  A    between atoms: C_12  and  C_13 
REMARK    5  A    between atoms: C_15  and  O_16 
REMARK    6  A    between atoms: C_22  and  C_23 
ROOT
HETATM    1  N   UNL     1      42.039 -13.416   4.206  1.00  0.00    -0.341 N 
HETATM    2  C   UNL     1      42.688 -12.761   3.150  1.00  0.00     0.254 C 
HETATM    3  O   UNL     1      43.909 -12.788   2.996  1.00  0.00    -0.267 OA
ENDROOT
BRANCH   1   4
HETATM    4  C   UNL     1      42.910 -13.976   5.251  1.00  0.00     0.170 C 
BRANCH   4   5
HETATM    5  C   UNL     1      43.144 -15.458   5.117  1.00  0.00     0.029 A 
HETATM    6  C   UNL     1      43.411 -16.132   6.430  1.00  0.00     0.253 A 
HETATM    7  N   UNL     1      43.674 -17.473   6.409  1.00  0.00    -0.322 N 
HETATM    8  O   UNL     1      43.382 -15.515   7.492  1.00  0.00    -0.268 OA
HETATM    9  C   UNL     1      43.696 -18.241   5.244  1.00  0.00     0.045 A 
HETATM   10  H   UNL     1      43.861 -17.898   7.307  1.00  0.00     0.169 HD
HETATM   11  C   UNL     1      43.430 -17.627   4.016  1.00  0.00    -0.008 A 
HETATM   12  C   UNL     1      43.979 -19.604   5.315  1.00  0.00     0.031 A 
HETATM   13  C   UNL     1      43.453 -18.395   2.847  1.00  0.00     0.020 A 
HETATM   14  C   UNL     1      43.145 -16.191   3.988  1.00  0.00     0.028 A 
HETATM   15  C   UNL     1      43.751 -19.765   2.903  1.00  0.00    -0.061 A 
HETATM   16  C   UNL     1      43.752 -20.599   1.655  1.00  0.00     0.048 C 
HETATM   17  C   UNL     1      44.002 -20.364   4.145  1.00  0.00     0.009 A 
ENDBRANCH   4   5
ENDBRANCH   1   4
BRANCH   1  18
HETATM   18  C   UNL     1      40.635 -13.189   4.591  1.00  0.00     0.158 C 
BRANCH  18  19
HETATM   19  C   UNL     1      40.476 -12.485   5.957  1.00  0.00     0.139 C 
HETATM   20  O   UNL     1      39.079 -12.400   6.298  1.00  0.00    -0.384 OA
HETATM   21  C   UNL     1      38.639 -11.042   6.163  1.00  0.00     0.168 C 
HETATM   22  C   UNL     1      39.753 -10.283   5.476  1.00  0.00     0.029 C 
HETATM   23  C   UNL     1      40.975 -11.047   5.922  1.00  0.00     0.035 C 
ENDBRANCH  18  19
ENDBRANCH   1  18
BRANCH   2  24
HETATM   24  C   UNL     1      41.924 -11.958   2.168  1.00  0.00     0.034 A 
HETATM   25  C   UNL     1      41.316 -12.647   1.109  1.00  0.00     0.053 A 
HETATM   26  C   UNL     1      40.539 -11.956   0.182  1.00  0.00     0.069 A 
HETATM   27  C   UNL     1      40.403 -10.570   0.298  1.00  0.00     0.037 A 
HETATM   28  C   UNL     1      40.978  -9.887   1.372  1.00  0.00     0.004 A 
HETATM   29  C   UNL     1      41.719 -10.584   2.325  1.00  0.00     0.017 A 
BRANCH  26  30
HETATM   30  O   UNL     1      39.886 -12.522  -0.878  1.00  0.00    -0.356 OA
HETATM   31  C   UNL     1      39.631 -13.920  -0.769  1.00  0.00     0.210 C 
ENDBRANCH  26  30
ENDBRANCH   2  24
TORSDOF 6
ENDMDL
MODEL 4
REMARK VINA RESULT:      -8.6      2.005      2.657
REMARK  6 active torsions:
REMARK  status: ('A' for Active; 'I' for Inactive)
REMARK    1  A    between atoms: C_9  and  C_10 
REMARK    2  A    between atoms: C_10  and  N_11 
REMARK       I    between atoms: N_11  and  C_12 
REMARK    3  A    between atoms: N_11  and  C_22 
REMARK    4  A    between atoms: C_12  and  C_13 
REMARK    5  A    between atoms: C_15  and  O_16 
REMARK    6  A    between atoms: C_22  and  C_23 
ROOT
HETATM    1  N   UNL     1      41.953 -13.871   3.547  1.00  0.00    -0.341 N 
HETATM    2  C   UNL     1      41.450 -15.139   3.867  1.00  0.00     0.254 C 
HETATM    3  O   UNL     1      40.273 -15.455   3.693  1.00  0.00    -0.267 OA
ENDROOT
BRANCH   1   4
HETATM    4  C   UNL     1      40.956 -12.854   3.178  1.00  0.00     0.170 C 
BRANCH   4   5
HETATM    5  C   UNL     1      40.738 -12.729   1.692  1.00  0.00     0.029 A 
HETATM    6  C   UNL     1      41.403 -11.522   1.100  1.00  0.00     0.253 A 
HETATM    7  N   UNL     1      41.231 -11.298  -0.237  1.00  0.00    -0.322 N 
HETATM    8  O   UNL     1      42.090 -10.763   1.780  1.00  0.00    -0.268 OA
HETATM    9  C   UNL     1      40.487 -12.133  -1.074  1.00  0.00     0.045 A 
HETATM   10  H   UNL     1      41.681 -10.472  -0.605  1.00  0.00     0.169 HD
HETATM   11  C   UNL     1      39.880 -13.272  -0.536  1.00  0.00    -0.008 A 
HETATM   12  C   UNL     1      40.361 -11.826  -2.427  1.00  0.00     0.031 A 
HETATM   13  C   UNL     1      39.132 -14.108  -1.373  1.00  0.00     0.020 A 
HETATM   14  C   UNL     1      40.033 -13.551   0.893  1.00  0.00     0.028 A 
HETATM   15  C   UNL     1      38.985 -13.803  -2.734  1.00  0.00    -0.061 A 
HETATM   16  C   UNL     1      38.206 -14.710  -3.642  1.00  0.00     0.048 C 
HETATM   17  C   UNL     1      39.614 -12.663  -3.256  1.00  0.00     0.009 A 
ENDBRANCH   4   5
ENDBRANCH   1   4
BRANCH   1  18
HETATM   18  C   UNL     1      43.263 -13.358   3.986  1.00  0.00     0.158 C 
BRANCH  18  19
HETATM   19  C   UNL     1      43.168 -12.077   4.843  1.00  0.00     0.139 C 
HETATM   20  O   UNL     1      44.371 -11.299   4.687  1.00  0.00    -0.384 OA
HETATM   21  C   UNL     1      45.152 -11.387   5.886  1.00  0.00     0.168 C 
HETATM   22  C   UNL     1      44.524 -12.462   6.745  1.00  0.00     0.029 C 
HETATM   23  C   UNL     1      43.075 -12.389   6.331  1.00  0.00     0.035 C 
ENDBRANCH  18  19
ENDBRANCH   1  18
BRANCH   2  24
HETATM   24  C   UNL     1      42.319 -16.171   4.477  1.00  0.00     0.034 A 
HETATM   25  C   UNL     1      42.961 -17.065   3.608  1.00  0.00     0.053 A 
HETATM   26  C   UNL     1      43.833 -18.026   4.116  1.00  0.00     0.069 A 
HETATM   27  C   UNL     1      44.033 -18.111   5.496  1.00  0.00     0.037 A 
HETATM   28  C   UNL     1      43.422 -17.199   6.360  1.00  0.00     0.004 A 
HETATM   29  C   UNL     1      42.583 -16.209   5.849  1.00  0.00     0.017 A 
BRANCH  26  30
HETATM   30  O   UNL     1      44.527 -18.936   3.366  1.00  0.00    -0.356 OA
HETATM   31  C   UNL     1      43.731 -19.876   2.648  1.00  0.00     0.210 C 
ENDBRANCH  26  30
ENDBRANCH   2  24
TORSDOF 6
ENDMDL
MODEL 5
REMARK VINA RESULT:      -8.6      3.842      7.660
REMARK  6 active torsions:
REMARK  status: ('A' for Active; 'I' for Inactive)
REMARK    1  A    between atoms: C_9  and  C_10 
REMARK    2  A    between atoms: C_10  and  N_11 
REMARK       I    between atoms: N_11  and  C_12 
REMARK    3  A    between atoms: N_11  and  C_22 
REMARK    4  A    between atoms: C_12  and  C_13 
REMARK    5  A    between atoms: C_15  and  O_16 
REMARK    6  A    between atoms: C_22  and  C_23 
ROOT
HETATM    1  N   UNL     1      42.907 -12.567   5.712  1.00  0.00    -0.341 N 
HETATM    2  C   UNL     1      43.591 -12.663   6.931  1.00  0.00     0.254 C 
HETATM    3  O   UNL     1      43.457 -13.615   7.700  1.00  0.00    -0.267 OA
ENDROOT
BRANCH   1   4
HETATM    4  C   UNL     1      41.854 -13.568   5.481  1.00  0.00     0.170 C 
BRANCH   4   5
HETATM    5  C   UNL     1      42.348 -14.825   4.813  1.00  0.00     0.029 A 
HETATM    6  C   UNL     1      42.289 -14.757   3.316  1.00  0.00     0.253 A 
HETATM    7  N   UNL     1      42.681 -15.865   2.618  1.00  0.00    -0.322 N 
HETATM    8  O   UNL     1      41.919 -13.744   2.728  1.00  0.00    -0.268 OA
HETATM    9  C   UNL     1      43.137 -17.040   3.219  1.00  0.00     0.045 A 
HETATM   10  H   UNL     1      42.620 -15.794   1.612  1.00  0.00     0.169 HD
HETATM   11  C   UNL     1      43.215 -17.107   4.614  1.00  0.00    -0.008 A 
HETATM   12  C   UNL     1      43.512 -18.124   2.429  1.00  0.00     0.031 A 
HETATM   13  C   UNL     1      43.670 -18.284   5.218  1.00  0.00     0.020 A 
HETATM   14  C   UNL     1      42.804 -15.945   5.405  1.00  0.00     0.028 A 
HETATM   15  C   UNL     1      44.037 -19.389   4.435  1.00  0.00    -0.061 A 
HETATM   16  C   UNL     1      44.551 -20.644   5.077  1.00  0.00     0.048 C 
HETATM   17  C   UNL     1      43.965 -19.296   3.038  1.00  0.00     0.009 A 
ENDBRANCH   4   5
ENDBRANCH   1   4
BRANCH   1  18
HETATM   18  C   UNL     1      42.818 -11.340   4.900  1.00  0.00     0.158 C 
BRANCH  18  19
HETATM   19  C   UNL     1      41.418 -10.688   4.920  1.00  0.00     0.139 C 
HETATM   20  O   UNL     1      41.383  -9.588   3.989  1.00  0.00    -0.384 OA
HETATM   21  C   UNL     1      41.369  -8.351   4.714  1.00  0.00     0.168 C 
HETATM   22  C   UNL     1      41.649  -8.686   6.163  1.00  0.00     0.029 C 
HETATM   23  C   UNL     1      41.088 -10.082   6.278  1.00  0.00     0.035 C 
ENDBRANCH  18  19
ENDBRANCH   1  18
BRANCH   2  24
HETATM   24  C   UNL     1      44.500 -11.584   7.381  1.00  0.00     0.034 A 
HETATM   25  C   UNL     1      44.093 -10.819   8.484  1.00  0.00     0.053 A 
HETATM   26  C   UNL     1      44.927  -9.823   8.988  1.00  0.00     0.069 A 
HETATM   27  C   UNL     1      46.152  -9.574   8.365  1.00  0.00     0.037 A 
HETATM   28  C   UNL     1      46.576 -10.358   7.289  1.00  0.00     0.004 A 
HETATM   29  C   UNL     1      45.760 -11.383   6.811  1.00  0.00     0.017 A 
BRANCH  26  30
HETATM   30  O   UNL     1      44.645  -9.029  10.065  1.00  0.00    -0.356 OA
HETATM   31  C   UNL     1      43.762  -9.593  11.032  1.00  0.00     0.210 C 
ENDBRANCH  26  30
ENDBRANCH   2  24
TORSDOF 6
ENDMDL
MODEL 6
REMARK VINA RESULT:      -8.4      2.534      8.085
REMARK  6 active torsions:
REMARK  status: ('A' for Active; 'I' for Inactive)
REMARK    1  A    between atoms: C_9  and  C_10 
REMARK    2  A    between atoms: C_10  and  N_11 
REMARK       I    between atoms: N_11  and  C_12 
REMARK    3  A    between atoms: N_11  and  C_22 
REMARK    4  A    between atoms: C_12  and  C_13 
REMARK    5  A    between atoms: C_15  and  O_16 
REMARK    6  A    between atoms: C_22  and  C_23 
ROOT
HETATM    1  N   UNL     1      40.190 -12.879   1.557  1.00  0.00    -0.341 N 
HETATM    2  C   UNL     1      39.935 -11.557   1.944  1.00  0.00     0.254 C 
HETATM    3  O   UNL     1      39.481 -11.260   3.049  1.00  0.00    -0.267 OA
ENDROOT
BRANCH   1   4
HETATM    4  C   UNL     1      39.695 -13.926   2.464  1.00  0.00     0.170 C 
BRANCH   4   5
HETATM    5  C   UNL     1      40.746 -14.926   2.869  1.00  0.00     0.029 A 
HETATM    6  C   UNL     1      41.541 -14.492   4.064  1.00  0.00     0.253 A 
HETATM    7  N   UNL     1      42.547 -15.316   4.487  1.00  0.00    -0.322 N 
HETATM    8  O   UNL     1      41.298 -13.445   4.658  1.00  0.00    -0.268 OA
HETATM    9  C   UNL     1      42.861 -16.532   3.877  1.00  0.00     0.045 A 
HETATM   10  H   UNL     1      43.072 -14.993   5.286  1.00  0.00     0.169 HD
HETATM   11  C   UNL     1      42.113 -16.956   2.774  1.00  0.00    -0.008 A 
HETATM   12  C   UNL     1      43.907 -17.307   4.372  1.00  0.00     0.031 A 
HETATM   13  C   UNL     1      42.428 -18.173   2.160  1.00  0.00     0.020 A 
HETATM   14  C   UNL     1      41.027 -16.105   2.283  1.00  0.00     0.028 A 
HETATM   15  C   UNL     1      43.489 -18.957   2.639  1.00  0.00    -0.061 A 
HETATM   16  C   UNL     1      43.815 -20.276   2.001  1.00  0.00     0.048 C 
HETATM   17  C   UNL     1      44.217 -18.521   3.755  1.00  0.00     0.009 A 
ENDBRANCH   4   5
ENDBRANCH   1   4
BRANCH   1  18
HETATM   18  C   UNL     1      40.463 -13.305   0.172  1.00  0.00     0.158 C 
BRANCH  18  19
HETATM   19  C   UNL     1      39.199 -13.382  -0.710  1.00  0.00     0.139 C 
HETATM   20  O   UNL     1      39.110 -14.686  -1.317  1.00  0.00    -0.384 OA
HETATM   21  C   UNL     1      39.415 -14.581  -2.715  1.00  0.00     0.168 C 
HETATM   22  C   UNL     1      39.951 -13.185  -2.946  1.00  0.00     0.029 C 
HETATM   23  C   UNL     1      39.248 -12.396  -1.870  1.00  0.00     0.035 C 
ENDBRANCH  18  19
ENDBRANCH   1  18
BRANCH   2  24
HETATM   24  C   UNL     1      40.170 -10.432   1.011  1.00  0.00     0.034 A 
HETATM   25  C   UNL     1      41.482 -10.239   0.554  1.00  0.00     0.053 A 
HETATM   26  C   UNL     1      41.759  -9.231  -0.366  1.00  0.00     0.069 A 
HETATM   27  C   UNL     1      40.727  -8.395  -0.800  1.00  0.00     0.037 A 
HETATM   28  C   UNL     1      39.413  -8.607  -0.374  1.00  0.00     0.004 A 
HETATM   29  C   UNL     1      39.128  -9.644   0.513  1.00  0.00     0.017 A 
BRANCH  26  30
HETATM   30  O   UNL     1      42.992  -8.961  -0.894  1.00  0.00    -0.356 OA
HETATM   31  C   UNL     1      43.127  -7.690  -1.524  1.00  0.00     0.210 C 
ENDBRANCH  26  30
ENDBRANCH   2  24
TORSDOF 6
ENDMDL
MODEL 7
REMARK VINA RESULT:      -8.1      2.343      7.218
REMARK  6 active torsions:
REMARK  status: ('A' for Active; 'I' for Inactive)
REMARK    1  A    between atoms: C_9  and  C_10 
REMARK    2  A    between atoms: C_10  and  N_11 
REMARK       I    between atoms: N_11  and  C_12 
REMARK    3  A    between atoms: N_11  and  C_22 
REMARK    4  A    between atoms: C_12  and  C_13 
REMARK    5  A    between atoms: C_15  and  O_16 
REMARK    6  A    between atoms: C_22  and  C_23 
ROOT
HETATM    1  N   UNL     1      42.374 -13.454   5.036  1.00  0.00    -0.341 N 
HETATM    2  C   UNL     1      41.038 -13.724   4.712  1.00  0.00     0.254 C 
HETATM    3  O   UNL     1      40.310 -14.429   5.410  1.00  0.00    -0.267 OA
ENDROOT
BRANCH   1   4
HETATM    4  C   UNL     1      42.936 -14.225   6.157  1.00  0.00     0.170 C 
BRANCH   4   5
HETATM    5  C   UNL     1      43.151 -15.683   5.843  1.00  0.00     0.029 A 
HETATM    6  C   UNL     1      43.338 -16.526   7.069  1.00  0.00     0.253 A 
HETATM    7  N   UNL     1      43.579 -17.860   6.888  1.00  0.00    -0.322 N 
HETATM    8  O   UNL     1      43.266 -16.050   8.200  1.00  0.00    -0.268 OA
HETATM    9  C   UNL     1      43.648 -18.472   5.635  1.00  0.00     0.045 A 
HETATM   10  H   UNL     1      43.712 -18.400   7.731  1.00  0.00     0.169 HD
HETATM   11  C   UNL     1      43.455 -17.699   4.486  1.00  0.00    -0.008 A 
HETATM   12  C   UNL     1      43.902 -19.839   5.544  1.00  0.00     0.031 A 
HETATM   13  C   UNL     1      43.525 -18.311   3.230  1.00  0.00     0.020 A 
HETATM   14  C   UNL     1      43.197 -16.265   4.630  1.00  0.00     0.028 A 
HETATM   15  C   UNL     1      43.796 -19.684   3.123  1.00  0.00    -0.061 A 
HETATM   16  C   UNL     1      43.847 -20.350   1.779  1.00  0.00     0.048 C 
HETATM   17  C   UNL     1      43.972 -20.443   4.288  1.00  0.00     0.009 A 
ENDBRANCH   4   5
ENDBRANCH   1   4
BRANCH   1  18
HETATM   18  C   UNL     1      43.355 -12.860   4.110  1.00  0.00     0.158 C 
BRANCH  18  19
HETATM   19  C   UNL     1      43.650 -11.372   4.397  1.00  0.00     0.139 C 
HETATM   20  O   UNL     1      44.904 -11.253   5.097  1.00  0.00    -0.384 OA
HETATM   21  C   UNL     1      44.653 -10.902   6.464  1.00  0.00     0.168 C 
HETATM   22  C   UNL     1      43.163 -11.039   6.689  1.00  0.00     0.029 C 
HETATM   23  C   UNL     1      42.610 -10.748   5.317  1.00  0.00     0.035 C 
ENDBRANCH  18  19
ENDBRANCH   1  18
BRANCH   2  24
HETATM   24  C   UNL     1      40.436 -13.193   3.468  1.00  0.00     0.034 A 
HETATM   25  C   UNL     1      40.847 -13.770   2.257  1.00  0.00     0.053 A 
HETATM   26  C   UNL     1      40.279 -13.351   1.056  1.00  0.00     0.069 A 
HETATM   27  C   UNL     1      39.324 -12.331   1.068  1.00  0.00     0.037 A 
HETATM   28  C   UNL     1      38.887 -11.780   2.275  1.00  0.00     0.004 A 
HETATM   29  C   UNL     1      39.424 -12.229   3.481  1.00  0.00     0.017 A 
BRANCH  26  30
HETATM   30  O   UNL     1      40.587 -13.851  -0.179  1.00  0.00    -0.356 OA
HETATM   31  C   UNL     1      39.509 -14.462  -0.883  1.00  0.00     0.210 C 
ENDBRANCH  26  30
ENDBRANCH   2  24
TORSDOF 6
ENDMDL
MODEL 8
REMARK VINA RESULT:      -7.9      4.982      8.049
REMARK  6 active torsions:
REMARK  status: ('A' for Active; 'I' for Inactive)
REMARK    1  A    between atoms: C_9  and  C_10 
REMARK    2  A    between atoms: C_10  and  N_11 
REMARK       I    between atoms: N_11  and  C_12 
REMARK    3  A    between atoms: N_11  and  C_22 
REMARK    4  A    between atoms: C_12  and  C_13 
REMARK    5  A    between atoms: C_15  and  O_16 
REMARK    6  A    between atoms: C_22  and  C_23 
ROOT
HETATM    1  N   UNL     1      41.456  -9.976   6.841  1.00  0.00    -0.341 N 
HETATM    2  C   UNL     1      40.779  -9.297   7.863  1.00  0.00     0.254 C 
HETATM    3  O   UNL     1      39.564  -9.103   7.847  1.00  0.00    -0.267 OA
ENDROOT
BRANCH   1   4
HETATM    4  C   UNL     1      40.671 -10.274   5.633  1.00  0.00     0.170 C 
BRANCH   4   5
HETATM    5  C   UNL     1      40.789 -11.702   5.169  1.00  0.00     0.029 A 
HETATM    6  C   UNL     1      39.876 -12.637   5.906  1.00  0.00     0.253 A 
HETATM    7  N   UNL     1      39.936 -13.963   5.583  1.00  0.00    -0.322 N 
HETATM    8  O   UNL     1      39.089 -12.234   6.759  1.00  0.00    -0.268 OA
HETATM    9  C   UNL     1      40.785 -14.486   4.606  1.00  0.00     0.045 A 
HETATM   10  H   UNL     1      39.318 -14.570   6.103  1.00  0.00     0.169 HD
HETATM   11  C   UNL     1      41.627 -13.621   3.899  1.00  0.00    -0.008 A 
HETATM   12  C   UNL     1      40.784 -15.855   4.345  1.00  0.00     0.031 A 
HETATM   13  C   UNL     1      42.480 -14.144   2.921  1.00  0.00     0.020 A 
HETATM   14  C   UNL     1      41.600 -12.191   4.212  1.00  0.00     0.028 A 
HETATM   15  C   UNL     1      42.500 -15.522   2.659  1.00  0.00    -0.061 A 
HETATM   16  C   UNL     1      43.395 -16.085   1.593  1.00  0.00     0.048 C 
HETATM   17  C   UNL     1      41.638 -16.370   3.369  1.00  0.00     0.009 A 
ENDBRANCH   4   5
ENDBRANCH   1   4
BRANCH   1  18
HETATM   18  C   UNL     1      42.920  -9.990   6.676  1.00  0.00     0.158 C 
BRANCH  18  19
HETATM   19  C   UNL     1      43.620 -11.115   7.469  1.00  0.00     0.139 C 
HETATM   20  O   UNL     1      44.490 -10.538   8.463  1.00  0.00    -0.384 OA
HETATM   21  C   UNL     1      45.855 -10.719   8.062  1.00  0.00     0.168 C 
HETATM   22  C   UNL     1      45.833 -11.222   6.635  1.00  0.00     0.029 C 
HETATM   23  C   UNL     1      44.521 -11.965   6.584  1.00  0.00     0.035 C 
ENDBRANCH  18  19
ENDBRANCH   1  18
BRANCH   2  24
HETATM   24  C   UNL     1      41.514  -8.736   9.020  1.00  0.00     0.034 A 
HETATM   25  C   UNL     1      41.491  -9.471  10.214  1.00  0.00     0.053 A 
HETATM   26  C   UNL     1      42.206  -9.023  11.323  1.00  0.00     0.069 A 
HETATM   27  C   UNL     1      42.914  -7.822  11.244  1.00  0.00     0.037 A 
HETATM   28  C   UNL     1      42.968  -7.106  10.045  1.00  0.00     0.004 A 
HETATM   29  C   UNL     1      42.288  -7.576   8.922  1.00  0.00     0.017 A 
BRANCH  26  30
HETATM   30  O   UNL     1      42.271  -9.663  12.530  1.00  0.00    -0.356 OA
HETATM   31  C   UNL     1      41.094  -9.589  13.331  1.00  0.00     0.210 C 
ENDBRANCH  26  30
ENDBRANCH   2  24
TORSDOF 6
ENDMDL
MODEL 9
REMARK VINA RESULT:      -7.9      2.761      4.853
REMARK  6 active torsions:
REMARK  status: ('A' for Active; 'I' for Inactive)
REMARK    1  A    between atoms: C_9  and  C_10 
REMARK    2  A    between atoms: C_10  and  N_11 
REMARK       I    between atoms: N_11  and  C_12 
REMARK    3  A    between atoms: N_11  and  C_22 
REMARK    4  A    between atoms: C_12  and  C_13 
REMARK    5  A    between atoms: C_15  and  O_16 
REMARK    6  A    between atoms: C_22  and  C_23 
ROOT
HETATM    1  N   UNL     1      42.242 -13.203   3.518  1.00  0.00    -0.341 N 
HETATM    2  C   UNL     1      43.055 -12.096   3.794  1.00  0.00     0.254 C 
HETATM    3  O   UNL     1      43.866 -11.644   2.986  1.00  0.00    -0.267 OA
ENDROOT
BRANCH   1   4
HETATM    4  C   UNL     1      42.547 -13.936   2.279  1.00  0.00     0.170 C 
BRANCH   4   5
HETATM    5  C   UNL     1      41.523 -13.745   1.191  1.00  0.00     0.029 A 
HETATM    6  C   UNL     1      40.662 -14.954   0.976  1.00  0.00     0.253 A 
HETATM    7  N   UNL     1      39.724 -14.893  -0.017  1.00  0.00    -0.322 N 
HETATM    8  O   UNL     1      40.775 -15.962   1.669  1.00  0.00    -0.268 OA
HETATM    9  C   UNL     1      39.522 -13.772  -0.825  1.00  0.00     0.045 A 
HETATM   10  H   UNL     1      39.168 -15.725  -0.147  1.00  0.00     0.169 HD
HETATM   11  C   UNL     1      40.306 -12.632  -0.619  1.00  0.00    -0.008 A 
HETATM   12  C   UNL     1      38.546 -13.799  -1.818  1.00  0.00     0.031 A 
HETATM   13  C   UNL     1      40.105 -11.509  -1.429  1.00  0.00     0.020 A 
HETATM   14  C   UNL     1      41.325 -12.651   0.432  1.00  0.00     0.028 A 
HETATM   15  C   UNL     1      39.136 -11.527  -2.443  1.00  0.00    -0.061 A 
HETATM   16  C   UNL     1      38.899 -10.316  -3.297  1.00  0.00     0.048 C 
HETATM   17  C   UNL     1      38.351 -12.675  -2.623  1.00  0.00     0.009 A 
ENDBRANCH   4   5
ENDBRANCH   1   4
BRANCH   1  18
HETATM   18  C   UNL     1      41.469 -13.945   4.530  1.00  0.00     0.158 C 
BRANCH  18  19
HETATM   19  C   UNL     1      42.053 -15.337   4.853  1.00  0.00     0.139 C 
HETATM   20  O   UNL     1      41.155 -16.048   5.729  1.00  0.00    -0.384 OA
HETATM   21  C   UNL     1      41.724 -16.108   7.044  1.00  0.00     0.168 C 
HETATM   22  C   UNL     1      42.924 -15.187   7.048  1.00  0.00     0.029 C 
HETATM   23  C   UNL     1      43.371 -15.245   5.609  1.00  0.00     0.035 C 
ENDBRANCH  18  19
ENDBRANCH   1  18
BRANCH   2  24
HETATM   24  C   UNL     1      43.003 -11.424   5.113  1.00  0.00     0.034 A 
HETATM   25  C   UNL     1      44.002 -11.753   6.041  1.00  0.00     0.053 A 
HETATM   26  C   UNL     1      44.039 -11.117   7.280  1.00  0.00     0.069 A 
HETATM   27  C   UNL     1      43.055 -10.178   7.599  1.00  0.00     0.037 A 
HETATM   28  C   UNL     1      42.080  -9.823   6.663  1.00  0.00     0.004 A 
HETATM   29  C   UNL     1      42.068 -10.428   5.407  1.00  0.00     0.017 A 
BRANCH  26  30
HETATM   30  O   UNL     1      44.972 -11.342   8.254  1.00  0.00    -0.356 OA
HETATM   31  C   UNL     1      45.413 -10.186   8.963  1.00  0.00     0.210 C 
ENDBRANCH  26  30
ENDBRANCH   2  24
TORSDOF 6
ENDMDL
MODEL 10
REMARK VINA RESULT:      -7.8      2.758      4.745
REMARK  6 active torsions:
REMARK  status: ('A' for Active; 'I' for Inactive)
REMARK    1  A    between atoms: C_9  and  C_10 
REMARK    2  A    between atoms: C_10  and  N_11 
REMARK       I    between atoms: N_11  and  C_12 
REMARK    3  A    between atoms: N_11  and  C_22 
REMARK    4  A    between atoms: C_12  and  C_13 
REMARK    5  A    between atoms: C_15  and  O_16 
REMARK    6  A    between atoms: C_22  and  C_23 
ROOT
HETATM    1  N   UNL     1      40.710 -14.152   3.244  1.00  0.00    -0.341 N 
HETATM    2  C   UNL     1      40.753 -13.327   4.375  1.00  0.00     0.254 C 
HETATM    3  O   UNL     1      39.813 -12.609   4.716  1.00  0.00    -0.267 OA
ENDROOT
BRANCH   1   4
HETATM    4  C   UNL     1      39.552 -13.969   2.354  1.00  0.00     0.170 C 
BRANCH   4   5
HETATM    5  C   UNL     1      39.904 -13.378   1.014  1.00  0.00     0.029 A 
HETATM    6  C   UNL     1      39.941 -14.398  -0.086  1.00  0.00     0.253 A 
HETATM    7  N   UNL     1      40.288 -13.966  -1.336  1.00  0.00    -0.322 N 
HETATM    8  O   UNL     1      39.657 -15.576   0.114  1.00  0.00    -0.268 OA
HETATM    9  C   UNL     1      40.596 -12.639  -1.640  1.00  0.00     0.045 A 
HETATM   10  H   UNL     1      40.316 -14.677  -2.053  1.00  0.00     0.169 HD
HETATM   11  C   UNL     1      40.545 -11.677  -0.627  1.00  0.00    -0.008 A 
HETATM   12  C   UNL     1      40.945 -12.288  -2.943  1.00  0.00     0.031 A 
HETATM   13  C   UNL     1      40.856 -10.347  -0.930  1.00  0.00     0.020 A 
HETATM   14  C   UNL     1      40.181 -12.092   0.729  1.00  0.00     0.028 A 
HETATM   15  C   UNL     1      41.223  -9.982  -2.234  1.00  0.00    -0.061 A 
HETATM   16  C   UNL     1      41.531  -8.552  -2.571  1.00  0.00     0.048 C 
HETATM   17  C   UNL     1      41.254 -10.960  -3.239  1.00  0.00     0.009 A 
ENDBRANCH   4   5
ENDBRANCH   1   4
BRANCH   1  18
HETATM   18  C   UNL     1      41.885 -14.807   2.643  1.00  0.00     0.158 C 
BRANCH  18  19
HETATM   19  C   UNL     1      41.877 -16.344   2.789  1.00  0.00     0.139 C 
HETATM   20  O   UNL     1      41.382 -16.704   4.094  1.00  0.00    -0.384 OA
HETATM   21  C   UNL     1      42.469 -17.180   4.899  1.00  0.00     0.168 C 
HETATM   22  C   UNL     1      43.744 -16.881   4.142  1.00  0.00     0.029 C 
HETATM   23  C   UNL     1      43.278 -16.935   2.708  1.00  0.00     0.035 C 
ENDBRANCH  18  19
ENDBRANCH   1  18
BRANCH   2  24
HETATM   24  C   UNL     1      41.972 -13.248   5.213  1.00  0.00     0.034 A 
HETATM   25  C   UNL     1      42.880 -12.217   4.932  1.00  0.00     0.053 A 
HETATM   26  C   UNL     1      44.019 -12.058   5.719  1.00  0.00     0.069 A 
HETATM   27  C   UNL     1      44.263 -12.953   6.763  1.00  0.00     0.037 A 
HETATM   28  C   UNL     1      43.342 -13.959   7.066  1.00  0.00     0.004 A 
HETATM   29  C   UNL     1      42.180 -14.092   6.308  1.00  0.00     0.017 A 
BRANCH  26  30
HETATM   30  O   UNL     1      44.963 -11.082   5.551  1.00  0.00    -0.356 OA
HETATM   31  C   UNL     1      45.854 -10.893   6.647  1.00  0.00     0.210 C 
ENDBRANCH  26  30
ENDBRANCH   2  24
TORSDOF 6
ENDMDL
