MODEL 1
REMARK VINA RESULT:      -8.6      0.000      0.000
REMARK  9 active torsions:
REMARK  status: ('A' for Active; 'I' for Inactive)
REMARK    1  A    between atoms: C_2  and  O_3 
REMARK    2  A    between atoms: O_3  and  C_4 
REMARK    3  A    between atoms: C_5  and  C_6 
REMARK    4  A    between atoms: N_7  and  C_9 
REMARK    5  A    between atoms: C_9  and  C_10 
REMARK       I    between atoms: C_10  and  N_11 
REMARK    6  A    between atoms: N_11  and  C_12 
REMARK    7  A    between atoms: C_20  and  C_21 
REMARK    8  A    between atoms: C_21  and  O_22 
REMARK    9  A    between atoms: C_28  and  O_29 
ROOT
HETATM    1  C   UNL     1      41.507  -9.153   8.640  1.00  0.00     0.231 C 
HETATM    2  N   UNL     1      41.331  -9.816   7.255  1.00  0.00    -0.054 N 
HETATM    3  H   UNL     1      42.010 -10.592   7.297  1.00  0.00     0.281 HD
HETATM    4  C   UNL     1      41.680  -8.963   6.070  1.00  0.00     0.239 C 
HETATM    5  C   UNL     1      40.970  -7.622   6.127  1.00  0.00     0.066 C 
HETATM    6  C   UNL     1      41.325  -6.863   7.409  1.00  0.00     0.065 C 
HETATM    7  C   UNL     1      40.933  -7.710   8.633  1.00  0.00     0.055 C 
HETATM    8  C   UNL     1      40.606  -5.500   7.436  1.00  0.00     0.038 C 
HETATM    9  C   UNL     1      40.802  -4.748   8.754  1.00  0.00     0.003 C 
HETATM   10  C   UNL     1      40.451  -5.609   9.963  1.00  0.00     0.001 C 
HETATM   11  C   UNL     1      41.184  -6.949   9.949  1.00  0.00     0.010 C 
ENDROOT
BRANCH   2  12
HETATM   12  C   UNL     1      39.982 -10.537   7.086  1.00  0.00     0.338 C 
BRANCH  12  13
HETATM   13  C   UNL     1      40.043 -11.690   6.077  1.00  0.00     0.248 C 
HETATM   14  N   UNL     1      41.246 -12.366   6.102  1.00  0.00    -0.319 N 
HETATM   15  H   UNL     1      41.769 -12.411   6.979  1.00  0.00     0.169 HD
HETATM   16  O   UNL     1      39.058 -11.952   5.393  1.00  0.00    -0.271 OA
BRANCH  14  17
HETATM   17  C   UNL     1      41.648 -13.307   5.163  1.00  0.00     0.094 A 
HETATM   18  S   UNL     1      42.387 -12.806   3.721  1.00  0.00    -0.075 SA
HETATM   19  C   UNL     1      42.679 -14.407   3.246  1.00  0.00    -0.008 A 
HETATM   20  C   UNL     1      42.220 -15.334   4.166  1.00  0.00    -0.026 A 
HETATM   21  C   UNL     1      43.400 -14.728   1.971  1.00  0.00     0.047 C 
HETATM   22  C   UNL     1      42.370 -16.812   3.919  1.00  0.00     0.041 C 
HETATM   23  C   UNL     1      41.602 -14.689   5.305  1.00  0.00     0.080 A 
HETATM   24  C   UNL     1      43.379 -17.121   2.802  1.00  0.00     0.005 C 
HETATM   25  C   UNL     1      43.191 -16.199   1.592  1.00  0.00     0.005 C 
BRANCH  23  26
HETATM   26  C   UNL     1      40.966 -15.307   6.473  1.00  0.00     0.296 C 
HETATM   27  O   UNL     1      39.790 -15.095   6.761  1.00  0.00    -0.259 OA
BRANCH  26  28
HETATM   28  O   UNL     1      41.785 -16.153   7.154  1.00  0.00    -0.322 OA
HETATM   29  C   UNL     1      42.859 -15.517   7.849  1.00  0.00     0.213 C 
ENDBRANCH  26  28
ENDBRANCH  23  26
ENDBRANCH  14  17
ENDBRANCH  12  13
ENDBRANCH   2  12
BRANCH   1  30
HETATM   30  C   UNL     1      42.889  -9.372   9.257  1.00  0.00     0.006 A 
HETATM   31  C   UNL     1      43.000  -9.860  10.584  1.00  0.00     0.077 A 
HETATM   32  C   UNL     1      44.261 -10.081  11.151  1.00  0.00     0.037 A 
HETATM   33  C   UNL     1      45.421  -9.819  10.426  1.00  0.00     0.003 A 
HETATM   34  C   UNL     1      45.331  -9.325   9.134  1.00  0.00     0.001 A 
HETATM   35  C   UNL     1      44.080  -9.102   8.558  1.00  0.00     0.012 A 
BRANCH  31  36
HETATM   36  O   UNL     1      41.815 -10.072  11.240  1.00  0.00    -0.351 OA
BRANCH  36  37
HETATM   37  C   UNL     1      41.733  -9.858  12.651  1.00  0.00     0.171 C 
HETATM   38  C   UNL     1      40.331 -10.128  13.172  1.00  0.00     0.034 C 
ENDBRANCH  36  37
ENDBRANCH  31  36
ENDBRANCH   1  30
BRANCH   6  39
HETATM   39  O   UNL     1      42.731  -6.640   7.368  1.00  0.00    -0.389 OA
HETATM   40  H   UNL     1      43.003  -6.072   8.114  1.00  0.00     0.210 HD
ENDBRANCH   6  39
TORSDOF 9
ENDMDL
MODEL 2
REMARK VINA RESULT:      -8.5      1.484      2.360
REMARK  9 active torsions:
REMARK  status: ('A' for Active; 'I' for Inactive)
REMARK    1  A    between atoms: C_2  and  O_3 
REMARK    2  A    between atoms: O_3  and  C_4 
REMARK    3  A    between atoms: C_5  and  C_6 
REMARK    4  A    between atoms: N_7  and  C_9 
REMARK    5  A    between atoms: C_9  and  C_10 
REMARK       I    between atoms: C_10  and  N_11 
REMARK    6  A    between atoms: N_11  and  C_12 
REMARK    7  A    between atoms: C_20  and  C_21 
REMARK    8  A    between atoms: C_21  and  O_22 
REMARK    9  A    between atoms: C_28  and  O_29 
ROOT
HETATM    1  C   UNL     1      41.578  -9.084   8.538  1.00  0.00     0.231 C 
HETATM    2  N   UNL     1      41.373  -9.669   7.122  1.00  0.00    -0.054 N 
HETATM    3  H   UNL     1      42.093 -10.408   7.085  1.00  0.00     0.281 HD
HETATM    4  C   UNL     1      41.623  -8.727   5.980  1.00  0.00     0.239 C 
HETATM    5  C   UNL     1      40.848  -7.433   6.153  1.00  0.00     0.066 C 
HETATM    6  C   UNL     1      41.221  -6.736   7.464  1.00  0.00     0.065 C 
HETATM    7  C   UNL     1      40.930  -7.677   8.647  1.00  0.00     0.055 C 
HETATM    8  C   UNL     1      40.434  -5.418   7.609  1.00  0.00     0.038 C 
HETATM    9  C   UNL     1      40.651  -4.739   8.963  1.00  0.00     0.003 C 
HETATM   10  C   UNL     1      40.401  -5.691  10.128  1.00  0.00     0.001 C 
HETATM   11  C   UNL     1      41.201  -6.986   9.997  1.00  0.00     0.010 C 
ENDROOT
BRANCH   2  12
HETATM   12  C   UNL     1      40.057 -10.451   6.964  1.00  0.00     0.338 C 
BRANCH  12  13
HETATM   13  C   UNL     1      40.185 -11.650   6.018  1.00  0.00     0.248 C 
HETATM   14  N   UNL     1      41.411 -12.278   6.103  1.00  0.00    -0.319 N 
HETATM   15  H   UNL     1      41.915 -12.258   6.992  1.00  0.00     0.169 HD
HETATM   16  O   UNL     1      39.226 -11.984   5.327  1.00  0.00    -0.271 OA
BRANCH  14  17
HETATM   17  C   UNL     1      41.869 -13.249   5.222  1.00  0.00     0.094 A 
HETATM   18  S   UNL     1      41.395 -14.865   5.420  1.00  0.00    -0.075 SA
HETATM   19  C   UNL     1      42.181 -15.332   3.992  1.00  0.00    -0.008 A 
HETATM   20  C   UNL     1      42.811 -14.276   3.354  1.00  0.00    -0.026 A 
HETATM   21  C   UNL     1      42.133 -16.745   3.496  1.00  0.00     0.047 C 
HETATM   22  C   UNL     1      43.580 -14.488   2.077  1.00  0.00     0.041 C 
HETATM   23  C   UNL     1      42.634 -13.037   4.082  1.00  0.00     0.080 A 
HETATM   24  C   UNL     1      43.256 -15.836   1.415  1.00  0.00     0.005 C 
HETATM   25  C   UNL     1      43.217 -16.979   2.435  1.00  0.00     0.005 C 
BRANCH  23  26
HETATM   26  C   UNL     1      43.165 -11.707   3.765  1.00  0.00     0.296 C 
HETATM   27  O   UNL     1      43.938 -11.120   4.520  1.00  0.00    -0.259 OA
BRANCH  26  28
HETATM   28  O   UNL     1      42.757 -11.230   2.559  1.00  0.00    -0.322 OA
HETATM   29  C   UNL     1      41.531 -10.497   2.589  1.00  0.00     0.213 C 
ENDBRANCH  26  28
ENDBRANCH  23  26
ENDBRANCH  14  17
ENDBRANCH  12  13
ENDBRANCH   2  12
BRANCH   1  30
HETATM   30  C   UNL     1      42.997  -9.265   9.080  1.00  0.00     0.006 A 
HETATM   31  C   UNL     1      43.192  -9.816  10.372  1.00  0.00     0.077 A 
HETATM   32  C   UNL     1      44.488 -10.002  10.870  1.00  0.00     0.037 A 
HETATM   33  C   UNL     1      45.599  -9.643  10.111  1.00  0.00     0.003 A 
HETATM   34  C   UNL     1      45.425  -9.087   8.853  1.00  0.00     0.001 A 
HETATM   35  C   UNL     1      44.138  -8.898   8.345  1.00  0.00     0.012 A 
BRANCH  31  36
HETATM   36  O   UNL     1      42.051 -10.122  11.067  1.00  0.00    -0.351 OA
BRANCH  36  37
HETATM   37  C   UNL     1      42.005  -9.931  12.483  1.00  0.00     0.171 C 
HETATM   38  C   UNL     1      40.574  -9.928  12.995  1.00  0.00     0.034 C 
ENDBRANCH  36  37
ENDBRANCH  31  36
ENDBRANCH   1  30
BRANCH   6  39
HETATM   39  O   UNL     1      42.610  -6.434   7.378  1.00  0.00    -0.389 OA
HETATM   40  H   UNL     1      43.140  -7.229   7.578  1.00  0.00     0.210 HD
ENDBRANCH   6  39
TORSDOF 9
ENDMDL
MODEL 3
REMARK VINA RESULT:      -8.4      2.515      8.135
REMARK  9 active torsions:
REMARK  status: ('A' for Active; 'I' for Inactive)
REMARK    1  A    between atoms: C_2  and  O_3 
REMARK    2  A    between atoms: O_3  and  C_4 
REMARK    3  A    between atoms: C_5  and  C_6 
REMARK    4  A    between atoms: N_7  and  C_9 
REMARK    5  A    between atoms: C_9  and  C_10 
REMARK       I    between atoms: C_10  and  N_11 
REMARK    6  A    between atoms: N_11  and  C_12 
REMARK    7  A    between atoms: C_20  and  C_21 
REMARK    8  A    between atoms: C_21  and  O_22 
REMARK    9  A    between atoms: C_28  and  O_29 
ROOT
HETATM    1  C   UNL     1      41.702 -12.396   4.540  1.00  0.00     0.231 C 
HETATM    2  N   UNL     1      41.002 -11.250   5.307  1.00  0.00    -0.054 N 
HETATM    3  H   UNL     1      41.181 -11.507   6.291  1.00  0.00     0.281 HD
HETATM    4  C   UNL     1      39.516 -11.148   5.122  1.00  0.00     0.239 C 
HETATM    5  C   UNL     1      39.144 -11.125   3.650  1.00  0.00     0.066 C 
HETATM    6  C   UNL     1      39.650 -12.379   2.932  1.00  0.00     0.065 C 
HETATM    7  C   UNL     1      41.179 -12.474   3.079  1.00  0.00     0.055 C 
HETATM    8  C   UNL     1      39.246 -12.340   1.445  1.00  0.00     0.038 C 
HETATM    9  C   UNL     1      39.841 -13.493   0.634  1.00  0.00     0.003 C 
HETATM   10  C   UNL     1      41.350 -13.605   0.819  1.00  0.00     0.001 C 
HETATM   11  C   UNL     1      41.748 -13.670   2.293  1.00  0.00     0.010 C 
ENDROOT
BRANCH   2  12
HETATM   12  C   UNL     1      41.710  -9.892   5.163  1.00  0.00     0.338 C 
BRANCH  12  13
HETATM   13  C   UNL     1      41.842  -9.143   6.494  1.00  0.00     0.248 C 
HETATM   14  N   UNL     1      41.912  -9.986   7.584  1.00  0.00    -0.319 N 
HETATM   15  H   UNL     1      42.322 -10.915   7.464  1.00  0.00     0.169 HD
HETATM   16  O   UNL     1      41.925  -7.918   6.496  1.00  0.00    -0.271 OA
BRANCH  14  17
HETATM   17  C   UNL     1      41.825  -9.581   8.909  1.00  0.00     0.094 A 
HETATM   18  S   UNL     1      40.317  -9.194   9.582  1.00  0.00    -0.075 SA
HETATM   19  C   UNL     1      40.995  -8.969  11.120  1.00  0.00    -0.008 A 
HETATM   20  C   UNL     1      42.363  -9.180  11.141  1.00  0.00    -0.026 A 
HETATM   21  C   UNL     1      40.149  -8.619  12.306  1.00  0.00     0.047 C 
HETATM   22  C   UNL     1      43.155  -9.014  12.411  1.00  0.00     0.041 C 
HETATM   23  C   UNL     1      42.864  -9.539   9.831  1.00  0.00     0.080 A 
HETATM   24  C   UNL     1      42.260  -8.983  13.659  1.00  0.00     0.005 C 
HETATM   25  C   UNL     1      41.023  -8.100  13.455  1.00  0.00     0.005 C 
BRANCH  23  26
HETATM   26  C   UNL     1      44.247  -9.809   9.423  1.00  0.00     0.296 C 
HETATM   27  O   UNL     1      44.872 -10.778   9.847  1.00  0.00    -0.259 OA
BRANCH  26  28
HETATM   28  O   UNL     1      44.730  -8.919   8.514  1.00  0.00    -0.322 OA
HETATM   29  C   UNL     1      46.120  -9.063   8.216  1.00  0.00     0.213 C 
ENDBRANCH  26  28
ENDBRANCH  23  26
ENDBRANCH  14  17
ENDBRANCH  12  13
ENDBRANCH   2  12
BRANCH   1  30
HETATM   30  C   UNL     1      41.805 -13.698   5.335  1.00  0.00     0.006 A 
HETATM   31  C   UNL     1      42.575 -13.737   6.525  1.00  0.00     0.077 A 
HETATM   32  C   UNL     1      42.661 -14.920   7.270  1.00  0.00     0.037 A 
HETATM   33  C   UNL     1      42.001 -16.073   6.850  1.00  0.00     0.003 A 
HETATM   34  C   UNL     1      41.258 -16.056   5.680  1.00  0.00     0.001 A 
HETATM   35  C   UNL     1      41.164 -14.882   4.930  1.00  0.00     0.012 A 
BRANCH  31  36
HETATM   36  O   UNL     1      43.213 -12.571   6.859  1.00  0.00    -0.351 OA
BRANCH  36  37
HETATM   37  C   UNL     1      44.638 -12.488   6.773  1.00  0.00     0.171 C 
HETATM   38  C   UNL     1      45.071 -11.428   5.773  1.00  0.00     0.034 C 
ENDBRANCH  36  37
ENDBRANCH  31  36
ENDBRANCH   1  30
BRANCH   6  39
HETATM   39  O   UNL     1      39.005 -13.486   3.554  1.00  0.00    -0.389 OA
HETATM   40  H   UNL     1      39.585 -13.873   4.236  1.00  0.00     0.210 HD
ENDBRANCH   6  39
TORSDOF 9
ENDMDL
MODEL 4
REMARK VINA RESULT:      -8.2      2.607      8.167
REMARK  9 active torsions:
REMARK  status: ('A' for Active; 'I' for Inactive)
REMARK    1  A    between atoms: C_2  and  O_3 
REMARK    2  A    between atoms: O_3  and  C_4 
REMARK    3  A    between atoms: C_5  and  C_6 
REMARK    4  A    between atoms: N_7  and  C_9 
REMARK    5  A    between atoms: C_9  and  C_10 
REMARK       I    between atoms: C_10  and  N_11 
REMARK    6  A    between atoms: N_11  and  C_12 
REMARK    7  A    between atoms: C_20  and  C_21 
REMARK    8  A    between atoms: C_21  and  O_22 
REMARK    9  A    between atoms: C_28  and  O_29 
ROOT
HETATM    1  C   UNL     1      41.683 -12.127   4.968  1.00  0.00     0.231 C 
HETATM    2  N   UNL     1      40.861 -11.035   5.690  1.00  0.00    -0.054 N 
HETATM    3  H   UNL     1      41.005 -11.276   6.684  1.00  0.00     0.281 HD
HETATM    4  C   UNL     1      39.384 -11.042   5.426  1.00  0.00     0.239 C 
HETATM    5  C   UNL     1      39.090 -11.049   3.935  1.00  0.00     0.066 C 
HETATM    6  C   UNL     1      39.725 -12.264   3.253  1.00  0.00     0.065 C 
HETATM    7  C   UNL     1      41.247 -12.246   3.481  1.00  0.00     0.055 C 
HETATM    8  C   UNL     1      39.400 -12.257   1.746  1.00  0.00     0.038 C 
HETATM    9  C   UNL     1      40.120 -13.365   0.974  1.00  0.00     0.003 C 
HETATM   10  C   UNL     1      41.622 -13.365   1.241  1.00  0.00     0.001 C 
HETATM   11  C   UNL     1      41.944 -13.398   2.734  1.00  0.00     0.010 C 
ENDROOT
BRANCH   2  12
HETATM   12  C   UNL     1      41.474  -9.629   5.577  1.00  0.00     0.338 C 
BRANCH  12  13
HETATM   13  C   UNL     1      41.731  -8.977   6.940  1.00  0.00     0.248 C 
HETATM   14  N   UNL     1      41.645  -9.869   7.990  1.00  0.00    -0.319 N 
HETATM   15  H   UNL     1      41.884 -10.849   7.826  1.00  0.00     0.169 HD
HETATM   16  O   UNL     1      42.031  -7.788   6.999  1.00  0.00    -0.271 OA
BRANCH  14  17
HETATM   17  C   UNL     1      41.626  -9.515   9.333  1.00  0.00     0.094 A 
HETATM   18  S   UNL     1      43.082  -9.321  10.180  1.00  0.00    -0.075 SA
HETATM   19  C   UNL     1      42.270  -8.791  11.571  1.00  0.00    -0.008 A 
HETATM   20  C   UNL     1      40.895  -8.759  11.413  1.00  0.00    -0.026 A 
HETATM   21  C   UNL     1      43.014  -8.375  12.804  1.00  0.00     0.047 C 
HETATM   22  C   UNL     1      39.993  -8.332  12.540  1.00  0.00     0.041 C 
HETATM   23  C   UNL     1      40.505  -9.192  10.087  1.00  0.00     0.080 A 
HETATM   24  C   UNL     1      40.756  -7.608  13.659  1.00  0.00     0.005 C 
HETATM   25  C   UNL     1      42.068  -8.320  14.010  1.00  0.00     0.005 C 
BRANCH  23  26
HETATM   26  C   UNL     1      39.154  -9.334   9.532  1.00  0.00     0.296 C 
HETATM   27  O   UNL     1      38.741 -10.406   9.094  1.00  0.00    -0.259 OA
BRANCH  26  28
HETATM   28  O   UNL     1      38.416  -8.193   9.597  1.00  0.00    -0.322 OA
HETATM   29  C   UNL     1      38.817  -7.168   8.687  1.00  0.00     0.213 C 
ENDBRANCH  26  28
ENDBRANCH  23  26
ENDBRANCH  14  17
ENDBRANCH  12  13
ENDBRANCH   2  12
BRANCH   1  30
HETATM   30  C   UNL     1      41.839 -13.417   5.775  1.00  0.00     0.006 A 
HETATM   31  C   UNL     1      43.080 -13.717   6.390  1.00  0.00     0.077 A 
HETATM   32  C   UNL     1      43.227 -14.887   7.146  1.00  0.00     0.037 A 
HETATM   33  C   UNL     1      42.163 -15.773   7.298  1.00  0.00     0.003 A 
HETATM   34  C   UNL     1      40.948 -15.503   6.689  1.00  0.00     0.001 A 
HETATM   35  C   UNL     1      40.789 -14.339   5.934  1.00  0.00     0.012 A 
BRANCH  31  36
HETATM   36  O   UNL     1      44.085 -12.810   6.176  1.00  0.00    -0.351 OA
BRANCH  36  37
HETATM   37  C   UNL     1      44.473 -11.915   7.222  1.00  0.00     0.171 C 
HETATM   38  C   UNL     1      45.750 -11.172   6.869  1.00  0.00     0.034 C 
ENDBRANCH  36  37
ENDBRANCH  31  36
ENDBRANCH   1  30
BRANCH   6  39
HETATM   39  O   UNL     1      39.130 -13.414   3.845  1.00  0.00    -0.389 OA
HETATM   40  H   UNL     1      38.235 -13.554   3.483  1.00  0.00     0.210 HD
ENDBRANCH   6  39
TORSDOF 9
ENDMDL
MODEL 5
REMARK VINA RESULT:      -7.7      2.334      3.377
REMARK  9 active torsions:
REMARK  status: ('A' for Active; 'I' for Inactive)
REMARK    1  A    between atoms: C_2  and  O_3 
REMARK    2  A    between atoms: O_3  and  C_4 
REMARK    3  A    between atoms: C_5  and  C_6 
REMARK    4  A    between atoms: N_7  and  C_9 
REMARK    5  A    between atoms: C_9  and  C_10 
REMARK       I    between atoms: C_10  and  N_11 
REMARK    6  A    between atoms: N_11  and  C_12 
REMARK    7  A    between atoms: C_20  and  C_21 
REMARK    8  A    between atoms: C_21  and  O_22 
REMARK    9  A    between atoms: C_28  and  O_29 
ROOT
HETATM    1  C   UNL     1      41.429  -9.993   7.732  1.00  0.00     0.231 C 
HETATM    2  N   UNL     1      41.598 -10.192   6.209  1.00  0.00    -0.054 N 
HETATM    3  H   UNL     1      42.563 -10.554   6.143  1.00  0.00     0.281 HD
HETATM    4  C   UNL     1      41.515  -8.951   5.370  1.00  0.00     0.239 C 
HETATM    5  C   UNL     1      40.256  -8.160   5.679  1.00  0.00     0.066 C 
HETATM    6  C   UNL     1      40.199  -7.768   7.158  1.00  0.00     0.065 C 
HETATM    7  C   UNL     1      40.241  -9.036   8.029  1.00  0.00     0.055 C 
HETATM    8  C   UNL     1      38.921  -6.954   7.443  1.00  0.00     0.038 C 
HETATM    9  C   UNL     1      38.726  -6.649   8.930  1.00  0.00     0.003 C 
HETATM   10  C   UNL     1      38.812  -7.906   9.789  1.00  0.00     0.001 C 
HETATM   11  C   UNL     1      40.091  -8.699   9.524  1.00  0.00     0.010 C 
ENDROOT
BRANCH   2  12
HETATM   12  C   UNL     1      40.752 -11.345   5.642  1.00  0.00     0.338 C 
BRANCH  12  13
HETATM   13  C   UNL     1      41.577 -12.351   4.832  1.00  0.00     0.248 C 
HETATM   14  N   UNL     1      41.149 -13.654   4.990  1.00  0.00    -0.319 N 
HETATM   15  H   UNL     1      40.162 -13.828   5.189  1.00  0.00     0.169 HD
HETATM   16  O   UNL     1      42.477 -11.950   4.099  1.00  0.00    -0.271 OA
BRANCH  14  17
HETATM   17  C   UNL     1      41.836 -14.776   4.545  1.00  0.00     0.094 A 
HETATM   18  S   UNL     1      43.077 -15.441   5.489  1.00  0.00    -0.075 SA
HETATM   19  C   UNL     1      43.275 -16.741   4.418  1.00  0.00    -0.008 A 
HETATM   20  C   UNL     1      42.411 -16.684   3.338  1.00  0.00    -0.026 A 
HETATM   21  C   UNL     1      44.268 -17.831   4.682  1.00  0.00     0.047 C 
HETATM   22  C   UNL     1      42.440 -17.739   2.264  1.00  0.00     0.041 C 
HETATM   23  C   UNL     1      41.556 -15.517   3.404  1.00  0.00     0.080 A 
HETATM   24  C   UNL     1      43.208 -18.997   2.699  1.00  0.00     0.005 C 
HETATM   25  C   UNL     1      44.521 -18.648   3.409  1.00  0.00     0.005 C 
BRANCH  23  26
HETATM   26  C   UNL     1      40.536 -15.075   2.447  1.00  0.00     0.296 C 
HETATM   27  O   UNL     1      39.539 -15.751   2.201  1.00  0.00    -0.259 OA
BRANCH  26  28
HETATM   28  O   UNL     1      40.786 -13.850   1.912  1.00  0.00    -0.322 OA
HETATM   29  C   UNL     1      39.622 -13.068   1.637  1.00  0.00     0.213 C 
ENDBRANCH  26  28
ENDBRANCH  23  26
ENDBRANCH  14  17
ENDBRANCH  12  13
ENDBRANCH   2  12
BRANCH   1  30
HETATM   30  C   UNL     1      42.745  -9.753   8.473  1.00  0.00     0.006 A 
HETATM   31  C   UNL     1      43.845 -10.620   8.253  1.00  0.00     0.077 A 
HETATM   32  C   UNL     1      45.060 -10.398   8.913  1.00  0.00     0.037 A 
HETATM   33  C   UNL     1      45.203  -9.332   9.798  1.00  0.00     0.003 A 
HETATM   34  C   UNL     1      44.132  -8.486  10.038  1.00  0.00     0.001 A 
HETATM   35  C   UNL     1      42.916  -8.696   9.384  1.00  0.00     0.012 A 
BRANCH  31  36
HETATM   36  O   UNL     1      43.620 -11.658   7.387  1.00  0.00    -0.351 OA
BRANCH  36  37
HETATM   37  C   UNL     1      44.725 -12.327   6.773  1.00  0.00     0.171 C 
HETATM   38  C   UNL     1      45.413 -11.437   5.752  1.00  0.00     0.034 C 
ENDBRANCH  36  37
ENDBRANCH  31  36
ENDBRANCH   1  30
BRANCH   6  39
HETATM   39  O   UNL     1      41.333  -6.941   7.399  1.00  0.00    -0.389 OA
HETATM   40  H   UNL     1      41.343  -6.647   8.329  1.00  0.00     0.210 HD
ENDBRANCH   6  39
TORSDOF 9
ENDMDL
MODEL 6
REMARK VINA RESULT:      -7.5      6.093      9.847
REMARK  9 active torsions:
REMARK  status: ('A' for Active; 'I' for Inactive)
REMARK    1  A    between atoms: C_2  and  O_3 
REMARK    2  A    between atoms: O_3  and  C_4 
REMARK    3  A    between atoms: C_5  and  C_6 
REMARK    4  A    between atoms: N_7  and  C_9 
REMARK    5  A    between atoms: C_9  and  C_10 
REMARK       I    between atoms: C_10  and  N_11 
REMARK    6  A    between atoms: N_11  and  C_12 
REMARK    7  A    between atoms: C_20  and  C_21 
REMARK    8  A    between atoms: C_21  and  O_22 
REMARK    9  A    between atoms: C_28  and  O_29 
ROOT
HETATM    1  C   UNL     1      39.871 -11.138  -2.180  1.00  0.00     0.231 C 
HETATM    2  N   UNL     1      39.974 -11.884  -0.830  1.00  0.00    -0.054 N 
HETATM    3  H   UNL     1      39.040 -12.318  -0.749  1.00  0.00     0.281 HD
HETATM    4  C   UNL     1      40.187 -11.024   0.381  1.00  0.00     0.239 C 
HETATM    5  C   UNL     1      41.362 -10.081   0.189  1.00  0.00     0.066 C 
HETATM    6  C   UNL     1      41.154  -9.181  -1.032  1.00  0.00     0.065 C 
HETATM    7  C   UNL     1      40.975 -10.051  -2.289  1.00  0.00     0.055 C 
HETATM    8  C   UNL     1      42.351  -8.223  -1.197  1.00  0.00     0.038 C 
HETATM    9  C   UNL     1      42.278  -7.391  -2.478  1.00  0.00     0.003 C 
HETATM   10  C   UNL     1      42.059  -8.258  -3.713  1.00  0.00     0.001 C 
HETATM   11  C   UNL     1      40.857  -9.189  -3.559  1.00  0.00     0.010 C 
ENDROOT
BRANCH   2  12
HETATM   12  C   UNL     1      40.922 -13.095  -0.868  1.00  0.00     0.338 C 
BRANCH  12  13
HETATM   13  C   UNL     1      40.922 -13.895   0.440  1.00  0.00     0.248 C 
HETATM   14  N   UNL     1      42.151 -13.901   1.069  1.00  0.00    -0.319 N 
HETATM   15  H   UNL     1      42.772 -13.098   0.947  1.00  0.00     0.169 HD
HETATM   16  O   UNL     1      39.880 -14.402   0.843  1.00  0.00    -0.271 OA
BRANCH  14  17
HETATM   17  C   UNL     1      42.488 -14.709   2.147  1.00  0.00     0.094 A 
HETATM   18  S   UNL     1      42.871 -16.342   1.896  1.00  0.00    -0.075 SA
HETATM   19  C   UNL     1      43.274 -16.558   3.529  1.00  0.00    -0.008 A 
HETATM   20  C   UNL     1      43.122 -15.405   4.279  1.00  0.00    -0.026 A 
HETATM   21  C   UNL     1      43.777 -17.873   4.045  1.00  0.00     0.047 C 
HETATM   22  C   UNL     1      43.413 -15.395   5.756  1.00  0.00     0.041 C 
HETATM   23  C   UNL     1      42.650 -14.303   3.465  1.00  0.00     0.080 A 
HETATM   24  C   UNL     1      44.225 -16.620   6.201  1.00  0.00     0.005 C 
HETATM   25  C   UNL     1      43.694 -17.916   5.576  1.00  0.00     0.005 C 
BRANCH  23  26
HETATM   26  C   UNL     1      42.332 -12.933   3.878  1.00  0.00     0.296 C 
HETATM   27  O   UNL     1      42.948 -11.962   3.442  1.00  0.00    -0.259 OA
BRANCH  26  28
HETATM   28  O   UNL     1      41.280 -12.853   4.737  1.00  0.00    -0.322 OA
HETATM   29  C   UNL     1      39.995 -12.967   4.121  1.00  0.00     0.213 C 
ENDBRANCH  26  28
ENDBRANCH  23  26
ENDBRANCH  14  17
ENDBRANCH  12  13
ENDBRANCH   2  12
BRANCH   1  30
HETATM   30  C   UNL     1      38.442 -10.749  -2.563  1.00  0.00     0.006 A 
HETATM   31  C   UNL     1      37.422 -11.734  -2.568  1.00  0.00     0.077 A 
HETATM   32  C   UNL     1      36.107 -11.384  -2.899  1.00  0.00     0.037 A 
HETATM   33  C   UNL     1      35.784 -10.071  -3.235  1.00  0.00     0.003 A 
HETATM   34  C   UNL     1      36.773  -9.100  -3.252  1.00  0.00     0.001 A 
HETATM   35  C   UNL     1      38.087  -9.437  -2.922  1.00  0.00     0.012 A 
BRANCH  31  36
HETATM   36  O   UNL     1      37.821 -13.006  -2.249  1.00  0.00    -0.351 OA
BRANCH  36  37
HETATM   37  C   UNL     1      37.881 -14.010  -3.265  1.00  0.00     0.171 C 
HETATM   38  C   UNL     1      38.628 -15.242  -2.783  1.00  0.00     0.034 C 
ENDBRANCH  36  37
ENDBRANCH  31  36
ENDBRANCH   1  30
BRANCH   6  39
HETATM   39  O   UNL     1      39.984  -8.412  -0.769  1.00  0.00    -0.389 OA
HETATM   40  H   UNL     1      40.206  -7.462  -0.737  1.00  0.00     0.210 HD
ENDBRANCH   6  39
TORSDOF 9
ENDMDL
MODEL 7
REMARK VINA RESULT:      -7.5      2.803      8.712
REMARK  9 active torsions:
REMARK  status: ('A' for Active; 'I' for Inactive)
REMARK    1  A    between atoms: C_2  and  O_3 
REMARK    2  A    between atoms: O_3  and  C_4 
REMARK    3  A    between atoms: C_5  and  C_6 
REMARK    4  A    between atoms: N_7  and  C_9 
REMARK    5  A    between atoms: C_9  and  C_10 
REMARK       I    between atoms: C_10  and  N_11 
REMARK    6  A    between atoms: N_11  and  C_12 
REMARK    7  A    between atoms: C_20  and  C_21 
REMARK    8  A    between atoms: C_21  and  O_22 
REMARK    9  A    between atoms: C_28  and  O_29 
ROOT
HETATM    1  C   UNL     1      41.489 -11.858   5.618  1.00  0.00     0.231 C 
HETATM    2  N   UNL     1      40.566 -11.075   6.580  1.00  0.00    -0.054 N 
HETATM    3  H   UNL     1      40.723 -11.562   7.477  1.00  0.00     0.281 HD
HETATM    4  C   UNL     1      39.098 -11.135   6.275  1.00  0.00     0.239 C 
HETATM    5  C   UNL     1      38.818 -10.764   4.829  1.00  0.00     0.066 C 
HETATM    6  C   UNL     1      39.565 -11.691   3.867  1.00  0.00     0.065 C 
HETATM    7  C   UNL     1      41.078 -11.607   4.141  1.00  0.00     0.055 C 
HETATM    8  C   UNL     1      39.254 -11.305   2.407  1.00  0.00     0.038 C 
HETATM    9  C   UNL     1      40.077 -12.099   1.391  1.00  0.00     0.003 C 
HETATM   10  C   UNL     1      41.570 -12.044   1.695  1.00  0.00     0.001 C 
HETATM   11  C   UNL     1      41.881 -12.451   3.135  1.00  0.00     0.010 C 
ENDROOT
BRANCH   2  12
HETATM   12  C   UNL     1      41.051  -9.643   6.868  1.00  0.00     0.338 C 
BRANCH  12  13
HETATM   13  C   UNL     1      41.661  -9.489   8.265  1.00  0.00     0.248 C 
HETATM   14  N   UNL     1      40.736  -9.120   9.221  1.00  0.00    -0.319 N 
HETATM   15  H   UNL     1      39.763  -9.412   9.105  1.00  0.00     0.169 HD
HETATM   16  O   UNL     1      42.850  -9.739   8.441  1.00  0.00    -0.271 OA
BRANCH  14  17
HETATM   17  C   UNL     1      41.046  -8.712  10.512  1.00  0.00     0.094 A 
HETATM   18  S   UNL     1      40.709  -9.727  11.827  1.00  0.00    -0.075 SA
HETATM   19  C   UNL     1      41.458  -8.663  12.915  1.00  0.00    -0.008 A 
HETATM   20  C   UNL     1      41.966  -7.533  12.299  1.00  0.00    -0.026 A 
HETATM   21  C   UNL     1      41.565  -8.983  14.376  1.00  0.00     0.047 C 
HETATM   22  C   UNL     1      42.654  -6.457  13.097  1.00  0.00     0.041 C 
HETATM   23  C   UNL     1      41.721  -7.552  10.872  1.00  0.00     0.080 A 
HETATM   24  C   UNL     1      43.048  -6.932  14.504  1.00  0.00     0.005 C 
HETATM   25  C   UNL     1      41.919  -7.723  15.176  1.00  0.00     0.005 C 
BRANCH  23  26
HETATM   26  C   UNL     1      42.066  -6.537   9.871  1.00  0.00     0.296 C 
HETATM   27  O   UNL     1      43.233  -6.267   9.594  1.00  0.00    -0.259 OA
BRANCH  26  28
HETATM   28  O   UNL     1      40.983  -5.977   9.269  1.00  0.00    -0.322 OA
HETATM   29  C   UNL     1      40.529  -4.759   9.865  1.00  0.00     0.213 C 
ENDBRANCH  26  28
ENDBRANCH  23  26
ENDBRANCH  14  17
ENDBRANCH  12  13
ENDBRANCH   2  12
BRANCH   1  30
HETATM   30  C   UNL     1      41.753 -13.300   6.054  1.00  0.00     0.006 A 
HETATM   31  C   UNL     1      43.086 -13.745   6.243  1.00  0.00     0.077 A 
HETATM   32  C   UNL     1      43.338 -15.058   6.659  1.00  0.00     0.037 A 
HETATM   33  C   UNL     1      42.288 -15.945   6.887  1.00  0.00     0.003 A 
HETATM   34  C   UNL     1      40.980 -15.531   6.690  1.00  0.00     0.001 A 
HETATM   35  C   UNL     1      40.717 -14.223   6.276  1.00  0.00     0.012 A 
BRANCH  31  36
HETATM   36  O   UNL     1      44.065 -12.823   5.977  1.00  0.00    -0.351 OA
BRANCH  36  37
HETATM   37  C   UNL     1      44.730 -12.159   7.054  1.00  0.00     0.171 C 
HETATM   38  C   UNL     1      45.871 -11.290   6.549  1.00  0.00     0.034 C 
ENDBRANCH  36  37
ENDBRANCH  31  36
ENDBRANCH   1  30
BRANCH   6  39
HETATM   39  O   UNL     1      39.072 -13.005   4.110  1.00  0.00    -0.389 OA
HETATM   40  H   UNL     1      39.378 -13.323   4.979  1.00  0.00     0.210 HD
ENDBRANCH   6  39
TORSDOF 9
ENDMDL
MODEL 8
REMARK VINA RESULT:      -7.3      5.105      8.578
REMARK  9 active torsions:
REMARK  status: ('A' for Active; 'I' for Inactive)
REMARK    1  A    between atoms: C_2  and  O_3 
REMARK    2  A    between atoms: O_3  and  C_4 
REMARK    3  A    between atoms: C_5  and  C_6 
REMARK    4  A    between atoms: N_7  and  C_9 
REMARK    5  A    between atoms: C_9  and  C_10 
REMARK       I    between atoms: C_10  and  N_11 
REMARK    6  A    between atoms: N_11  and  C_12 
REMARK    7  A    between atoms: C_20  and  C_21 
REMARK    8  A    between atoms: C_21  and  O_22 
REMARK    9  A    between atoms: C_28  and  O_29 
ROOT
HETATM    1  C   UNL     1      41.487 -14.596   3.617  1.00  0.00     0.231 C 
HETATM    2  N   UNL     1      42.017 -14.327   2.191  1.00  0.00    -0.054 N 
HETATM    3  H   UNL     1      42.748 -15.050   2.090  1.00  0.00     0.281 HD
HETATM    4  C   UNL     1      42.661 -12.989   1.971  1.00  0.00     0.239 C 
HETATM    5  C   UNL     1      41.761 -11.860   2.440  1.00  0.00     0.066 C 
HETATM    6  C   UNL     1      41.414 -12.009   3.924  1.00  0.00     0.065 C 
HETATM    7  C   UNL     1      40.715 -13.360   4.156  1.00  0.00     0.055 C 
HETATM    8  C   UNL     1      40.514 -10.843   4.379  1.00  0.00     0.038 C 
HETATM    9  C   UNL     1      40.012 -11.003   5.816  1.00  0.00     0.003 C 
HETATM   10  C   UNL     1      39.358 -12.361   6.047  1.00  0.00     0.001 C 
HETATM   11  C   UNL     1      40.261 -13.517   5.619  1.00  0.00     0.010 C 
ENDROOT
BRANCH   2  12
HETATM   12  C   UNL     1      41.012 -14.687   1.083  1.00  0.00     0.338 C 
BRANCH  12  13
HETATM   13  C   UNL     1      40.336 -13.457   0.466  1.00  0.00     0.248 C 
HETATM   14  N   UNL     1      40.905 -13.071  -0.730  1.00  0.00    -0.319 N 
HETATM   15  H   UNL     1      41.338 -13.782  -1.323  1.00  0.00     0.169 HD
HETATM   16  O   UNL     1      39.358 -12.960   1.018  1.00  0.00    -0.271 OA
BRANCH  14  17
HETATM   17  C   UNL     1      40.632 -11.881  -1.393  1.00  0.00     0.094 A 
HETATM   18  S   UNL     1      41.613 -10.522  -1.136  1.00  0.00    -0.075 SA
HETATM   19  C   UNL     1      40.783  -9.627  -2.313  1.00  0.00    -0.008 A 
HETATM   20  C   UNL     1      39.757 -10.342  -2.908  1.00  0.00    -0.026 A 
HETATM   21  C   UNL     1      41.185  -8.226  -2.662  1.00  0.00     0.047 C 
HETATM   22  C   UNL     1      38.890  -9.718  -3.969  1.00  0.00     0.041 C 
HETATM   23  C   UNL     1      39.659 -11.680  -2.363  1.00  0.00     0.080 A 
HETATM   24  C   UNL     1      39.501  -8.431  -4.544  1.00  0.00     0.005 C 
HETATM   25  C   UNL     1      40.067  -7.526  -3.444  1.00  0.00     0.005 C 
BRANCH  23  26
HETATM   26  C   UNL     1      38.694 -12.734  -2.695  1.00  0.00     0.296 C 
HETATM   27  O   UNL     1      37.498 -12.626  -2.431  1.00  0.00    -0.259 OA
BRANCH  26  28
HETATM   28  O   UNL     1      39.245 -13.791  -3.350  1.00  0.00    -0.322 OA
HETATM   29  C   UNL     1      38.719 -15.066  -2.979  1.00  0.00     0.213 C 
ENDBRANCH  26  28
ENDBRANCH  23  26
ENDBRANCH  14  17
ENDBRANCH  12  13
ENDBRANCH   2  12
BRANCH   1  30
HETATM   30  C   UNL     1      42.508 -15.261   4.541  1.00  0.00     0.006 A 
HETATM   31  C   UNL     1      42.942 -16.585   4.274  1.00  0.00     0.077 A 
HETATM   32  C   UNL     1      43.891 -17.196   5.103  1.00  0.00     0.037 A 
HETATM   33  C   UNL     1      44.416 -16.518   6.201  1.00  0.00     0.003 A 
HETATM   34  C   UNL     1      43.990 -15.230   6.486  1.00  0.00     0.001 A 
HETATM   35  C   UNL     1      43.045 -14.611   5.666  1.00  0.00     0.012 A 
BRANCH  31  36
HETATM   36  O   UNL     1      42.364 -17.193   3.190  1.00  0.00    -0.351 OA
BRANCH  36  37
HETATM   37  C   UNL     1      43.186 -17.774   2.175  1.00  0.00     0.171 C 
HETATM   38  C   UNL     1      43.131 -19.292   2.219  1.00  0.00     0.034 C 
ENDBRANCH  36  37
ENDBRANCH  31  36
ENDBRANCH   1  30
BRANCH   6  39
HETATM   39  O   UNL     1      42.648 -11.940   4.633  1.00  0.00    -0.389 OA
HETATM   40  H   UNL     1      42.534 -12.286   5.538  1.00  0.00     0.210 HD
ENDBRANCH   6  39
TORSDOF 9
ENDMDL
MODEL 9
REMARK VINA RESULT:      -7.2      3.317      5.090
REMARK  9 active torsions:
REMARK  status: ('A' for Active; 'I' for Inactive)
REMARK    1  A    between atoms: C_2  and  O_3 
REMARK    2  A    between atoms: O_3  and  C_4 
REMARK    3  A    between atoms: C_5  and  C_6 
REMARK    4  A    between atoms: N_7  and  C_9 
REMARK    5  A    between atoms: C_9  and  C_10 
REMARK       I    between atoms: C_10  and  N_11 
REMARK    6  A    between atoms: N_11  and  C_12 
REMARK    7  A    between atoms: C_20  and  C_21 
REMARK    8  A    between atoms: C_21  and  O_22 
REMARK    9  A    between atoms: C_28  and  O_29 
ROOT
HETATM    1  C   UNL     1      42.136  -9.543   7.043  1.00  0.00     0.231 C 
HETATM    2  N   UNL     1      41.662 -10.622   6.043  1.00  0.00    -0.054 N 
HETATM    3  H   UNL     1      40.651 -10.679   6.247  1.00  0.00     0.281 HD
HETATM    4  C   UNL     1      42.246 -11.992   6.228  1.00  0.00     0.239 C 
HETATM    5  C   UNL     1      43.762 -11.941   6.297  1.00  0.00     0.066 C 
HETATM    6  C   UNL     1      44.233 -11.039   7.441  1.00  0.00     0.065 C 
HETATM    7  C   UNL     1      43.675  -9.619   7.240  1.00  0.00     0.055 C 
HETATM    8  C   UNL     1      45.774 -11.016   7.499  1.00  0.00     0.038 C 
HETATM    9  C   UNL     1      46.317 -10.023   8.529  1.00  0.00     0.003 C 
HETATM   10  C   UNL     1      45.726  -8.629   8.348  1.00  0.00     0.001 C 
HETATM   11  C   UNL     1      44.199  -8.649   8.315  1.00  0.00     0.010 C 
ENDROOT
BRANCH   2  12
HETATM   12  C   UNL     1      41.699 -10.158   4.576  1.00  0.00     0.338 C 
BRANCH  12  13
HETATM   13  C   UNL     1      40.752 -10.957   3.673  1.00  0.00     0.248 C 
HETATM   14  N   UNL     1      41.346 -11.366   2.495  1.00  0.00    -0.319 N 
HETATM   15  H   UNL     1      42.352 -11.545   2.486  1.00  0.00     0.169 HD
HETATM   16  O   UNL     1      39.614 -11.209   4.056  1.00  0.00    -0.271 OA
BRANCH  14  17
HETATM   17  C   UNL     1      40.670 -11.918   1.415  1.00  0.00     0.094 A 
HETATM   18  S   UNL     1      39.959 -10.907   0.253  1.00  0.00    -0.075 SA
HETATM   19  C   UNL     1      39.517 -12.230  -0.711  1.00  0.00    -0.008 A 
HETATM   20  C   UNL     1      39.898 -13.444  -0.167  1.00  0.00    -0.026 A 
HETATM   21  C   UNL     1      38.823 -12.044  -2.027  1.00  0.00     0.047 C 
HETATM   22  C   UNL     1      39.582 -14.741  -0.864  1.00  0.00     0.041 C 
HETATM   23  C   UNL     1      40.579 -13.267   1.098  1.00  0.00     0.080 A 
HETATM   24  C   UNL     1      39.179 -14.534  -2.332  1.00  0.00     0.005 C 
HETATM   25  C   UNL     1      38.201 -13.365  -2.497  1.00  0.00     0.005 C 
BRANCH  23  26
HETATM   26  C   UNL     1      41.107 -14.293   2.004  1.00  0.00     0.296 C 
HETATM   27  O   UNL     1      40.396 -15.186   2.459  1.00  0.00    -0.259 OA
BRANCH  26  28
HETATM   28  O   UNL     1      42.442 -14.176   2.240  1.00  0.00    -0.322 OA
HETATM   29  C   UNL     1      42.860 -14.604   3.538  1.00  0.00     0.213 C 
ENDBRANCH  26  28
ENDBRANCH  23  26
ENDBRANCH  14  17
ENDBRANCH  12  13
ENDBRANCH   2  12
BRANCH   1  30
HETATM   30  C   UNL     1      41.259  -9.431   8.291  1.00  0.00     0.006 A 
HETATM   31  C   UNL     1      39.852  -9.311   8.155  1.00  0.00     0.077 A 
HETATM   32  C   UNL     1      39.039  -9.226   9.292  1.00  0.00     0.037 A 
HETATM   33  C   UNL     1      39.598  -9.251  10.568  1.00  0.00     0.003 A 
HETATM   34  C   UNL     1      40.972  -9.351  10.718  1.00  0.00     0.001 A 
HETATM   35  C   UNL     1      41.793  -9.438   9.592  1.00  0.00     0.012 A 
BRANCH  31  36
HETATM   36  O   UNL     1      39.381  -9.270   6.869  1.00  0.00    -0.351 OA
BRANCH  36  37
HETATM   37  C   UNL     1      38.965  -8.026   6.301  1.00  0.00     0.171 C 
HETATM   38  C   UNL     1      37.976  -8.238   5.167  1.00  0.00     0.034 C 
ENDBRANCH  36  37
ENDBRANCH  31  36
ENDBRANCH   1  30
BRANCH   6  39
HETATM   39  O   UNL     1      43.737 -11.621   8.642  1.00  0.00    -0.389 OA
HETATM   40  H   UNL     1      43.471 -10.922   9.268  1.00  0.00     0.210 HD
ENDBRANCH   6  39
TORSDOF 9
ENDMDL
MODEL 10
REMARK VINA RESULT:      -7.1      5.252      8.398
REMARK  9 active torsions:
REMARK  status: ('A' for Active; 'I' for Inactive)
REMARK    1  A    between atoms: C_2  and  O_3 
REMARK    2  A    between atoms: O_3  and  C_4 
REMARK    3  A    between atoms: C_5  and  C_6 
REMARK    4  A    between atoms: N_7  and  C_9 
REMARK    5  A    between atoms: C_9  and  C_10 
REMARK       I    between atoms: C_10  and  N_11 
REMARK    6  A    between atoms: N_11  and  C_12 
REMARK    7  A    between atoms: C_20  and  C_21 
REMARK    8  A    between atoms: C_21  and  O_22 
REMARK    9  A    between atoms: C_28  and  O_29 
ROOT
HETATM    1  C   UNL     1      41.701 -13.006   4.408  1.00  0.00     0.231 C 
HETATM    2  N   UNL     1      40.874 -13.240   3.123  1.00  0.00    -0.054 N 
HETATM    3  H   UNL     1      40.329 -12.365   3.053  1.00  0.00     0.281 HD
HETATM    4  C   UNL     1      39.904 -14.384   3.165  1.00  0.00     0.239 C 
HETATM    5  C   UNL     1      40.582 -15.665   3.618  1.00  0.00     0.066 C 
HETATM    6  C   UNL     1      41.214 -15.497   5.002  1.00  0.00     0.065 C 
HETATM    7  C   UNL     1      42.243 -14.353   4.962  1.00  0.00     0.055 C 
HETATM    8  C   UNL     1      41.882 -16.814   5.445  1.00  0.00     0.038 C 
HETATM    9  C   UNL     1      42.657 -16.679   6.758  1.00  0.00     0.003 C 
HETATM   10  C   UNL     1      43.643 -15.516   6.723  1.00  0.00     0.001 C 
HETATM   11  C   UNL     1      42.976 -14.206   6.308  1.00  0.00     0.010 C 
ENDROOT
BRANCH   2  12
HETATM   12  C   UNL     1      41.720 -13.230   1.838  1.00  0.00     0.338 C 
BRANCH  12  13
HETATM   13  C   UNL     1      40.886 -12.992   0.575  1.00  0.00     0.248 C 
HETATM   14  N   UNL     1      40.367 -11.715   0.502  1.00  0.00    -0.319 N 
HETATM   15  H   UNL     1      40.881 -10.948   0.941  1.00  0.00     0.169 HD
HETATM   16  O   UNL     1      40.784 -13.883  -0.264  1.00  0.00    -0.271 OA
BRANCH  14  17
HETATM   17  C   UNL     1      39.414 -11.295  -0.417  1.00  0.00     0.094 A 
HETATM   18  S   UNL     1      37.787 -11.172   0.044  1.00  0.00    -0.075 SA
HETATM   19  C   UNL     1      37.351 -10.513  -1.456  1.00  0.00    -0.008 A 
HETATM   20  C   UNL     1      38.425 -10.383  -2.320  1.00  0.00    -0.026 A 
HETATM   21  C   UNL     1      35.942 -10.096  -1.749  1.00  0.00     0.047 C 
HETATM   22  C   UNL     1      38.242  -9.833  -3.709  1.00  0.00     0.041 C 
HETATM   23  C   UNL     1      39.653 -10.850  -1.711  1.00  0.00     0.080 A 
HETATM   24  C   UNL     1      36.895  -9.115  -3.882  1.00  0.00     0.005 C 
HETATM   25  C   UNL     1      35.740  -9.908  -3.258  1.00  0.00     0.005 C 
BRANCH  23  26
HETATM   26  C   UNL     1      40.997 -10.914  -2.296  1.00  0.00     0.296 C 
HETATM   27  O   UNL     1      41.236 -11.579  -3.302  1.00  0.00    -0.259 OA
BRANCH  26  28
HETATM   28  O   UNL     1      41.910 -10.143  -1.648  1.00  0.00    -0.322 OA
HETATM   29  C   UNL     1      41.842  -8.748  -1.954  1.00  0.00     0.213 C 
ENDBRANCH  26  28
ENDBRANCH  23  26
ENDBRANCH  14  17
ENDBRANCH  12  13
ENDBRANCH   2  12
BRANCH   1  30
HETATM   30  C   UNL     1      41.048 -12.037   5.394  1.00  0.00     0.006 A 
HETATM   31  C   UNL     1      41.816 -10.991   5.968  1.00  0.00     0.077 A 
HETATM   32  C   UNL     1      41.222 -10.087   6.857  1.00  0.00     0.037 A 
HETATM   33  C   UNL     1      39.876 -10.205   7.197  1.00  0.00     0.003 A 
HETATM   34  C   UNL     1      39.116 -11.232   6.659  1.00  0.00     0.001 A 
HETATM   35  C   UNL     1      39.696 -12.138   5.770  1.00  0.00     0.012 A 
BRANCH  31  36
HETATM   36  O   UNL     1      43.136 -10.955   5.603  1.00  0.00    -0.351 OA
BRANCH  36  37
HETATM   37  C   UNL     1      44.143 -10.725   6.592  1.00  0.00     0.171 C 
HETATM   38  C   UNL     1      45.424 -11.474   6.262  1.00  0.00     0.034 C 
ENDBRANCH  36  37
ENDBRANCH  31  36
ENDBRANCH   1  30
BRANCH   6  39
HETATM   39  O   UNL     1      40.148 -15.198   5.897  1.00  0.00    -0.389 OA
HETATM   40  H   UNL     1      40.080 -15.890   6.582  1.00  0.00     0.210 HD
ENDBRANCH   6  39
TORSDOF 9
ENDMDL
