MODEL 1
REMARK VINA RESULT:      -8.0      0.000      0.000
REMARK  6 active torsions:
REMARK  status: ('A' for Active; 'I' for Inactive)
REMARK    1  A    between atoms: C_2  and  O_3 
REMARK    2  A    between atoms: O_3  and  C_4 
REMARK    3  A    between atoms: C_8  and  C_9 
REMARK    4  A    between atoms: C_9  and  N_10 
REMARK       I    between atoms: N_10  and  C_11 
REMARK       I    between atoms: C_11  and  N_12 
REMARK    5  A    between atoms: N_12  and  C_13 
REMARK    6  A    between atoms: C_14  and  C_15 
ROOT
HETATM    1  N   UNL     1      41.631 -11.563   6.671  1.00  0.00    -0.339 N 
HETATM    2  C   UNL     1      42.880 -10.995   6.651  1.00  0.00     0.316 C 
HETATM    3  N   UNL     1      43.216 -10.466   7.878  1.00  0.00    -0.338 N 
HETATM    4  O   UNL     1      43.604 -10.961   5.665  1.00  0.00    -0.247 OA
HETATM    5  H   UNL     1      41.311 -11.904   7.564  1.00  0.00     0.164 HD
HETATM    6  H   UNL     1      42.432 -10.125   8.419  1.00  0.00     0.164 HD
ENDROOT
BRANCH   1   7
HETATM    7  C   UNL     1      41.069 -12.176   5.488  1.00  0.00     0.163 C 
BRANCH   7   8
HETATM    8  C   UNL     1      41.163 -13.678   5.514  1.00  0.00    -0.035 A 
HETATM    9  C   UNL     1      40.389 -14.436   6.397  1.00  0.00     0.028 A 
HETATM   10  C   UNL     1      40.542 -15.812   6.407  1.00  0.00     0.120 A 
HETATM   11  N   UNL     1      41.412 -16.478   5.620  1.00  0.00    -0.237 NA
HETATM   12  C   UNL     1      42.162 -15.737   4.786  1.00  0.00     0.165 A 
HETATM   13  C   UNL     1      42.059 -14.356   4.681  1.00  0.00     0.066 A 
BRANCH  12  14
HETATM   14  O   UNL     1      43.070 -16.339   3.944  1.00  0.00    -0.324 OA
BRANCH  14  15
HETATM   15  C   UNL     1      42.692 -16.608   2.581  1.00  0.00     0.058 C 
HETATM   16  C   UNL     1      43.496 -15.781   1.568  1.00  0.00     0.045 C 
HETATM   17  C   UNL     1      41.177 -16.495   2.347  1.00  0.00     0.045 C 
HETATM   18  C   UNL     1      43.080 -18.087   2.381  1.00  0.00     0.045 C 
ENDBRANCH  14  15
ENDBRANCH  12  14
ENDBRANCH   7   8
ENDBRANCH   1   7
BRANCH   3  19
HETATM   19  C   UNL     1      44.473  -9.802   8.073  1.00  0.00     0.095 A 
HETATM   20  C   UNL     1      44.941  -9.276   9.414  1.00  0.00     0.043 A 
HETATM   21  C   UNL     1      45.589 -10.495   8.798  1.00  0.00     0.037 A 
BRANCH  20  22
HETATM   22  C   UNL     1      44.125  -9.419  10.678  1.00  0.00    -0.052 A 
HETATM   23  C   UNL     1      43.511  -8.306  11.276  1.00  0.00     0.007 A 
HETATM   24  C   UNL     1      42.724  -8.433  12.424  1.00  0.00     0.001 A 
HETATM   25  C   UNL     1      42.531  -9.686  12.999  1.00  0.00     0.000 A 
HETATM   26  C   UNL     1      43.116 -10.807  12.420  1.00  0.00     0.001 A 
HETATM   27  C   UNL     1      43.897 -10.673  11.268  1.00  0.00     0.007 A 
ENDBRANCH  20  22
ENDBRANCH   3  19
TORSDOF 6
ENDMDL
MODEL 2
REMARK VINA RESULT:      -8.0      1.919      8.871
REMARK  6 active torsions:
REMARK  status: ('A' for Active; 'I' for Inactive)
REMARK    1  A    between atoms: C_2  and  O_3 
REMARK    2  A    between atoms: O_3  and  C_4 
REMARK    3  A    between atoms: C_8  and  C_9 
REMARK    4  A    between atoms: C_9  and  N_10 
REMARK       I    between atoms: N_10  and  C_11 
REMARK       I    between atoms: C_11  and  N_12 
REMARK    5  A    between atoms: N_12  and  C_13 
REMARK    6  A    between atoms: C_14  and  C_15 
ROOT
HETATM    1  N   UNL     1      43.890 -13.043   6.904  1.00  0.00    -0.339 N 
HETATM    2  C   UNL     1      42.751 -13.293   6.181  1.00  0.00     0.316 C 
HETATM    3  N   UNL     1      41.988 -14.281   6.762  1.00  0.00    -0.338 N 
HETATM    4  O   UNL     1      42.453 -12.709   5.147  1.00  0.00    -0.247 OA
HETATM    5  H   UNL     1      43.845 -13.246   7.891  1.00  0.00     0.164 HD
HETATM    6  H   UNL     1      42.517 -14.978   7.270  1.00  0.00     0.164 HD
ENDROOT
BRANCH   1   7
HETATM    7  C   UNL     1      44.845 -12.045   6.477  1.00  0.00     0.163 C 
BRANCH   7   8
HETATM    8  C   UNL     1      44.935 -10.884   7.430  1.00  0.00    -0.035 A 
HETATM    9  C   UNL     1      46.113 -10.141   7.555  1.00  0.00     0.028 A 
HETATM   10  C   UNL     1      46.156  -9.108   8.475  1.00  0.00     0.120 A 
HETATM   11  N   UNL     1      45.126  -8.774   9.281  1.00  0.00    -0.237 NA
HETATM   12  C   UNL     1      44.005  -9.506   9.163  1.00  0.00     0.165 A 
HETATM   13  C   UNL     1      43.854 -10.540   8.249  1.00  0.00     0.066 A 
BRANCH  12  14
HETATM   14  O   UNL     1      42.905  -9.227   9.943  1.00  0.00    -0.324 OA
BRANCH  14  15
HETATM   15  C   UNL     1      42.927  -9.579  11.339  1.00  0.00     0.058 C 
HETATM   16  C   UNL     1      43.402  -8.426  12.234  1.00  0.00     0.045 C 
HETATM   17  C   UNL     1      43.696 -10.881  11.615  1.00  0.00     0.045 C 
HETATM   18  C   UNL     1      41.444  -9.841  11.671  1.00  0.00     0.045 C 
ENDBRANCH  14  15
ENDBRANCH  12  14
ENDBRANCH   7   8
ENDBRANCH   1   7
BRANCH   3  19
HETATM   19  C   UNL     1      40.762 -14.716   6.155  1.00  0.00     0.095 A 
HETATM   20  C   UNL     1      40.673 -15.884   5.197  1.00  0.00     0.043 A 
HETATM   21  C   UNL     1      40.113 -15.994   6.596  1.00  0.00     0.037 A 
BRANCH  20  22
HETATM   22  C   UNL     1      41.874 -16.713   4.803  1.00  0.00    -0.052 A 
HETATM   23  C   UNL     1      42.298 -16.790   3.465  1.00  0.00     0.007 A 
HETATM   24  C   UNL     1      43.429 -17.523   3.097  1.00  0.00     0.001 A 
HETATM   25  C   UNL     1      44.168 -18.195   4.066  1.00  0.00     0.000 A 
HETATM   26  C   UNL     1      43.779 -18.125   5.400  1.00  0.00     0.001 A 
HETATM   27  C   UNL     1      42.650 -17.385   5.763  1.00  0.00     0.007 A 
ENDBRANCH  20  22
ENDBRANCH   3  19
TORSDOF 6
ENDMDL
MODEL 3
REMARK VINA RESULT:      -7.7      5.503      8.107
REMARK  6 active torsions:
REMARK  status: ('A' for Active; 'I' for Inactive)
REMARK    1  A    between atoms: C_2  and  O_3 
REMARK    2  A    between atoms: O_3  and  C_4 
REMARK    3  A    between atoms: C_8  and  C_9 
REMARK    4  A    between atoms: C_9  and  N_10 
REMARK       I    between atoms: N_10  and  C_11 
REMARK       I    between atoms: C_11  and  N_12 
REMARK    5  A    between atoms: N_12  and  C_13 
REMARK    6  A    between atoms: C_14  and  C_15 
ROOT
HETATM    1  N   UNL     1      40.450 -14.926   4.337  1.00  0.00    -0.339 N 
HETATM    2  C   UNL     1      41.466 -14.986   5.257  1.00  0.00     0.316 C 
HETATM    3  N   UNL     1      41.871 -16.284   5.480  1.00  0.00    -0.338 N 
HETATM    4  O   UNL     1      41.950 -14.008   5.811  1.00  0.00    -0.247 OA
HETATM    5  H   UNL     1      40.412 -15.676   3.664  1.00  0.00     0.164 HD
HETATM    6  H   UNL     1      41.141 -16.977   5.375  1.00  0.00     0.164 HD
ENDROOT
BRANCH   1   7
HETATM    7  C   UNL     1      39.864 -13.662   3.951  1.00  0.00     0.163 C 
BRANCH   7   8
HETATM    8  C   UNL     1      40.325 -13.198   2.595  1.00  0.00    -0.035 A 
HETATM    9  C   UNL     1      40.961 -11.965   2.431  1.00  0.00     0.028 A 
HETATM   10  C   UNL     1      41.330 -11.569   1.157  1.00  0.00     0.120 A 
HETATM   11  N   UNL     1      41.100 -12.299   0.045  1.00  0.00    -0.237 NA
HETATM   12  C   UNL     1      40.474 -13.475   0.215  1.00  0.00     0.165 A 
HETATM   13  C   UNL     1      40.093 -13.973   1.454  1.00  0.00     0.066 A 
BRANCH  12  14
HETATM   14  O   UNL     1      40.207 -14.284  -0.867  1.00  0.00    -0.324 OA
BRANCH  14  15
HETATM   15  C   UNL     1      39.414 -13.768  -1.952  1.00  0.00     0.058 C 
HETATM   16  C   UNL     1      40.256 -13.028  -3.001  1.00  0.00     0.045 C 
HETATM   17  C   UNL     1      38.218 -12.929  -1.472  1.00  0.00     0.045 C 
HETATM   18  C   UNL     1      38.847 -15.035  -2.624  1.00  0.00     0.045 C 
ENDBRANCH  14  15
ENDBRANCH  12  14
ENDBRANCH   7   8
ENDBRANCH   1   7
BRANCH   3  19
HETATM   19  C   UNL     1      42.909 -16.577   6.426  1.00  0.00     0.095 A 
HETATM   20  C   UNL     1      43.862 -17.746   6.285  1.00  0.00     0.043 A 
HETATM   21  C   UNL     1      44.346 -16.330   6.072  1.00  0.00     0.037 A 
BRANCH  20  22
HETATM   22  C   UNL     1      43.813 -18.705   5.119  1.00  0.00    -0.052 A 
HETATM   23  C   UNL     1      43.800 -18.238   3.793  1.00  0.00     0.007 A 
HETATM   24  C   UNL     1      43.793 -19.117   2.708  1.00  0.00     0.001 A 
HETATM   25  C   UNL     1      43.803 -20.492   2.926  1.00  0.00     0.000 A 
HETATM   26  C   UNL     1      43.829 -20.982   4.228  1.00  0.00     0.001 A 
HETATM   27  C   UNL     1      43.843 -20.097   5.309  1.00  0.00     0.007 A 
ENDBRANCH  20  22
ENDBRANCH   3  19
TORSDOF 6
ENDMDL
MODEL 4
REMARK VINA RESULT:      -7.7      2.285      8.978
REMARK  6 active torsions:
REMARK  status: ('A' for Active; 'I' for Inactive)
REMARK    1  A    between atoms: C_2  and  O_3 
REMARK    2  A    between atoms: O_3  and  C_4 
REMARK    3  A    between atoms: C_8  and  C_9 
REMARK    4  A    between atoms: C_9  and  N_10 
REMARK       I    between atoms: N_10  and  C_11 
REMARK       I    between atoms: C_11  and  N_12 
REMARK    5  A    between atoms: N_12  and  C_13 
REMARK    6  A    between atoms: C_14  and  C_15 
ROOT
HETATM    1  N   UNL     1      43.007 -12.296   4.068  1.00  0.00    -0.339 N 
HETATM    2  C   UNL     1      41.918 -12.959   3.562  1.00  0.00     0.316 C 
HETATM    3  N   UNL     1      42.287 -14.103   2.890  1.00  0.00    -0.338 N 
HETATM    4  O   UNL     1      40.762 -12.578   3.691  1.00  0.00    -0.247 OA
HETATM    5  H   UNL     1      43.817 -12.861   4.273  1.00  0.00     0.164 HD
HETATM    6  H   UNL     1      43.196 -14.056   2.446  1.00  0.00     0.164 HD
ENDROOT
BRANCH   1   7
HETATM    7  C   UNL     1      42.857 -11.064   4.808  1.00  0.00     0.163 C 
BRANCH   7   8
HETATM    8  C   UNL     1      43.753 -10.999   6.015  1.00  0.00    -0.035 A 
HETATM    9  C   UNL     1      45.114 -11.305   5.922  1.00  0.00     0.028 A 
HETATM   10  C   UNL     1      45.886 -11.268   7.071  1.00  0.00     0.120 A 
HETATM   11  N   UNL     1      45.403 -10.966   8.294  1.00  0.00    -0.237 NA
HETATM   12  C   UNL     1      44.090 -10.689   8.373  1.00  0.00     0.165 A 
HETATM   13  C   UNL     1      43.241 -10.669   7.275  1.00  0.00     0.066 A 
BRANCH  12  14
HETATM   14  O   UNL     1      43.518 -10.364   9.582  1.00  0.00    -0.324 OA
BRANCH  14  15
HETATM   15  C   UNL     1      43.336  -8.976   9.923  1.00  0.00     0.058 C 
HETATM   16  C   UNL     1      41.859  -8.558   9.935  1.00  0.00     0.045 C 
HETATM   17  C   UNL     1      44.199  -8.033   9.069  1.00  0.00     0.045 C 
HETATM   18  C   UNL     1      43.853  -8.887  11.373  1.00  0.00     0.045 C 
ENDBRANCH  14  15
ENDBRANCH  12  14
ENDBRANCH   7   8
ENDBRANCH   1   7
BRANCH   3  19
HETATM   19  C   UNL     1      41.302 -14.936   2.260  1.00  0.00     0.095 A 
HETATM   20  C   UNL     1      41.364 -16.449   2.263  1.00  0.00     0.043 A 
HETATM   21  C   UNL     1      40.332 -15.720   3.093  1.00  0.00     0.037 A 
BRANCH  20  22
HETATM   22  C   UNL     1      42.467 -17.222   2.948  1.00  0.00    -0.052 A 
HETATM   23  C   UNL     1      42.774 -17.005   4.302  1.00  0.00     0.007 A 
HETATM   24  C   UNL     1      43.767 -17.741   4.954  1.00  0.00     0.001 A 
HETATM   25  C   UNL     1      44.475 -18.719   4.261  1.00  0.00     0.000 A 
HETATM   26  C   UNL     1      44.183 -18.964   2.924  1.00  0.00     0.001 A 
HETATM   27  C   UNL     1      43.184 -18.229   2.280  1.00  0.00     0.007 A 
ENDBRANCH  20  22
ENDBRANCH   3  19
TORSDOF 6
ENDMDL
MODEL 5
REMARK VINA RESULT:      -7.6      2.144      9.012
REMARK  6 active torsions:
REMARK  status: ('A' for Active; 'I' for Inactive)
REMARK    1  A    between atoms: C_2  and  O_3 
REMARK    2  A    between atoms: O_3  and  C_4 
REMARK    3  A    between atoms: C_8  and  C_9 
REMARK    4  A    between atoms: C_9  and  N_10 
REMARK       I    between atoms: N_10  and  C_11 
REMARK       I    between atoms: C_11  and  N_12 
REMARK    5  A    between atoms: N_12  and  C_13 
REMARK    6  A    between atoms: C_14  and  C_15 
ROOT
HETATM    1  N   UNL     1      43.355 -12.711   6.272  1.00  0.00    -0.339 N 
HETATM    2  C   UNL     1      42.859 -12.253   5.078  1.00  0.00     0.316 C 
HETATM    3  N   UNL     1      41.544 -12.624   4.901  1.00  0.00    -0.338 N 
HETATM    4  O   UNL     1      43.505 -11.599   4.271  1.00  0.00    -0.247 OA
HETATM    5  H   UNL     1      42.683 -12.855   7.009  1.00  0.00     0.164 HD
HETATM    6  H   UNL     1      41.291 -13.502   5.337  1.00  0.00     0.164 HD
ENDROOT
BRANCH   1   7
HETATM    7  C   UNL     1      44.720 -12.443   6.667  1.00  0.00     0.163 C 
BRANCH   7   8
HETATM    8  C   UNL     1      44.854 -11.175   7.467  1.00  0.00    -0.035 A 
HETATM    9  C   UNL     1      46.032 -10.422   7.436  1.00  0.00     0.028 A 
HETATM   10  C   UNL     1      46.118  -9.285   8.221  1.00  0.00     0.120 A 
HETATM   11  N   UNL     1      45.131  -8.856   9.036  1.00  0.00    -0.237 NA
HETATM   12  C   UNL     1      44.010  -9.597   9.069  1.00  0.00     0.165 A 
HETATM   13  C   UNL     1      43.817 -10.735   8.296  1.00  0.00     0.066 A 
BRANCH  12  14
HETATM   14  O   UNL     1      42.953  -9.227   9.868  1.00  0.00    -0.324 OA
BRANCH  14  15
HETATM   15  C   UNL     1      42.984  -9.555  11.270  1.00  0.00     0.058 C 
HETATM   16  C   UNL     1      43.490  -8.395  12.139  1.00  0.00     0.045 C 
HETATM   17  C   UNL     1      43.732 -10.866  11.561  1.00  0.00     0.045 C 
HETATM   18  C   UNL     1      41.500  -9.783  11.624  1.00  0.00     0.045 C 
ENDBRANCH  14  15
ENDBRANCH  12  14
ENDBRANCH   7   8
ENDBRANCH   1   7
BRANCH   3  19
HETATM   19  C   UNL     1      40.835 -12.269   3.704  1.00  0.00     0.095 A 
HETATM   20  C   UNL     1      40.837 -13.117   2.450  1.00  0.00     0.043 A 
HETATM   21  C   UNL     1      39.597 -13.019   3.309  1.00  0.00     0.037 A 
BRANCH  20  22
HETATM   22  C   UNL     1      41.578 -14.430   2.351  1.00  0.00    -0.052 A 
HETATM   23  C   UNL     1      40.977 -15.636   2.749  1.00  0.00     0.007 A 
HETATM   24  C   UNL     1      41.640 -16.860   2.627  1.00  0.00     0.001 A 
HETATM   25  C   UNL     1      42.926 -16.904   2.095  1.00  0.00     0.000 A 
HETATM   26  C   UNL     1      43.540 -15.727   1.680  1.00  0.00     0.001 A 
HETATM   27  C   UNL     1      42.868 -14.507   1.800  1.00  0.00     0.007 A 
ENDBRANCH  20  22
ENDBRANCH   3  19
TORSDOF 6
ENDMDL
MODEL 6
REMARK VINA RESULT:      -7.5      2.034      9.137
REMARK  6 active torsions:
REMARK  status: ('A' for Active; 'I' for Inactive)
REMARK    1  A    between atoms: C_2  and  O_3 
REMARK    2  A    between atoms: O_3  and  C_4 
REMARK    3  A    between atoms: C_8  and  C_9 
REMARK    4  A    between atoms: C_9  and  N_10 
REMARK       I    between atoms: N_10  and  C_11 
REMARK       I    between atoms: C_11  and  N_12 
REMARK    5  A    between atoms: N_12  and  C_13 
REMARK    6  A    between atoms: C_14  and  C_15 
ROOT
HETATM    1  N   UNL     1      43.835 -13.049   6.214  1.00  0.00    -0.339 N 
HETATM    2  C   UNL     1      43.198 -14.247   6.415  1.00  0.00     0.316 C 
HETATM    3  N   UNL     1      44.012 -15.313   6.102  1.00  0.00    -0.338 N 
HETATM    4  O   UNL     1      42.047 -14.353   6.820  1.00  0.00    -0.247 OA
HETATM    5  H   UNL     1      44.841 -13.060   6.290  1.00  0.00     0.164 HD
HETATM    6  H   UNL     1      44.684 -15.129   5.368  1.00  0.00     0.164 HD
ENDROOT
BRANCH   1   7
HETATM    7  C   UNL     1      43.168 -11.793   6.475  1.00  0.00     0.163 C 
BRANCH   7   8
HETATM    8  C   UNL     1      43.969 -10.884   7.368  1.00  0.00    -0.035 A 
HETATM    9  C   UNL     1      45.363 -10.835   7.285  1.00  0.00     0.028 A 
HETATM   10  C   UNL     1      46.055 -10.011   8.157  1.00  0.00     0.120 A 
HETATM   11  N   UNL     1      45.464  -9.253   9.104  1.00  0.00    -0.237 NA
HETATM   12  C   UNL     1      44.125  -9.321   9.184  1.00  0.00     0.165 A 
HETATM   13  C   UNL     1      43.342 -10.092   8.336  1.00  0.00     0.066 A 
BRANCH  12  14
HETATM   14  O   UNL     1      43.443  -8.574  10.119  1.00  0.00    -0.324 OA
BRANCH  14  15
HETATM   15  C   UNL     1      43.075  -9.182  11.371  1.00  0.00     0.058 C 
HETATM   16  C   UNL     1      43.377  -8.283  12.578  1.00  0.00     0.045 C 
HETATM   17  C   UNL     1      43.654 -10.596  11.543  1.00  0.00     0.045 C 
HETATM   18  C   UNL     1      41.542  -9.321  11.272  1.00  0.00     0.045 C 
ENDBRANCH  14  15
ENDBRANCH  12  14
ENDBRANCH   7   8
ENDBRANCH   1   7
BRANCH   3  19
HETATM   19  C   UNL     1      43.534 -16.661   6.217  1.00  0.00     0.095 A 
HETATM   20  C   UNL     1      42.737 -17.359   5.136  1.00  0.00     0.043 A 
HETATM   21  C   UNL     1      44.168 -17.758   5.413  1.00  0.00     0.037 A 
BRANCH  20  22
HETATM   22  C   UNL     1      42.384 -16.699   3.823  1.00  0.00    -0.052 A 
HETATM   23  C   UNL     1      43.311 -16.635   2.769  1.00  0.00     0.007 A 
HETATM   24  C   UNL     1      42.982 -16.061   1.539  1.00  0.00     0.001 A 
HETATM   25  C   UNL     1      41.708 -15.537   1.334  1.00  0.00     0.000 A 
HETATM   26  C   UNL     1      40.766 -15.598   2.356  1.00  0.00     0.001 A 
HETATM   27  C   UNL     1      41.100 -16.181   3.582  1.00  0.00     0.007 A 
ENDBRANCH  20  22
ENDBRANCH   3  19
TORSDOF 6
ENDMDL
MODEL 7
REMARK VINA RESULT:      -7.5      2.309      2.938
REMARK  6 active torsions:
REMARK  status: ('A' for Active; 'I' for Inactive)
REMARK    1  A    between atoms: C_2  and  O_3 
REMARK    2  A    between atoms: O_3  and  C_4 
REMARK    3  A    between atoms: C_8  and  C_9 
REMARK    4  A    between atoms: C_9  and  N_10 
REMARK       I    between atoms: N_10  and  C_11 
REMARK       I    between atoms: C_11  and  N_12 
REMARK    5  A    between atoms: N_12  and  C_13 
REMARK    6  A    between atoms: C_14  and  C_15 
ROOT
HETATM    1  N   UNL     1      40.386 -11.564   6.387  1.00  0.00    -0.339 N 
HETATM    2  C   UNL     1      39.402 -10.966   7.134  1.00  0.00     0.316 C 
HETATM    3  N   UNL     1      39.914 -10.388   8.275  1.00  0.00    -0.338 N 
HETATM    4  O   UNL     1      38.218 -10.951   6.825  1.00  0.00    -0.247 OA
HETATM    5  H   UNL     1      41.314 -11.184   6.486  1.00  0.00     0.164 HD
HETATM    6  H   UNL     1      40.729 -10.853   8.654  1.00  0.00     0.164 HD
ENDROOT
BRANCH   1   7
HETATM    7  C   UNL     1      40.077 -12.239   5.146  1.00  0.00     0.163 C 
BRANCH   7   8
HETATM    8  C   UNL     1      40.298 -13.725   5.224  1.00  0.00    -0.035 A 
HETATM    9  C   UNL     1      40.157 -14.415   6.432  1.00  0.00     0.028 A 
HETATM   10  C   UNL     1      40.410 -15.776   6.457  1.00  0.00     0.120 A 
HETATM   11  N   UNL     1      40.804 -16.488   5.380  1.00  0.00    -0.237 NA
HETATM   12  C   UNL     1      40.951 -15.811   4.229  1.00  0.00     0.165 A 
HETATM   13  C   UNL     1      40.691 -14.454   4.096  1.00  0.00     0.066 A 
BRANCH  12  14
HETATM   14  O   UNL     1      41.343 -16.464   3.082  1.00  0.00    -0.324 OA
BRANCH  14  15
HETATM   15  C   UNL     1      42.747 -16.654   2.827  1.00  0.00     0.058 C 
HETATM   16  C   UNL     1      43.604 -16.507   4.092  1.00  0.00     0.045 C 
HETATM   17  C   UNL     1      43.268 -15.787   1.670  1.00  0.00     0.045 C 
HETATM   18  C   UNL     1      42.839 -18.127   2.376  1.00  0.00     0.045 C 
ENDBRANCH  14  15
ENDBRANCH  12  14
ENDBRANCH   7   8
ENDBRANCH   1   7
BRANCH   3  19
HETATM   19  C   UNL     1      39.052  -9.727   9.214  1.00  0.00     0.095 A 
HETATM   20  C   UNL     1      39.551  -9.054  10.475  1.00  0.00     0.043 A 
HETATM   21  C   UNL     1      39.048  -8.230   9.312  1.00  0.00     0.037 A 
BRANCH  20  22
HETATM   22  C   UNL     1      41.014  -9.004  10.852  1.00  0.00    -0.052 A 
HETATM   23  C   UNL     1      41.876  -8.044  10.296  1.00  0.00     0.007 A 
HETATM   24  C   UNL     1      43.220  -7.965  10.666  1.00  0.00     0.001 A 
HETATM   25  C   UNL     1      43.734  -8.850  11.611  1.00  0.00     0.000 A 
HETATM   26  C   UNL     1      42.900  -9.802  12.188  1.00  0.00     0.001 A 
HETATM   27  C   UNL     1      41.554  -9.870  11.817  1.00  0.00     0.007 A 
ENDBRANCH  20  22
ENDBRANCH   3  19
TORSDOF 6
ENDMDL
MODEL 8
REMARK VINA RESULT:      -7.2      1.940      2.564
REMARK  6 active torsions:
REMARK  status: ('A' for Active; 'I' for Inactive)
REMARK    1  A    between atoms: C_2  and  O_3 
REMARK    2  A    between atoms: O_3  and  C_4 
REMARK    3  A    between atoms: C_8  and  C_9 
REMARK    4  A    between atoms: C_9  and  N_10 
REMARK       I    between atoms: N_10  and  C_11 
REMARK       I    between atoms: C_11  and  N_12 
REMARK    5  A    between atoms: N_12  and  C_13 
REMARK    6  A    between atoms: C_14  and  C_15 
ROOT
HETATM    1  N   UNL     1      43.328 -12.934   7.425  1.00  0.00    -0.339 N 
HETATM    2  C   UNL     1      43.990 -11.734   7.476  1.00  0.00     0.316 C 
HETATM    3  N   UNL     1      43.929 -11.175   8.734  1.00  0.00    -0.338 N 
HETATM    4  O   UNL     1      44.563 -11.223   6.523  1.00  0.00    -0.247 OA
HETATM    5  H   UNL     1      43.264 -13.446   8.291  1.00  0.00     0.164 HD
HETATM    6  H   UNL     1      43.090 -11.398   9.254  1.00  0.00     0.164 HD
ENDROOT
BRANCH   1   7
HETATM    7  C   UNL     1      43.258 -13.698   6.199  1.00  0.00     0.163 C 
BRANCH   7   8
HETATM    8  C   UNL     1      42.014 -13.406   5.404  1.00  0.00    -0.035 A 
HETATM    9  C   UNL     1      40.829 -13.016   6.034  1.00  0.00     0.028 A 
HETATM   10  C   UNL     1      39.702 -12.798   5.259  1.00  0.00     0.120 A 
HETATM   11  N   UNL     1      39.668 -12.953   3.919  1.00  0.00    -0.237 NA
HETATM   12  C   UNL     1      40.810 -13.344   3.327  1.00  0.00     0.165 A 
HETATM   13  C   UNL     1      41.998 -13.557   4.013  1.00  0.00     0.066 A 
BRANCH  12  14
HETATM   14  O   UNL     1      40.863 -13.520   1.963  1.00  0.00    -0.324 OA
BRANCH  14  15
HETATM   15  C   UNL     1      40.796 -14.853   1.423  1.00  0.00     0.058 C 
HETATM   16  C   UNL     1      39.794 -15.745   2.170  1.00  0.00     0.045 C 
HETATM   17  C   UNL     1      42.177 -15.516   1.293  1.00  0.00     0.045 C 
HETATM   18  C   UNL     1      40.250 -14.642  -0.004  1.00  0.00     0.045 C 
ENDBRANCH  14  15
ENDBRANCH  12  14
ENDBRANCH   7   8
ENDBRANCH   1   7
BRANCH   3  19
HETATM   19  C   UNL     1      44.539  -9.904   9.004  1.00  0.00     0.095 A 
HETATM   20  C   UNL     1      44.042  -8.950  10.069  1.00  0.00     0.043 A 
HETATM   21  C   UNL     1      45.340  -9.701  10.256  1.00  0.00     0.037 A 
BRANCH  20  22
HETATM   22  C   UNL     1      42.861  -9.260  10.960  1.00  0.00    -0.052 A 
HETATM   23  C   UNL     1      43.034  -9.531  12.328  1.00  0.00     0.007 A 
HETATM   24  C   UNL     1      41.946  -9.782  13.168  1.00  0.00     0.001 A 
HETATM   25  C   UNL     1      40.652  -9.762  12.653  1.00  0.00     0.000 A 
HETATM   26  C   UNL     1      40.451  -9.483  11.305  1.00  0.00     0.001 A 
HETATM   27  C   UNL     1      41.544  -9.227  10.473  1.00  0.00     0.007 A 
ENDBRANCH  20  22
ENDBRANCH   3  19
TORSDOF 6
ENDMDL
MODEL 9
REMARK VINA RESULT:      -7.1      4.904      7.655
REMARK  6 active torsions:
REMARK  status: ('A' for Active; 'I' for Inactive)
REMARK    1  A    between atoms: C_2  and  O_3 
REMARK    2  A    between atoms: O_3  and  C_4 
REMARK    3  A    between atoms: C_8  and  C_9 
REMARK    4  A    between atoms: C_9  and  N_10 
REMARK       I    between atoms: N_10  and  C_11 
REMARK       I    between atoms: C_11  and  N_12 
REMARK    5  A    between atoms: N_12  and  C_13 
REMARK    6  A    between atoms: C_14  and  C_15 
ROOT
HETATM    1  N   UNL     1      41.210 -11.601   4.496  1.00  0.00    -0.339 N 
HETATM    2  C   UNL     1      40.513 -12.629   5.079  1.00  0.00     0.316 C 
HETATM    3  N   UNL     1      41.351 -13.502   5.736  1.00  0.00    -0.338 N 
HETATM    4  O   UNL     1      39.297 -12.754   5.020  1.00  0.00    -0.247 OA
HETATM    5  H   UNL     1      42.089 -11.358   4.926  1.00  0.00     0.164 HD
HETATM    6  H   UNL     1      42.276 -13.584   5.332  1.00  0.00     0.164 HD
ENDROOT
BRANCH   1   7
HETATM    7  C   UNL     1      40.532 -10.567   3.747  1.00  0.00     0.163 C 
BRANCH   7   8
HETATM    8  C   UNL     1      40.816 -10.639   2.271  1.00  0.00    -0.035 A 
HETATM    9  C   UNL     1      41.115  -9.489   1.535  1.00  0.00     0.028 A 
HETATM   10  C   UNL     1      41.328  -9.606   0.172  1.00  0.00     0.120 A 
HETATM   11  N   UNL     1      41.252 -10.771  -0.505  1.00  0.00    -0.237 NA
HETATM   12  C   UNL     1      40.948 -11.866   0.211  1.00  0.00     0.165 A 
HETATM   13  C   UNL     1      40.747 -11.857   1.585  1.00  0.00     0.066 A 
BRANCH  12  14
HETATM   14  O   UNL     1      40.857 -13.096  -0.402  1.00  0.00    -0.324 OA
BRANCH  14  15
HETATM   15  C   UNL     1      39.812 -13.325  -1.366  1.00  0.00     0.058 C 
HETATM   16  C   UNL     1      40.301 -13.184  -2.814  1.00  0.00     0.045 C 
HETATM   17  C   UNL     1      38.554 -12.484  -1.095  1.00  0.00     0.045 C 
HETATM   18  C   UNL     1      39.433 -14.804  -1.148  1.00  0.00     0.045 C 
ENDBRANCH  14  15
ENDBRANCH  12  14
ENDBRANCH   7   8
ENDBRANCH   1   7
BRANCH   3  19
HETATM   19  C   UNL     1      40.830 -14.664   6.398  1.00  0.00     0.095 A 
HETATM   20  C   UNL     1      40.918 -16.062   5.822  1.00  0.00     0.043 A 
HETATM   21  C   UNL     1      41.763 -15.667   7.011  1.00  0.00     0.037 A 
BRANCH  20  22
HETATM   22  C   UNL     1      41.580 -16.361   4.497  1.00  0.00    -0.052 A 
HETATM   23  C   UNL     1      42.844 -16.973   4.438  1.00  0.00     0.007 A 
HETATM   24  C   UNL     1      43.448 -17.288   3.218  1.00  0.00     0.001 A 
HETATM   25  C   UNL     1      42.794 -17.000   2.024  1.00  0.00     0.000 A 
HETATM   26  C   UNL     1      41.536 -16.407   2.053  1.00  0.00     0.001 A 
HETATM   27  C   UNL     1      40.934 -16.101   3.277  1.00  0.00     0.007 A 
ENDBRANCH  20  22
ENDBRANCH   3  19
TORSDOF 6
ENDMDL
MODEL 10
REMARK VINA RESULT:      -7.0      2.075      8.876
REMARK  6 active torsions:
REMARK  status: ('A' for Active; 'I' for Inactive)
REMARK    1  A    between atoms: C_2  and  O_3 
REMARK    2  A    between atoms: O_3  and  C_4 
REMARK    3  A    between atoms: C_8  and  C_9 
REMARK    4  A    between atoms: C_9  and  N_10 
REMARK       I    between atoms: N_10  and  C_11 
REMARK       I    between atoms: C_11  and  N_12 
REMARK    5  A    between atoms: N_12  and  C_13 
REMARK    6  A    between atoms: C_14  and  C_15 
ROOT
HETATM    1  N   UNL     1      42.240 -11.534   5.762  1.00  0.00    -0.339 N 
HETATM    2  C   UNL     1      41.190 -12.405   5.904  1.00  0.00     0.316 C 
HETATM    3  N   UNL     1      41.624 -13.681   6.186  1.00  0.00    -0.338 N 
HETATM    4  O   UNL     1      40.013 -12.087   5.791  1.00  0.00    -0.247 OA
HETATM    5  H   UNL     1      43.084 -11.769   6.261  1.00  0.00     0.164 HD
HETATM    6  H   UNL     1      42.525 -13.918   5.789  1.00  0.00     0.164 HD
ENDROOT
BRANCH   1   7
HETATM    7  C   UNL     1      42.019 -10.138   5.459  1.00  0.00     0.163 C 
BRANCH   7   8
HETATM    8  C   UNL     1      42.005  -9.272   6.689  1.00  0.00    -0.035 A 
HETATM    9  C   UNL     1      41.907  -7.880   6.593  1.00  0.00     0.028 A 
HETATM   10  C   UNL     1      41.938  -7.127   7.754  1.00  0.00     0.120 A 
HETATM   11  N   UNL     1      42.073  -7.654   8.990  1.00  0.00    -0.237 NA
HETATM   12  C   UNL     1      42.181  -8.991   9.068  1.00  0.00     0.165 A 
HETATM   13  C   UNL     1      42.130  -9.833   7.965  1.00  0.00     0.066 A 
BRANCH  12  14
HETATM   14  O   UNL     1      42.315  -9.609  10.291  1.00  0.00    -0.324 OA
BRANCH  14  15
HETATM   15  C   UNL     1      43.569  -9.513  10.993  1.00  0.00     0.058 C 
HETATM   16  C   UNL     1      43.543  -8.458  12.109  1.00  0.00     0.045 C 
HETATM   17  C   UNL     1      44.769  -9.329  10.051  1.00  0.00     0.045 C 
HETATM   18  C   UNL     1      43.717 -10.893  11.665  1.00  0.00     0.045 C 
ENDBRANCH  14  15
ENDBRANCH  12  14
ENDBRANCH   7   8
ENDBRANCH   1   7
BRANCH   3  19
HETATM   19  C   UNL     1      40.688 -14.757   6.350  1.00  0.00     0.095 A 
HETATM   20  C   UNL     1      40.573 -15.918   5.384  1.00  0.00     0.043 A 
HETATM   21  C   UNL     1      41.167 -16.119   6.759  1.00  0.00     0.037 A 
BRANCH  20  22
HETATM   22  C   UNL     1      41.449 -16.055   4.161  1.00  0.00    -0.052 A 
HETATM   23  C   UNL     1      42.636 -16.807   4.198  1.00  0.00     0.007 A 
HETATM   24  C   UNL     1      43.434 -16.971   3.063  1.00  0.00     0.001 A 
HETATM   25  C   UNL     1      43.056 -16.386   1.857  1.00  0.00     0.000 A 
HETATM   26  C   UNL     1      41.879 -15.648   1.789  1.00  0.00     0.001 A 
HETATM   27  C   UNL     1      41.083 -15.493   2.927  1.00  0.00     0.007 A 
ENDBRANCH  20  22
ENDBRANCH   3  19
TORSDOF 6
ENDMDL
