MODEL 1
REMARK VINA RESULT:      -9.3      0.000      0.000
REMARK  8 active torsions:
REMARK  status: ('A' for Active; 'I' for Inactive)
REMARK    1  A    between atoms: C_2  and  N_3 
REMARK    2  A    between atoms: C_2  and  C_26 
REMARK       I    between atoms: N_3  and  C_4 
REMARK    3  A    between atoms: C_4  and  C_5 
REMARK    4  A    between atoms: C_5  and  S_6 
REMARK    5  A    between atoms: S_6  and  C_7 
REMARK    6  A    between atoms: C_10  and  C_11 
REMARK    7  A    between atoms: C_11  and  O_12 
REMARK    8  A    between atoms: O_12  and  C_13 
ROOT
HETATM    1  C   UNL     1      40.011 -11.553   6.124  1.00  0.00     0.191 A 
HETATM    2  N   UNL     1      41.294 -11.699   5.678  1.00  0.00    -0.314 N 
HETATM    3  C   UNL     1      42.231 -10.667   5.314  1.00  0.00     0.160 C 
HETATM    4  C   UNL     1      41.539 -13.055   5.696  1.00  0.00     0.154 A 
HETATM    5  N   UNL     1      40.443 -13.679   6.088  1.00  0.00    -0.132 NA
HETATM    6  N   UNL     1      39.488 -12.734   6.364  1.00  0.00    -0.123 NA
ENDROOT
BRANCH   1   7
HETATM    7  S   UNL     1      39.243 -10.027   6.377  1.00  0.00    -0.081 SA
BRANCH   7   8
HETATM    8  C   UNL     1      39.436  -9.820   8.169  1.00  0.00     0.185 C 
BRANCH   8   9
HETATM    9  C   UNL     1      40.689  -9.024   8.481  1.00  0.00     0.227 C 
HETATM   10  N   UNL     1      41.662  -9.737   9.144  1.00  0.00    -0.352 N 
HETATM   11  H   UNL     1      41.366 -10.586   9.625  1.00  0.00     0.163 HD
HETATM   12  O   UNL     1      40.817  -7.846   8.157  1.00  0.00    -0.273 OA
BRANCH  10  13
HETATM   13  C   UNL     1      42.883  -9.111   9.619  1.00  0.00     0.113 C 
HETATM   14  C   UNL     1      43.047  -9.294  11.129  1.00  0.00     0.037 C 
BRANCH  13  15
HETATM   15  C   UNL     1      44.074  -9.647   8.846  1.00  0.00    -0.036 A 
HETATM   16  C   UNL     1      45.237  -8.867   8.727  1.00  0.00     0.009 A 
HETATM   17  C   UNL     1      46.342  -9.339   8.015  1.00  0.00     0.001 A 
HETATM   18  C   UNL     1      46.300 -10.592   7.411  1.00  0.00     0.000 A 
HETATM   19  C   UNL     1      45.152 -11.376   7.514  1.00  0.00     0.001 A 
HETATM   20  C   UNL     1      44.045 -10.907   8.224  1.00  0.00     0.009 A 
ENDBRANCH  13  15
ENDBRANCH  10  13
ENDBRANCH   8   9
ENDBRANCH   7   8
ENDBRANCH   1   7
BRANCH   4  21
HETATM   21  C   UNL     1      42.856 -13.684   5.392  1.00  0.00     0.256 C 
BRANCH  21  22
HETATM   22  O   UNL     1      42.706 -14.402   4.171  1.00  0.00    -0.344 OA
BRANCH  22  23
HETATM   23  C   UNL     1      43.068 -15.722   4.178  1.00  0.00     0.069 A 
HETATM   24  C   UNL     1      42.883 -16.635   3.138  1.00  0.00     0.044 A 
HETATM   25  C   UNL     1      43.291 -17.975   3.275  1.00  0.00    -0.049 A 
HETATM   26  C   UNL     1      43.877 -18.404   4.479  1.00  0.00    -0.052 A 
HETATM   27  C   UNL     1      43.027 -18.940   2.144  1.00  0.00     0.039 C 
HETATM   28  C   UNL     1      44.362 -19.821   4.661  1.00  0.00     0.039 C 
HETATM   29  C   UNL     1      44.072 -17.478   5.513  1.00  0.00     0.010 A 
HETATM   30  C   UNL     1      43.755 -20.800   3.658  1.00  0.00     0.005 C 
HETATM   31  C   UNL     1      43.835 -20.231   2.247  1.00  0.00     0.005 C 
HETATM   32  C   UNL     1      43.666 -16.152   5.362  1.00  0.00     0.037 A 
ENDBRANCH  22  23
ENDBRANCH  21  22
ENDBRANCH   4  21
TORSDOF 8
ENDMDL
MODEL 2
REMARK VINA RESULT:      -9.1      2.687     10.473
REMARK  8 active torsions:
REMARK  status: ('A' for Active; 'I' for Inactive)
REMARK    1  A    between atoms: C_2  and  N_3 
REMARK    2  A    between atoms: C_2  and  C_26 
REMARK       I    between atoms: N_3  and  C_4 
REMARK    3  A    between atoms: C_4  and  C_5 
REMARK    4  A    between atoms: C_5  and  S_6 
REMARK    5  A    between atoms: S_6  and  C_7 
REMARK    6  A    between atoms: C_10  and  C_11 
REMARK    7  A    between atoms: C_11  and  O_12 
REMARK    8  A    between atoms: O_12  and  C_13 
ROOT
HETATM    1  C   UNL     1      43.610 -11.585   6.664  1.00  0.00     0.191 A 
HETATM    2  N   UNL     1      43.303 -10.393   7.257  1.00  0.00    -0.314 N 
HETATM    3  C   UNL     1      42.228  -9.490   6.934  1.00  0.00     0.160 C 
HETATM    4  C   UNL     1      44.211 -10.247   8.283  1.00  0.00     0.154 A 
HETATM    5  N   UNL     1      45.039 -11.276   8.267  1.00  0.00    -0.132 NA
HETATM    6  N   UNL     1      44.654 -12.118   7.255  1.00  0.00    -0.123 NA
ENDROOT
BRANCH   1   7
HETATM    7  S   UNL     1      42.703 -12.282   5.370  1.00  0.00    -0.081 SA
BRANCH   7   8
HETATM    8  C   UNL     1      42.793 -14.048   5.779  1.00  0.00     0.185 C 
BRANCH   8   9
HETATM    9  C   UNL     1      42.255 -14.887   4.635  1.00  0.00     0.227 C 
HETATM   10  N   UNL     1      43.179 -15.740   4.075  1.00  0.00    -0.352 N 
HETATM   11  H   UNL     1      44.162 -15.530   4.243  1.00  0.00     0.163 HD
HETATM   12  O   UNL     1      41.089 -14.809   4.255  1.00  0.00    -0.273 OA
BRANCH  10  13
HETATM   13  C   UNL     1      42.873 -16.540   2.903  1.00  0.00     0.113 C 
HETATM   14  C   UNL     1      43.547 -15.969   1.654  1.00  0.00     0.037 C 
BRANCH  13  15
HETATM   15  C   UNL     1      43.258 -17.987   3.148  1.00  0.00    -0.036 A 
HETATM   16  C   UNL     1      43.836 -18.357   4.374  1.00  0.00     0.009 A 
HETATM   17  C   UNL     1      44.204 -19.682   4.619  1.00  0.00     0.001 A 
HETATM   18  C   UNL     1      44.004 -20.653   3.642  1.00  0.00     0.000 A 
HETATM   19  C   UNL     1      43.438 -20.302   2.418  1.00  0.00     0.001 A 
HETATM   20  C   UNL     1      43.069 -18.978   2.170  1.00  0.00     0.009 A 
ENDBRANCH  13  15
ENDBRANCH  10  13
ENDBRANCH   8   9
ENDBRANCH   7   8
ENDBRANCH   1   7
BRANCH   4  21
HETATM   21  C   UNL     1      44.195  -9.140   9.281  1.00  0.00     0.256 C 
BRANCH  21  22
HETATM   22  O   UNL     1      44.517  -9.710  10.547  1.00  0.00    -0.344 OA
BRANCH  22  23
HETATM   23  C   UNL     1      43.717  -9.369  11.603  1.00  0.00     0.069 A 
HETATM   24  C   UNL     1      43.848  -8.234  12.406  1.00  0.00     0.044 A 
HETATM   25  C   UNL     1      42.963  -8.003  13.476  1.00  0.00    -0.049 A 
HETATM   26  C   UNL     1      41.945  -8.932  13.749  1.00  0.00    -0.052 A 
HETATM   27  C   UNL     1      43.172  -6.788  14.349  1.00  0.00     0.039 C 
HETATM   28  C   UNL     1      40.950  -8.711  14.863  1.00  0.00     0.039 C 
HETATM   29  C   UNL     1      41.810 -10.061  12.930  1.00  0.00     0.010 A 
HETATM   30  C   UNL     1      41.422  -7.693  15.899  1.00  0.00     0.005 C 
HETATM   31  C   UNL     1      41.959  -6.445  15.210  1.00  0.00     0.005 C 
HETATM   32  C   UNL     1      42.693 -10.277  11.872  1.00  0.00     0.037 A 
ENDBRANCH  22  23
ENDBRANCH  21  22
ENDBRANCH   4  21
TORSDOF 8
ENDMDL
MODEL 3
REMARK VINA RESULT:      -9.0      3.288      6.487
REMARK  8 active torsions:
REMARK  status: ('A' for Active; 'I' for Inactive)
REMARK    1  A    between atoms: C_2  and  N_3 
REMARK    2  A    between atoms: C_2  and  C_26 
REMARK       I    between atoms: N_3  and  C_4 
REMARK    3  A    between atoms: C_4  and  C_5 
REMARK    4  A    between atoms: C_5  and  S_6 
REMARK    5  A    between atoms: S_6  and  C_7 
REMARK    6  A    between atoms: C_10  and  C_11 
REMARK    7  A    between atoms: C_11  and  O_12 
REMARK    8  A    between atoms: O_12  and  C_13 
ROOT
HETATM    1  C   UNL     1      40.678 -12.501   5.748  1.00  0.00     0.191 A 
HETATM    2  N   UNL     1      41.929 -12.981   6.015  1.00  0.00    -0.314 N 
HETATM    3  C   UNL     1      43.189 -12.293   5.898  1.00  0.00     0.160 C 
HETATM    4  C   UNL     1      41.739 -14.264   6.480  1.00  0.00     0.154 A 
HETATM    5  N   UNL     1      40.448 -14.543   6.445  1.00  0.00    -0.132 NA
HETATM    6  N   UNL     1      39.784 -13.431   5.993  1.00  0.00    -0.123 NA
ENDROOT
BRANCH   1   7
HETATM    7  S   UNL     1      40.353 -10.888   5.222  1.00  0.00    -0.081 SA
BRANCH   7   8
HETATM    8  C   UNL     1      39.548 -11.186   3.624  1.00  0.00     0.185 C 
BRANCH   8   9
HETATM    9  C   UNL     1      40.402 -12.092   2.758  1.00  0.00     0.227 C 
HETATM   10  N   UNL     1      39.712 -13.128   2.169  1.00  0.00    -0.352 N 
HETATM   11  H   UNL     1      38.816 -13.380   2.583  1.00  0.00     0.163 HD
HETATM   12  O   UNL     1      41.606 -11.903   2.595  1.00  0.00    -0.273 OA
BRANCH  10  13
HETATM   13  C   UNL     1      40.385 -14.156   1.395  1.00  0.00     0.113 C 
HETATM   14  C   UNL     1      39.915 -15.553   1.805  1.00  0.00     0.037 C 
BRANCH  13  15
HETATM   15  C   UNL     1      40.188 -13.899  -0.088  1.00  0.00    -0.036 A 
HETATM   16  C   UNL     1      39.474 -14.825  -0.867  1.00  0.00     0.009 A 
HETATM   17  C   UNL     1      39.286 -14.612  -2.234  1.00  0.00     0.001 A 
HETATM   18  C   UNL     1      39.812 -13.474  -2.842  1.00  0.00     0.000 A 
HETATM   19  C   UNL     1      40.528 -12.550  -2.085  1.00  0.00     0.001 A 
HETATM   20  C   UNL     1      40.718 -12.760  -0.717  1.00  0.00     0.009 A 
ENDBRANCH  13  15
ENDBRANCH  10  13
ENDBRANCH   8   9
ENDBRANCH   7   8
ENDBRANCH   1   7
BRANCH   4  21
HETATM   21  C   UNL     1      42.821 -15.146   7.002  1.00  0.00     0.256 C 
BRANCH  21  22
HETATM   22  O   UNL     1      43.808 -15.251   5.980  1.00  0.00    -0.344 OA
BRANCH  22  23
HETATM   23  C   UNL     1      43.700 -16.308   5.118  1.00  0.00     0.069 A 
HETATM   24  C   UNL     1      44.045 -17.634   5.389  1.00  0.00     0.044 A 
HETATM   25  C   UNL     1      43.897 -18.631   4.407  1.00  0.00    -0.049 A 
HETATM   26  C   UNL     1      43.411 -18.287   3.134  1.00  0.00    -0.052 A 
HETATM   27  C   UNL     1      44.329 -20.042   4.727  1.00  0.00     0.039 C 
HETATM   28  C   UNL     1      43.202 -19.327   2.060  1.00  0.00     0.039 C 
HETATM   29  C   UNL     1      43.053 -16.958   2.874  1.00  0.00     0.010 A 
HETATM   30  C   UNL     1      43.974 -20.619   2.314  1.00  0.00     0.005 C 
HETATM   31  C   UNL     1      43.778 -21.081   3.752  1.00  0.00     0.005 C 
HETATM   32  C   UNL     1      43.203 -15.979   3.857  1.00  0.00     0.037 A 
ENDBRANCH  22  23
ENDBRANCH  21  22
ENDBRANCH   4  21
TORSDOF 8
ENDMDL
MODEL 4
REMARK VINA RESULT:      -9.0      2.307      3.940
REMARK  8 active torsions:
REMARK  status: ('A' for Active; 'I' for Inactive)
REMARK    1  A    between atoms: C_2  and  N_3 
REMARK    2  A    between atoms: C_2  and  C_26 
REMARK       I    between atoms: N_3  and  C_4 
REMARK    3  A    between atoms: C_4  and  C_5 
REMARK    4  A    between atoms: C_5  and  S_6 
REMARK    5  A    between atoms: S_6  and  C_7 
REMARK    6  A    between atoms: C_10  and  C_11 
REMARK    7  A    between atoms: C_11  and  O_12 
REMARK    8  A    between atoms: O_12  and  C_13 
ROOT
HETATM    1  C   UNL     1      39.816 -10.277   7.293  1.00  0.00     0.191 A 
HETATM    2  N   UNL     1      40.649 -10.805   6.346  1.00  0.00    -0.314 N 
HETATM    3  C   UNL     1      41.986 -10.389   6.007  1.00  0.00     0.160 C 
HETATM    4  C   UNL     1      39.963 -11.871   5.806  1.00  0.00     0.154 A 
HETATM    5  N   UNL     1      38.771 -11.940   6.371  1.00  0.00    -0.132 NA
HETATM    6  N   UNL     1      38.685 -10.944   7.310  1.00  0.00    -0.123 NA
ENDROOT
BRANCH   1   7
HETATM    7  S   UNL     1      40.243  -8.966   8.333  1.00  0.00    -0.081 SA
BRANCH   7   8
HETATM    8  C   UNL     1      39.129  -9.243   9.737  1.00  0.00     0.185 C 
BRANCH   8   9
HETATM    9  C   UNL     1      39.894  -9.804  10.922  1.00  0.00     0.227 C 
HETATM   10  N   UNL     1      41.212  -9.409  10.982  1.00  0.00    -0.352 N 
HETATM   11  H   UNL     1      41.629  -9.060  10.120  1.00  0.00     0.163 HD
HETATM   12  O   UNL     1      39.370 -10.539  11.755  1.00  0.00    -0.273 OA
BRANCH  10  13
HETATM   13  C   UNL     1      42.123  -9.932  11.984  1.00  0.00     0.113 C 
HETATM   14  C   UNL     1      43.478 -10.285  11.367  1.00  0.00     0.037 C 
BRANCH  13  15
HETATM   15  C   UNL     1      42.258  -8.943  13.127  1.00  0.00    -0.036 A 
HETATM   16  C   UNL     1      43.227  -7.927  13.061  1.00  0.00     0.009 A 
HETATM   17  C   UNL     1      43.372  -7.011  14.105  1.00  0.00     0.001 A 
HETATM   18  C   UNL     1      42.555  -7.098  15.229  1.00  0.00     0.000 A 
HETATM   19  C   UNL     1      41.594  -8.103  15.313  1.00  0.00     0.001 A 
HETATM   20  C   UNL     1      41.446  -9.021  14.271  1.00  0.00     0.009 A 
ENDBRANCH  13  15
ENDBRANCH  10  13
ENDBRANCH   8   9
ENDBRANCH   7   8
ENDBRANCH   1   7
BRANCH   4  21
HETATM   21  C   UNL     1      40.524 -12.822   4.804  1.00  0.00     0.256 C 
BRANCH  21  22
HETATM   22  O   UNL     1      40.366 -14.134   5.335  1.00  0.00    -0.344 OA
BRANCH  22  23
HETATM   23  C   UNL     1      41.051 -15.142   4.714  1.00  0.00     0.069 A 
HETATM   24  C   UNL     1      42.049 -15.936   5.284  1.00  0.00     0.044 A 
HETATM   25  C   UNL     1      42.689 -16.938   4.530  1.00  0.00    -0.049 A 
HETATM   26  C   UNL     1      42.332 -17.131   3.185  1.00  0.00    -0.052 A 
HETATM   27  C   UNL     1      43.796 -17.740   5.171  1.00  0.00     0.039 C 
HETATM   28  C   UNL     1      42.966 -18.215   2.346  1.00  0.00     0.039 C 
HETATM   29  C   UNL     1      41.321 -16.340   2.624  1.00  0.00     0.010 A 
HETATM   30  C   UNL     1      44.286 -18.726   2.920  1.00  0.00     0.005 C 
HETATM   31  C   UNL     1      44.141 -19.017   4.408  1.00  0.00     0.005 C 
HETATM   32  C   UNL     1      40.692 -15.353   3.383  1.00  0.00     0.037 A 
ENDBRANCH  22  23
ENDBRANCH  21  22
ENDBRANCH   4  21
TORSDOF 8
ENDMDL
MODEL 5
REMARK VINA RESULT:      -9.0      2.249      3.848
REMARK  8 active torsions:
REMARK  status: ('A' for Active; 'I' for Inactive)
REMARK    1  A    between atoms: C_2  and  N_3 
REMARK    2  A    between atoms: C_2  and  C_26 
REMARK       I    between atoms: N_3  and  C_4 
REMARK    3  A    between atoms: C_4  and  C_5 
REMARK    4  A    between atoms: C_5  and  S_6 
REMARK    5  A    between atoms: S_6  and  C_7 
REMARK    6  A    between atoms: C_10  and  C_11 
REMARK    7  A    between atoms: C_11  and  O_12 
REMARK    8  A    between atoms: O_12  and  C_13 
ROOT
HETATM    1  C   UNL     1      43.059 -10.038   7.696  1.00  0.00     0.191 A 
HETATM    2  N   UNL     1      42.783 -10.576   6.470  1.00  0.00    -0.314 N 
HETATM    3  C   UNL     1      42.023  -9.992   5.394  1.00  0.00     0.160 C 
HETATM    4  C   UNL     1      43.435 -11.789   6.446  1.00  0.00     0.154 A 
HETATM    5  N   UNL     1      44.025 -11.979   7.612  1.00  0.00    -0.132 NA
HETATM    6  N   UNL     1      43.795 -10.874   8.392  1.00  0.00    -0.123 NA
ENDROOT
BRANCH   1   7
HETATM    7  S   UNL     1      42.547  -8.467   8.200  1.00  0.00    -0.081 SA
BRANCH   7   8
HETATM    8  C   UNL     1      40.851  -8.800   8.749  1.00  0.00     0.185 C 
BRANCH   8   9
HETATM    9  C   UNL     1      40.851  -9.394  10.146  1.00  0.00     0.227 C 
HETATM   10  N   UNL     1      42.090  -9.432  10.744  1.00  0.00    -0.352 N 
HETATM   11  H   UNL     1      42.901  -9.363  10.132  1.00  0.00     0.163 HD
HETATM   12  O   UNL     1      39.824  -9.796  10.689  1.00  0.00    -0.273 OA
BRANCH  10  13
HETATM   13  C   UNL     1      42.298 -10.064  12.035  1.00  0.00     0.113 C 
HETATM   14  C   UNL     1      43.536 -10.963  12.016  1.00  0.00     0.037 C 
BRANCH  13  15
HETATM   15  C   UNL     1      42.377  -9.007  13.122  1.00  0.00    -0.036 A 
HETATM   16  C   UNL     1      41.462  -9.034  14.188  1.00  0.00     0.009 A 
HETATM   17  C   UNL     1      41.513  -8.068  15.195  1.00  0.00     0.001 A 
HETATM   18  C   UNL     1      42.473  -7.061  15.149  1.00  0.00     0.000 A 
HETATM   19  C   UNL     1      43.384  -7.017  14.095  1.00  0.00     0.001 A 
HETATM   20  C   UNL     1      43.336  -7.981  13.086  1.00  0.00     0.009 A 
ENDBRANCH  13  15
ENDBRANCH  10  13
ENDBRANCH   8   9
ENDBRANCH   7   8
ENDBRANCH   1   7
BRANCH   4  21
HETATM   21  C   UNL     1      43.510 -12.688   5.259  1.00  0.00     0.256 C 
BRANCH  21  22
HETATM   22  O   UNL     1      42.590 -13.754   5.480  1.00  0.00    -0.344 OA
BRANCH  22  23
HETATM   23  C   UNL     1      42.994 -15.009   5.116  1.00  0.00     0.069 A 
HETATM   24  C   UNL     1      42.600 -15.703   3.970  1.00  0.00     0.044 A 
HETATM   25  C   UNL     1      43.081 -17.001   3.715  1.00  0.00    -0.049 A 
HETATM   26  C   UNL     1      43.954 -17.613   4.631  1.00  0.00    -0.052 A 
HETATM   27  C   UNL     1      42.591 -17.735   2.489  1.00  0.00     0.039 C 
HETATM   28  C   UNL     1      44.523 -18.989   4.384  1.00  0.00     0.039 C 
HETATM   29  C   UNL     1      44.355 -16.904   5.771  1.00  0.00     0.010 A 
HETATM   30  C   UNL     1      43.731 -19.792   3.354  1.00  0.00     0.005 C 
HETATM   31  C   UNL     1      43.449 -18.943   2.121  1.00  0.00     0.005 C 
HETATM   32  C   UNL     1      43.874 -15.617   6.011  1.00  0.00     0.037 A 
ENDBRANCH  22  23
ENDBRANCH  21  22
ENDBRANCH   4  21
TORSDOF 8
ENDMDL
MODEL 6
REMARK VINA RESULT:      -9.0      2.221      9.230
REMARK  8 active torsions:
REMARK  status: ('A' for Active; 'I' for Inactive)
REMARK    1  A    between atoms: C_2  and  N_3 
REMARK    2  A    between atoms: C_2  and  C_26 
REMARK       I    between atoms: N_3  and  C_4 
REMARK    3  A    between atoms: C_4  and  C_5 
REMARK    4  A    between atoms: C_5  and  S_6 
REMARK    5  A    between atoms: S_6  and  C_7 
REMARK    6  A    between atoms: C_10  and  C_11 
REMARK    7  A    between atoms: C_11  and  O_12 
REMARK    8  A    between atoms: O_12  and  C_13 
ROOT
HETATM    1  C   UNL     1      42.169 -12.472   5.538  1.00  0.00     0.191 A 
HETATM    2  N   UNL     1      43.228 -12.636   6.387  1.00  0.00    -0.314 N 
HETATM    3  C   UNL     1      43.420 -13.662   7.380  1.00  0.00     0.160 C 
HETATM    4  C   UNL     1      44.119 -11.637   6.061  1.00  0.00     0.154 A 
HETATM    5  N   UNL     1      43.594 -10.894   5.103  1.00  0.00    -0.132 NA
HETATM    6  N   UNL     1      42.374 -11.426   4.771  1.00  0.00    -0.123 NA
ENDROOT
BRANCH   1   7
HETATM    7  S   UNL     1      40.808 -13.533   5.473  1.00  0.00    -0.081 SA
BRANCH   7   8
HETATM    8  C   UNL     1      41.041 -14.317   3.854  1.00  0.00     0.185 C 
BRANCH   8   9
HETATM    9  C   UNL     1      42.421 -14.939   3.757  1.00  0.00     0.227 C 
HETATM   10  N   UNL     1      42.595 -16.057   4.543  1.00  0.00    -0.352 N 
HETATM   11  H   UNL     1      41.942 -16.184   5.315  1.00  0.00     0.163 HD
HETATM   12  O   UNL     1      43.299 -14.482   3.029  1.00  0.00    -0.273 OA
BRANCH  10  13
HETATM   13  C   UNL     1      43.882 -16.719   4.660  1.00  0.00     0.113 C 
HETATM   14  C   UNL     1      44.356 -16.752   6.114  1.00  0.00     0.037 C 
BRANCH  13  15
HETATM   15  C   UNL     1      43.805 -18.109   4.053  1.00  0.00    -0.036 A 
HETATM   16  C   UNL     1      43.399 -18.265   2.717  1.00  0.00     0.009 A 
HETATM   17  C   UNL     1      43.316 -19.534   2.141  1.00  0.00     0.001 A 
HETATM   18  C   UNL     1      43.633 -20.663   2.891  1.00  0.00     0.000 A 
HETATM   19  C   UNL     1      44.031 -20.526   4.219  1.00  0.00     0.001 A 
HETATM   20  C   UNL     1      44.115 -19.258   4.799  1.00  0.00     0.009 A 
ENDBRANCH  13  15
ENDBRANCH  10  13
ENDBRANCH   8   9
ENDBRANCH   7   8
ENDBRANCH   1   7
BRANCH   4  21
HETATM   21  C   UNL     1      45.479 -11.486   6.654  1.00  0.00     0.256 C 
BRANCH  21  22
HETATM   22  O   UNL     1      45.637 -10.112   6.997  1.00  0.00    -0.344 OA
BRANCH  22  23
HETATM   23  C   UNL     1      45.057  -9.692   8.163  1.00  0.00     0.069 A 
HETATM   24  C   UNL     1      44.199  -8.601   8.312  1.00  0.00     0.044 A 
HETATM   25  C   UNL     1      43.676  -8.264   9.575  1.00  0.00    -0.049 A 
HETATM   26  C   UNL     1      44.035  -9.024  10.702  1.00  0.00    -0.052 A 
HETATM   27  C   UNL     1      42.791  -7.047   9.699  1.00  0.00     0.039 C 
HETATM   28  C   UNL     1      43.473  -8.723  12.070  1.00  0.00     0.039 C 
HETATM   29  C   UNL     1      44.885 -10.126  10.542  1.00  0.00     0.010 A 
HETATM   30  C   UNL     1      42.899  -7.313  12.189  1.00  0.00     0.005 C 
HETATM   31  C   UNL     1      41.995  -7.006  11.002  1.00  0.00     0.005 C 
HETATM   32  C   UNL     1      45.394 -10.451   9.284  1.00  0.00     0.037 A 
ENDBRANCH  22  23
ENDBRANCH  21  22
ENDBRANCH   4  21
TORSDOF 8
ENDMDL
MODEL 7
REMARK VINA RESULT:      -9.0      1.260      2.176
REMARK  8 active torsions:
REMARK  status: ('A' for Active; 'I' for Inactive)
REMARK    1  A    between atoms: C_2  and  N_3 
REMARK    2  A    between atoms: C_2  and  C_26 
REMARK       I    between atoms: N_3  and  C_4 
REMARK    3  A    between atoms: C_4  and  C_5 
REMARK    4  A    between atoms: C_5  and  S_6 
REMARK    5  A    between atoms: S_6  and  C_7 
REMARK    6  A    between atoms: C_10  and  C_11 
REMARK    7  A    between atoms: C_11  and  O_12 
REMARK    8  A    between atoms: O_12  and  C_13 
ROOT
HETATM    1  C   UNL     1      39.686 -10.262   7.079  1.00  0.00     0.191 A 
HETATM    2  N   UNL     1      40.781 -10.563   6.320  1.00  0.00    -0.314 N 
HETATM    3  C   UNL     1      41.902  -9.716   6.001  1.00  0.00     0.160 C 
HETATM    4  C   UNL     1      40.626 -11.884   5.958  1.00  0.00     0.154 A 
HETATM    5  N   UNL     1      39.477 -12.324   6.438  1.00  0.00    -0.132 NA
HETATM    6  N   UNL     1      38.893 -11.307   7.149  1.00  0.00    -0.123 NA
ENDROOT
BRANCH   1   7
HETATM    7  S   UNL     1      39.441  -8.742   7.862  1.00  0.00    -0.081 SA
BRANCH   7   8
HETATM    8  C   UNL     1      39.783  -9.168   9.592  1.00  0.00     0.185 C 
BRANCH   8   9
HETATM    9  C   UNL     1      41.223  -8.843   9.945  1.00  0.00     0.227 C 
HETATM   10  N   UNL     1      42.048  -9.943  10.023  1.00  0.00    -0.352 N 
HETATM   11  H   UNL     1      41.600 -10.849  10.146  1.00  0.00     0.163 HD
HETATM   12  O   UNL     1      41.610  -7.693  10.134  1.00  0.00    -0.273 OA
BRANCH  10  13
HETATM   13  C   UNL     1      43.431  -9.834  10.453  1.00  0.00     0.113 C 
HETATM   14  C   UNL     1      43.712 -10.753  11.644  1.00  0.00     0.037 C 
BRANCH  13  15
HETATM   15  C   UNL     1      44.360 -10.112   9.286  1.00  0.00    -0.036 A 
HETATM   16  C   UNL     1      44.092 -11.186   8.421  1.00  0.00     0.009 A 
HETATM   17  C   UNL     1      44.937 -11.464   7.345  1.00  0.00     0.001 A 
HETATM   18  C   UNL     1      46.062 -10.675   7.120  1.00  0.00     0.000 A 
HETATM   19  C   UNL     1      46.346  -9.609   7.971  1.00  0.00     0.001 A 
HETATM   20  C   UNL     1      45.503  -9.329   9.049  1.00  0.00     0.009 A 
ENDBRANCH  13  15
ENDBRANCH  10  13
ENDBRANCH   8   9
ENDBRANCH   7   8
ENDBRANCH   1   7
BRANCH   4  21
HETATM   21  C   UNL     1      41.638 -12.683   5.211  1.00  0.00     0.256 C 
BRANCH  21  22
HETATM   22  O   UNL     1      40.932 -13.461   4.248  1.00  0.00    -0.344 OA
BRANCH  22  23
HETATM   23  C   UNL     1      41.484 -14.661   3.893  1.00  0.00     0.069 A 
HETATM   24  C   UNL     1      42.480 -15.350   4.589  1.00  0.00     0.044 A 
HETATM   25  C   UNL     1      42.975 -16.577   4.110  1.00  0.00    -0.049 A 
HETATM   26  C   UNL     1      42.472 -17.109   2.910  1.00  0.00    -0.052 A 
HETATM   27  C   UNL     1      44.086 -17.264   4.868  1.00  0.00     0.039 C 
HETATM   28  C   UNL     1      42.946 -18.439   2.375  1.00  0.00     0.039 C 
HETATM   29  C   UNL     1      41.463 -16.420   2.226  1.00  0.00     0.010 A 
HETATM   30  C   UNL     1      44.281 -18.886   2.967  1.00  0.00     0.005 C 
HETATM   31  C   UNL     1      44.268 -18.730   4.482  1.00  0.00     0.005 C 
HETATM   32  C   UNL     1      40.979 -15.205   2.713  1.00  0.00     0.037 A 
ENDBRANCH  22  23
ENDBRANCH  21  22
ENDBRANCH   4  21
TORSDOF 8
ENDMDL
MODEL 8
REMARK VINA RESULT:      -8.8      2.310      9.346
REMARK  8 active torsions:
REMARK  status: ('A' for Active; 'I' for Inactive)
REMARK    1  A    between atoms: C_2  and  N_3 
REMARK    2  A    between atoms: C_2  and  C_26 
REMARK       I    between atoms: N_3  and  C_4 
REMARK    3  A    between atoms: C_4  and  C_5 
REMARK    4  A    between atoms: C_5  and  S_6 
REMARK    5  A    between atoms: S_6  and  C_7 
REMARK    6  A    between atoms: C_10  and  C_11 
REMARK    7  A    between atoms: C_11  and  O_12 
REMARK    8  A    between atoms: O_12  and  C_13 
ROOT
HETATM    1  C   UNL     1      43.244 -11.383   4.380  1.00  0.00     0.191 A 
HETATM    2  N   UNL     1      43.504 -11.190   5.708  1.00  0.00    -0.314 N 
HETATM    3  C   UNL     1      42.559 -11.064   6.789  1.00  0.00     0.160 C 
HETATM    4  C   UNL     1      44.877 -11.194   5.820  1.00  0.00     0.154 A 
HETATM    5  N   UNL     1      45.401 -11.336   4.615  1.00  0.00    -0.132 NA
HETATM    6  N   UNL     1      44.374 -11.463   3.715  1.00  0.00    -0.123 NA
ENDROOT
BRANCH   1   7
HETATM    7  S   UNL     1      41.657 -11.551   3.720  1.00  0.00    -0.081 SA
BRANCH   7   8
HETATM    8  C   UNL     1      41.120 -13.114   4.466  1.00  0.00     0.185 C 
BRANCH   8   9
HETATM    9  C   UNL     1      41.163 -14.235   3.444  1.00  0.00     0.227 C 
HETATM   10  N   UNL     1      42.285 -15.030   3.523  1.00  0.00    -0.352 N 
HETATM   11  H   UNL     1      43.092 -14.643   4.009  1.00  0.00     0.163 HD
HETATM   12  O   UNL     1      40.264 -14.414   2.626  1.00  0.00    -0.273 OA
BRANCH  10  13
HETATM   13  C   UNL     1      42.548 -16.082   2.557  1.00  0.00     0.113 C 
HETATM   14  C   UNL     1      43.474 -15.591   1.443  1.00  0.00     0.037 C 
BRANCH  13  15
HETATM   15  C   UNL     1      43.103 -17.306   3.264  1.00  0.00    -0.036 A 
HETATM   16  C   UNL     1      43.342 -17.264   4.647  1.00  0.00     0.009 A 
HETATM   17  C   UNL     1      43.858 -18.376   5.316  1.00  0.00     0.001 A 
HETATM   18  C   UNL     1      44.146 -19.542   4.612  1.00  0.00     0.000 A 
HETATM   19  C   UNL     1      43.920 -19.598   3.238  1.00  0.00     0.001 A 
HETATM   20  C   UNL     1      43.405 -18.487   2.566  1.00  0.00     0.009 A 
ENDBRANCH  13  15
ENDBRANCH  10  13
ENDBRANCH   8   9
ENDBRANCH   7   8
ENDBRANCH   1   7
BRANCH   4  21
HETATM   21  C   UNL     1      45.624 -11.125   7.108  1.00  0.00     0.256 C 
BRANCH  21  22
HETATM   22  O   UNL     1      45.714  -9.749   7.468  1.00  0.00    -0.344 OA
BRANCH  22  23
HETATM   23  C   UNL     1      45.063  -9.362   8.607  1.00  0.00     0.069 A 
HETATM   24  C   UNL     1      44.304  -8.201   8.770  1.00  0.00     0.044 A 
HETATM   25  C   UNL     1      43.691  -7.909  10.003  1.00  0.00    -0.049 A 
HETATM   26  C   UNL     1      43.857  -8.787  11.087  1.00  0.00    -0.052 A 
HETATM   27  C   UNL     1      42.920  -6.618  10.149  1.00  0.00     0.039 C 
HETATM   28  C   UNL     1      43.191  -8.535  12.418  1.00  0.00     0.039 C 
HETATM   29  C   UNL     1      44.608  -9.957  10.912  1.00  0.00     0.010 A 
HETATM   30  C   UNL     1      42.749  -7.085  12.605  1.00  0.00     0.005 C 
HETATM   31  C   UNL     1      42.004  -6.594  11.371  1.00  0.00     0.005 C 
HETATM   32  C   UNL     1      45.208 -10.236   9.684  1.00  0.00     0.037 A 
ENDBRANCH  22  23
ENDBRANCH  21  22
ENDBRANCH   4  21
TORSDOF 8
ENDMDL
MODEL 9
REMARK VINA RESULT:      -8.8      2.234      9.430
REMARK  8 active torsions:
REMARK  status: ('A' for Active; 'I' for Inactive)
REMARK    1  A    between atoms: C_2  and  N_3 
REMARK    2  A    between atoms: C_2  and  C_26 
REMARK       I    between atoms: N_3  and  C_4 
REMARK    3  A    between atoms: C_4  and  C_5 
REMARK    4  A    between atoms: C_5  and  S_6 
REMARK    5  A    between atoms: S_6  and  C_7 
REMARK    6  A    between atoms: C_10  and  C_11 
REMARK    7  A    between atoms: C_11  and  O_12 
REMARK    8  A    between atoms: O_12  and  C_13 
ROOT
HETATM    1  C   UNL     1      42.255 -13.304   6.310  1.00  0.00     0.191 A 
HETATM    2  N   UNL     1      42.787 -12.046   6.368  1.00  0.00    -0.314 N 
HETATM    3  C   UNL     1      42.145 -10.794   6.057  1.00  0.00     0.160 C 
HETATM    4  C   UNL     1      44.069 -12.210   6.845  1.00  0.00     0.154 A 
HETATM    5  N   UNL     1      44.298 -13.500   7.015  1.00  0.00    -0.132 NA
HETATM    6  N   UNL     1      43.155 -14.183   6.687  1.00  0.00    -0.123 NA
ENDROOT
BRANCH   1   7
HETATM    7  S   UNL     1      40.623 -13.643   5.859  1.00  0.00    -0.081 SA
BRANCH   7   8
HETATM    8  C   UNL     1      40.657 -13.275   4.083  1.00  0.00     0.185 C 
BRANCH   8   9
HETATM    9  C   UNL     1      40.798 -14.553   3.277  1.00  0.00     0.227 C 
HETATM   10  N   UNL     1      42.073 -15.073   3.259  1.00  0.00    -0.352 N 
HETATM   11  H   UNL     1      42.834 -14.439   3.498  1.00  0.00     0.163 HD
HETATM   12  O   UNL     1      39.846 -15.076   2.702  1.00  0.00    -0.273 OA
BRANCH  10  13
HETATM   13  C   UNL     1      42.417 -16.230   2.452  1.00  0.00     0.113 C 
HETATM   14  C   UNL     1      43.339 -15.841   1.294  1.00  0.00     0.037 C 
BRANCH  13  15
HETATM   15  C   UNL     1      43.025 -17.310   3.328  1.00  0.00    -0.036 A 
HETATM   16  C   UNL     1      43.427 -18.528   2.756  1.00  0.00     0.009 A 
HETATM   17  C   UNL     1      43.984 -19.538   3.545  1.00  0.00     0.001 A 
HETATM   18  C   UNL     1      44.142 -19.345   4.915  1.00  0.00     0.000 A 
HETATM   19  C   UNL     1      43.742 -18.145   5.499  1.00  0.00     0.001 A 
HETATM   20  C   UNL     1      43.185 -17.134   4.713  1.00  0.00     0.009 A 
ENDBRANCH  13  15
ENDBRANCH  10  13
ENDBRANCH   8   9
ENDBRANCH   7   8
ENDBRANCH   1   7
BRANCH   4  21
HETATM   21  C   UNL     1      45.000 -11.094   7.178  1.00  0.00     0.256 C 
BRANCH  21  22
HETATM   22  O   UNL     1      45.121 -11.057   8.598  1.00  0.00    -0.344 OA
BRANCH  22  23
HETATM   23  C   UNL     1      44.542  -9.998   9.242  1.00  0.00     0.069 A 
HETATM   24  C   UNL     1      44.183  -9.949  10.591  1.00  0.00     0.044 A 
HETATM   25  C   UNL     1      43.580  -8.799  11.134  1.00  0.00    -0.049 A 
HETATM   26  C   UNL     1      43.320  -7.693  10.306  1.00  0.00    -0.052 A 
HETATM   27  C   UNL     1      43.163  -8.807  12.585  1.00  0.00     0.039 C 
HETATM   28  C   UNL     1      42.707  -6.425  10.849  1.00  0.00     0.039 C 
HETATM   29  C   UNL     1      43.696  -7.745   8.957  1.00  0.00     0.010 A 
HETATM   30  C   UNL     1      41.999  -6.624  12.187  1.00  0.00     0.005 C 
HETATM   31  C   UNL     1      42.882  -7.414  13.143  1.00  0.00     0.005 C 
HETATM   32  C   UNL     1      44.296  -8.891   8.433  1.00  0.00     0.037 A 
ENDBRANCH  22  23
ENDBRANCH  21  22
ENDBRANCH   4  21
TORSDOF 8
ENDMDL
MODEL 10
REMARK VINA RESULT:      -8.8      2.750      9.998
REMARK  8 active torsions:
REMARK  status: ('A' for Active; 'I' for Inactive)
REMARK    1  A    between atoms: C_2  and  N_3 
REMARK    2  A    between atoms: C_2  and  C_26 
REMARK       I    between atoms: N_3  and  C_4 
REMARK    3  A    between atoms: C_4  and  C_5 
REMARK    4  A    between atoms: C_5  and  S_6 
REMARK    5  A    between atoms: S_6  and  C_7 
REMARK    6  A    between atoms: C_10  and  C_11 
REMARK    7  A    between atoms: C_11  and  O_12 
REMARK    8  A    between atoms: O_12  and  C_13 
ROOT
HETATM    1  C   UNL     1      43.376 -11.578   6.594  1.00  0.00     0.191 A 
HETATM    2  N   UNL     1      43.179 -10.342   7.144  1.00  0.00    -0.314 N 
HETATM    3  C   UNL     1      42.253  -9.320   6.728  1.00  0.00     0.160 C 
HETATM    4  C   UNL     1      44.022 -10.286   8.233  1.00  0.00     0.154 A 
HETATM    5  N   UNL     1      44.712 -11.410   8.295  1.00  0.00    -0.132 NA
HETATM    6  N   UNL     1      44.299 -12.222   7.270  1.00  0.00    -0.123 NA
ENDROOT
BRANCH   1   7
HETATM    7  S   UNL     1      42.485 -12.188   5.247  1.00  0.00    -0.081 SA
BRANCH   7   8
HETATM    8  C   UNL     1      40.913 -12.641   6.031  1.00  0.00     0.185 C 
BRANCH   8   9
HETATM    9  C   UNL     1      40.532 -14.067   5.675  1.00  0.00     0.227 C 
HETATM   10  N   UNL     1      40.993 -14.486   4.447  1.00  0.00    -0.352 N 
HETATM   11  H   UNL     1      41.257 -13.762   3.781  1.00  0.00     0.163 HD
HETATM   12  O   UNL     1      39.876 -14.780   6.431  1.00  0.00    -0.273 OA
BRANCH  10  13
HETATM   13  C   UNL     1      40.635 -15.781   3.896  1.00  0.00     0.113 C 
HETATM   14  C   UNL     1      39.914 -15.630   2.555  1.00  0.00     0.037 C 
BRANCH  13  15
HETATM   15  C   UNL     1      41.871 -16.655   3.785  1.00  0.00    -0.036 A 
HETATM   16  C   UNL     1      42.174 -17.282   2.564  1.00  0.00     0.009 A 
HETATM   17  C   UNL     1      43.302 -18.096   2.441  1.00  0.00     0.001 A 
HETATM   18  C   UNL     1      44.139 -18.298   3.535  1.00  0.00     0.000 A 
HETATM   19  C   UNL     1      43.849 -17.689   4.755  1.00  0.00     0.001 A 
HETATM   20  C   UNL     1      42.722 -16.875   4.881  1.00  0.00     0.009 A 
ENDBRANCH  13  15
ENDBRANCH  10  13
ENDBRANCH   8   9
ENDBRANCH   7   8
ENDBRANCH   1   7
BRANCH   4  21
HETATM   21  C   UNL     1      44.072  -9.161   9.210  1.00  0.00     0.256 C 
BRANCH  21  22
HETATM   22  O   UNL     1      44.444  -9.714  10.470  1.00  0.00    -0.344 OA
BRANCH  22  23
HETATM   23  C   UNL     1      43.667  -9.383  11.546  1.00  0.00     0.069 A 
HETATM   24  C   UNL     1      43.822  -8.259  12.361  1.00  0.00     0.044 A 
HETATM   25  C   UNL     1      42.960  -8.037  13.451  1.00  0.00    -0.049 A 
HETATM   26  C   UNL     1      41.943  -8.964  13.734  1.00  0.00    -0.052 A 
HETATM   27  C   UNL     1      43.194  -6.834  14.335  1.00  0.00     0.039 C 
HETATM   28  C   UNL     1      40.973  -8.752  14.872  1.00  0.00     0.039 C 
HETATM   29  C   UNL     1      41.785 -10.082  12.904  1.00  0.00     0.010 A 
HETATM   30  C   UNL     1      41.472  -7.750  15.910  1.00  0.00     0.005 C 
HETATM   31  C   UNL     1      42.001  -6.496  15.226  1.00  0.00     0.005 C 
HETATM   32  C   UNL     1      42.645 -10.289  11.825  1.00  0.00     0.037 A 
ENDBRANCH  22  23
ENDBRANCH  21  22
ENDBRANCH   4  21
TORSDOF 8
ENDMDL
