MODEL 1
REMARK VINA RESULT:      -8.5      0.000      0.000
REMARK  11 active torsions:
REMARK  status: ('A' for Active; 'I' for Inactive)
REMARK    1  A    between atoms: C_2  and  O_3 
REMARK    2  A    between atoms: O_3  and  C_4 
REMARK    3  A    between atoms: C_7  and  N_8 
REMARK    4  A    between atoms: C_9  and  S_10 
REMARK    5  A    between atoms: S_10  and  C_11 
REMARK    6  A    between atoms: C_11  and  C_12 
REMARK       I    between atoms: C_12  and  N_13 
REMARK    7  A    between atoms: N_13  and  C_14 
REMARK    8  A    between atoms: C_15  and  C_16 
REMARK    9  A    between atoms: C_16  and  O_17 
REMARK   10  A    between atoms: O_17  and  C_18 
REMARK   11  A    between atoms: C_29  and  N_30 
ROOT
HETATM    1  N   UNL     1      41.597 -14.583   3.230  1.00  0.00    -0.276 N 
HETATM    2  C   UNL     1      40.955 -14.172   4.428  1.00  0.00     0.177 C 
HETATM    3  N   UNL     1      41.029 -14.784   5.580  1.00  0.00    -0.204 NA
HETATM    4  C   UNL     1      41.848 -15.856   5.591  1.00  0.00     0.162 A 
HETATM    5  C   UNL     1      42.649 -16.334   4.594  1.00  0.00     0.081 A 
HETATM    6  C   UNL     1      42.557 -15.682   3.324  1.00  0.00     0.124 C 
HETATM    7  N   UNL     1      42.103 -16.643   6.676  1.00  0.00    -0.260 N 
HETATM    8  H   UNL     1      41.698 -16.574   7.605  1.00  0.00     0.191 HD
HETATM    9  N   UNL     1      43.052 -17.575   6.430  1.00  0.00    -0.177 NA
HETATM   10  C   UNL     1      43.391 -17.388   5.144  1.00  0.00     0.068 A 
HETATM   11  C   UNL     1      44.436 -18.241   4.534  1.00  0.00     0.073 C 
ENDROOT
BRANCH   2  12
HETATM   12  S   UNL     1      40.122 -12.606   4.493  1.00  0.00    -0.082 SA
BRANCH  12  13
HETATM   13  C   UNL     1      40.735 -11.849   6.026  1.00  0.00     0.185 C 
BRANCH  13  14
HETATM   14  C   UNL     1      42.165 -11.309   6.042  1.00  0.00     0.231 C 
HETATM   15  N   UNL     1      42.821 -11.293   7.265  1.00  0.00    -0.326 N 
HETATM   16  H   UNL     1      42.191 -11.323   8.055  1.00  0.00     0.169 HD
HETATM   17  O   UNL     1      42.657 -10.878   4.997  1.00  0.00    -0.272 OA
BRANCH  15  18
HETATM   18  C   UNL     1      44.030 -10.576   7.451  1.00  0.00     0.051 A 
HETATM   19  C   UNL     1      44.123  -9.294   8.020  1.00  0.00     0.066 A 
HETATM   20  C   UNL     1      45.391  -8.762   8.321  1.00  0.00     0.020 A 
HETATM   21  C   UNL     1      46.552  -9.480   8.033  1.00  0.00     0.001 A 
HETATM   22  C   UNL     1      46.460 -10.712   7.394  1.00  0.00     0.002 A 
HETATM   23  C   UNL     1      45.209 -11.247   7.087  1.00  0.00     0.030 A 
BRANCH  19  24
HETATM   24  C   UNL     1      42.934  -8.405   8.117  1.00  0.00     0.295 C 
HETATM   25  O   UNL     1      42.832  -7.343   7.521  1.00  0.00    -0.259 OA
BRANCH  24  26
HETATM   26  O   UNL     1      42.061  -8.894   9.036  1.00  0.00    -0.318 OA
BRANCH  26  27
HETATM   27  C   UNL     1      42.364  -8.581  10.402  1.00  0.00     0.174 C 
HETATM   28  C   UNL     1      42.641  -9.837  11.205  1.00  0.00     0.034 C 
ENDBRANCH  26  27
ENDBRANCH  24  26
ENDBRANCH  19  24
ENDBRANCH  15  18
ENDBRANCH  13  14
ENDBRANCH  12  13
ENDBRANCH   2  12
BRANCH   1  29
HETATM   29  C   UNL     1      41.060 -14.255   1.944  1.00  0.00     0.043 A 
HETATM   30  C   UNL     1      41.400 -13.080   1.267  1.00  0.00     0.033 A 
HETATM   31  C   UNL     1      40.951 -12.866  -0.042  1.00  0.00     0.039 A 
HETATM   32  C   UNL     1      40.193 -13.835  -0.705  1.00  0.00     0.068 A 
HETATM   33  C   UNL     1      39.821 -14.993  -0.029  1.00  0.00     0.039 A 
HETATM   34  C   UNL     1      40.251 -15.199   1.284  1.00  0.00     0.033 A 
BRANCH  32  35
HETATM   35  O   UNL     1      39.844 -13.542  -1.993  1.00  0.00    -0.352 OA
BRANCH  35  36
HETATM   36  C   UNL     1      38.456 -13.702  -2.298  1.00  0.00     0.171 C 
HETATM   37  C   UNL     1      38.323 -14.787  -3.352  1.00  0.00     0.034 C 
ENDBRANCH  35  36
ENDBRANCH  32  35
ENDBRANCH   1  29
BRANCH   6  38
HETATM   38  N   UNL     1      43.306 -16.051   2.303  1.00  0.00    -0.384 N 
HETATM   39  H   UNL     1      44.313 -16.065   2.352  1.00  0.00     0.157 HD
HETATM   40  H   UNL     1      42.864 -16.307   1.428  1.00  0.00     0.157 HD
ENDBRANCH   6  38
TORSDOF 11
ENDMDL
MODEL 2
REMARK VINA RESULT:      -8.4      3.329      5.474
REMARK  11 active torsions:
REMARK  status: ('A' for Active; 'I' for Inactive)
REMARK    1  A    between atoms: C_2  and  O_3 
REMARK    2  A    between atoms: O_3  and  C_4 
REMARK    3  A    between atoms: C_7  and  N_8 
REMARK    4  A    between atoms: C_9  and  S_10 
REMARK    5  A    between atoms: S_10  and  C_11 
REMARK    6  A    between atoms: C_11  and  C_12 
REMARK       I    between atoms: C_12  and  N_13 
REMARK    7  A    between atoms: N_13  and  C_14 
REMARK    8  A    between atoms: C_15  and  C_16 
REMARK    9  A    between atoms: C_16  and  O_17 
REMARK   10  A    between atoms: O_17  and  C_18 
REMARK   11  A    between atoms: C_29  and  N_30 
ROOT
HETATM    1  N   UNL     1      41.981 -13.230   4.880  1.00  0.00    -0.276 N 
HETATM    2  C   UNL     1      42.972 -12.339   5.373  1.00  0.00     0.177 C 
HETATM    3  N   UNL     1      43.003 -11.049   5.172  1.00  0.00    -0.204 NA
HETATM    4  C   UNL     1      41.948 -10.565   4.486  1.00  0.00     0.162 A 
HETATM    5  C   UNL     1      40.836 -11.224   4.044  1.00  0.00     0.081 A 
HETATM    6  C   UNL     1      40.805 -12.640   4.242  1.00  0.00     0.124 C 
HETATM    7  N   UNL     1      41.746  -9.253   4.170  1.00  0.00    -0.260 N 
HETATM    8  H   UNL     1      42.359  -8.465   4.358  1.00  0.00     0.191 HD
HETATM    9  N   UNL     1      40.547  -9.038   3.582  1.00  0.00    -0.177 NA
HETATM   10  C   UNL     1      39.983 -10.254   3.500  1.00  0.00     0.068 A 
HETATM   11  C   UNL     1      38.630 -10.394   2.913  1.00  0.00     0.073 C 
ENDROOT
BRANCH   2  12
HETATM   12  S   UNL     1      44.195 -12.923   6.518  1.00  0.00    -0.082 SA
BRANCH  12  13
HETATM   13  C   UNL     1      45.236 -11.466   6.825  1.00  0.00     0.185 C 
BRANCH  13  14
HETATM   14  C   UNL     1      45.029 -10.693   8.127  1.00  0.00     0.231 C 
HETATM   15  N   UNL     1      43.797 -10.827   8.753  1.00  0.00    -0.326 N 
HETATM   16  H   UNL     1      43.067 -11.143   8.129  1.00  0.00     0.169 HD
HETATM   17  O   UNL     1      45.930  -9.962   8.543  1.00  0.00    -0.272 OA
BRANCH  15  18
HETATM   18  C   UNL     1      43.398  -9.962   9.802  1.00  0.00     0.051 A 
HETATM   19  C   UNL     1      42.754  -8.725   9.621  1.00  0.00     0.066 A 
HETATM   20  C   UNL     1      42.243  -8.042  10.741  1.00  0.00     0.020 A 
HETATM   21  C   UNL     1      42.395  -8.565  12.025  1.00  0.00     0.001 A 
HETATM   22  C   UNL     1      43.104  -9.747  12.210  1.00  0.00     0.002 A 
HETATM   23  C   UNL     1      43.620 -10.430  11.108  1.00  0.00     0.030 A 
BRANCH  19  24
HETATM   24  C   UNL     1      42.787  -8.023   8.310  1.00  0.00     0.295 C 
HETATM   25  O   UNL     1      43.331  -6.943   8.133  1.00  0.00    -0.259 OA
BRANCH  24  26
HETATM   26  O   UNL     1      42.037  -8.700   7.402  1.00  0.00    -0.318 OA
BRANCH  26  27
HETATM   27  C   UNL     1      40.626  -8.450   7.456  1.00  0.00     0.174 C 
HETATM   28  C   UNL     1      39.838  -9.744   7.402  1.00  0.00     0.034 C 
ENDBRANCH  26  27
ENDBRANCH  24  26
ENDBRANCH  19  24
ENDBRANCH  15  18
ENDBRANCH  13  14
ENDBRANCH  12  13
ENDBRANCH   2  12
BRANCH   1  29
HETATM   29  C   UNL     1      42.273 -14.609   4.633  1.00  0.00     0.043 A 
HETATM   30  C   UNL     1      42.958 -15.039   3.493  1.00  0.00     0.033 A 
HETATM   31  C   UNL     1      43.333 -16.382   3.361  1.00  0.00     0.039 A 
HETATM   32  C   UNL     1      43.066 -17.301   4.378  1.00  0.00     0.068 A 
HETATM   33  C   UNL     1      42.356 -16.892   5.503  1.00  0.00     0.039 A 
HETATM   34  C   UNL     1      41.963 -15.558   5.626  1.00  0.00     0.033 A 
BRANCH  32  35
HETATM   35  O   UNL     1      43.514 -18.575   4.165  1.00  0.00    -0.352 OA
BRANCH  35  36
HETATM   36  C   UNL     1      44.073 -18.813   2.870  1.00  0.00     0.171 C 
HETATM   37  C   UNL     1      43.450 -20.078   2.309  1.00  0.00     0.034 C 
ENDBRANCH  35  36
ENDBRANCH  32  35
ENDBRANCH   1  29
BRANCH   6  38
HETATM   38  N   UNL     1      39.767 -13.366   3.873  1.00  0.00    -0.384 N 
HETATM   39  H   UNL     1      39.145 -13.076   3.134  1.00  0.00     0.157 HD
HETATM   40  H   UNL     1      39.567 -14.232   4.360  1.00  0.00     0.157 HD
ENDBRANCH   6  38
TORSDOF 11
ENDMDL
MODEL 3
REMARK VINA RESULT:      -8.4      2.929      5.974
REMARK  11 active torsions:
REMARK  status: ('A' for Active; 'I' for Inactive)
REMARK    1  A    between atoms: C_2  and  O_3 
REMARK    2  A    between atoms: O_3  and  C_4 
REMARK    3  A    between atoms: C_7  and  N_8 
REMARK    4  A    between atoms: C_9  and  S_10 
REMARK    5  A    between atoms: S_10  and  C_11 
REMARK    6  A    between atoms: C_11  and  C_12 
REMARK       I    between atoms: C_12  and  N_13 
REMARK    7  A    between atoms: N_13  and  C_14 
REMARK    8  A    between atoms: C_15  and  C_16 
REMARK    9  A    between atoms: C_16  and  O_17 
REMARK   10  A    between atoms: O_17  and  C_18 
REMARK   11  A    between atoms: C_29  and  N_30 
ROOT
HETATM    1  N   UNL     1      40.896 -14.027   1.020  1.00  0.00    -0.276 N 
HETATM    2  C   UNL     1      41.363 -12.704   0.799  1.00  0.00     0.177 C 
HETATM    3  N   UNL     1      41.250 -12.033  -0.316  1.00  0.00    -0.204 NA
HETATM    4  C   UNL     1      40.568 -12.675  -1.287  1.00  0.00     0.162 A 
HETATM    5  C   UNL     1      39.929 -13.881  -1.234  1.00  0.00     0.081 A 
HETATM    6  C   UNL     1      40.067 -14.630  -0.023  1.00  0.00     0.124 C 
HETATM    7  N   UNL     1      40.303 -12.175  -2.528  1.00  0.00    -0.260 N 
HETATM    8  H   UNL     1      40.603 -11.287  -2.919  1.00  0.00     0.191 HD
HETATM    9  N   UNL     1      39.499 -12.985  -3.255  1.00  0.00    -0.177 NA
HETATM   10  C   UNL     1      39.268 -14.042  -2.459  1.00  0.00     0.068 A 
HETATM   11  C   UNL     1      38.396 -15.139  -2.937  1.00  0.00     0.073 C 
ENDROOT
BRANCH   2  12
HETATM   12  S   UNL     1      41.994 -11.751   2.156  1.00  0.00    -0.082 SA
BRANCH  12  13
HETATM   13  C   UNL     1      40.573 -11.594   3.277  1.00  0.00     0.185 C 
BRANCH  13  14
HETATM   14  C   UNL     1      40.848 -11.438   4.772  1.00  0.00     0.231 C 
HETATM   15  N   UNL     1      41.573 -10.324   5.169  1.00  0.00    -0.326 N 
HETATM   16  H   UNL     1      42.119  -9.918   4.422  1.00  0.00     0.169 HD
HETATM   17  O   UNL     1      40.459 -12.313   5.549  1.00  0.00    -0.272 OA
BRANCH  15  18
HETATM   18  C   UNL     1      42.115 -10.216   6.475  1.00  0.00     0.051 A 
HETATM   19  C   UNL     1      43.414 -10.610   6.840  1.00  0.00     0.066 A 
HETATM   20  C   UNL     1      43.900 -10.284   8.120  1.00  0.00     0.020 A 
HETATM   21  C   UNL     1      43.097  -9.604   9.036  1.00  0.00     0.001 A 
HETATM   22  C   UNL     1      41.784  -9.289   8.702  1.00  0.00     0.002 A 
HETATM   23  C   UNL     1      41.290  -9.611   7.438  1.00  0.00     0.030 A 
BRANCH  19  24
HETATM   24  C   UNL     1      44.206 -11.540   5.990  1.00  0.00     0.295 C 
HETATM   25  O   UNL     1      44.526 -11.298   4.837  1.00  0.00    -0.259 OA
BRANCH  24  26
HETATM   26  O   UNL     1      44.406 -12.712   6.648  1.00  0.00    -0.318 OA
BRANCH  26  27
HETATM   27  C   UNL     1      43.644 -13.827   6.168  1.00  0.00     0.174 C 
HETATM   28  C   UNL     1      43.041 -14.613   7.316  1.00  0.00     0.034 C 
ENDBRANCH  26  27
ENDBRANCH  24  26
ENDBRANCH  19  24
ENDBRANCH  15  18
ENDBRANCH  13  14
ENDBRANCH  12  13
ENDBRANCH   2  12
BRANCH   1  29
HETATM   29  C   UNL     1      41.513 -14.886   1.984  1.00  0.00     0.043 A 
HETATM   30  C   UNL     1      40.904 -15.209   3.201  1.00  0.00     0.033 A 
HETATM   31  C   UNL     1      41.488 -16.155   4.052  1.00  0.00     0.039 A 
HETATM   32  C   UNL     1      42.661 -16.819   3.684  1.00  0.00     0.068 A 
HETATM   33  C   UNL     1      43.293 -16.482   2.491  1.00  0.00     0.039 A 
HETATM   34  C   UNL     1      42.723 -15.523   1.651  1.00  0.00     0.033 A 
BRANCH  32  35
HETATM   35  O   UNL     1      43.121 -17.752   4.569  1.00  0.00    -0.352 OA
BRANCH  35  36
HETATM   36  C   UNL     1      44.156 -18.605   4.071  1.00  0.00     0.171 C 
HETATM   37  C   UNL     1      44.241 -19.825   4.971  1.00  0.00     0.034 C 
ENDBRANCH  35  36
ENDBRANCH  32  35
ENDBRANCH   1  29
BRANCH   6  38
HETATM   38  N   UNL     1      39.471 -15.796   0.139  1.00  0.00    -0.384 N 
HETATM   39  H   UNL     1      39.133 -16.106   1.037  1.00  0.00     0.157 HD
HETATM   40  H   UNL     1      39.369 -16.418  -0.655  1.00  0.00     0.157 HD
ENDBRANCH   6  38
TORSDOF 11
ENDMDL
MODEL 4
REMARK VINA RESULT:      -8.4      3.176      7.782
REMARK  11 active torsions:
REMARK  status: ('A' for Active; 'I' for Inactive)
REMARK    1  A    between atoms: C_2  and  O_3 
REMARK    2  A    between atoms: O_3  and  C_4 
REMARK    3  A    between atoms: C_7  and  N_8 
REMARK    4  A    between atoms: C_9  and  S_10 
REMARK    5  A    between atoms: S_10  and  C_11 
REMARK    6  A    between atoms: C_11  and  C_12 
REMARK       I    between atoms: C_12  and  N_13 
REMARK    7  A    between atoms: N_13  and  C_14 
REMARK    8  A    between atoms: C_15  and  C_16 
REMARK    9  A    between atoms: C_16  and  O_17 
REMARK   10  A    between atoms: O_17  and  C_18 
REMARK   11  A    between atoms: C_29  and  N_30 
ROOT
HETATM    1  N   UNL     1      42.604 -11.516   6.275  1.00  0.00    -0.276 N 
HETATM    2  C   UNL     1      43.833 -12.163   5.976  1.00  0.00     0.177 C 
HETATM    3  N   UNL     1      45.005 -11.824   6.441  1.00  0.00    -0.204 NA
HETATM    4  C   UNL     1      44.981 -10.805   7.325  1.00  0.00     0.162 A 
HETATM    5  C   UNL     1      43.905 -10.143   7.842  1.00  0.00     0.081 A 
HETATM    6  C   UNL     1      42.620 -10.495   7.321  1.00  0.00     0.124 C 
HETATM    7  N   UNL     1      46.071 -10.286   7.960  1.00  0.00    -0.260 N 
HETATM    8  H   UNL     1      47.045 -10.546   7.840  1.00  0.00     0.191 HD
HETATM    9  N   UNL     1      45.740  -9.351   8.881  1.00  0.00    -0.177 NA
HETATM   10  C   UNL     1      44.403  -9.259   8.809  1.00  0.00     0.068 A 
HETATM   11  C   UNL     1      43.687  -8.324   9.707  1.00  0.00     0.073 C 
ENDROOT
BRANCH   2  12
HETATM   12  S   UNL     1      43.832 -13.679   5.052  1.00  0.00    -0.082 SA
BRANCH  12  13
HETATM   13  C   UNL     1      43.513 -14.953   6.307  1.00  0.00     0.185 C 
BRANCH  13  14
HETATM   14  C   UNL     1      43.214 -16.375   5.831  1.00  0.00     0.231 C 
HETATM   15  N   UNL     1      44.162 -16.983   5.020  1.00  0.00    -0.326 N 
HETATM   16  H   UNL     1      44.777 -16.323   4.563  1.00  0.00     0.169 HD
HETATM   17  O   UNL     1      42.144 -16.901   6.144  1.00  0.00    -0.272 OA
BRANCH  15  18
HETATM   18  C   UNL     1      43.877 -18.174   4.306  1.00  0.00     0.051 A 
HETATM   19  C   UNL     1      43.403 -18.223   2.984  1.00  0.00     0.066 A 
HETATM   20  C   UNL     1      43.332 -19.463   2.321  1.00  0.00     0.020 A 
HETATM   21  C   UNL     1      43.697 -20.641   2.972  1.00  0.00     0.001 A 
HETATM   22  C   UNL     1      44.087 -20.600   4.307  1.00  0.00     0.002 A 
HETATM   23  C   UNL     1      44.156 -19.377   4.976  1.00  0.00     0.030 A 
BRANCH  19  24
HETATM   24  C   UNL     1      42.779 -17.034   2.343  1.00  0.00     0.295 C 
HETATM   25  O   UNL     1      43.363 -16.304   1.555  1.00  0.00    -0.259 OA
BRANCH  24  26
HETATM   26  O   UNL     1      41.535 -16.833   2.850  1.00  0.00    -0.318 OA
BRANCH  26  27
HETATM   27  C   UNL     1      41.081 -15.472   2.851  1.00  0.00     0.174 C 
HETATM   28  C   UNL     1      39.987 -15.259   1.824  1.00  0.00     0.034 C 
ENDBRANCH  26  27
ENDBRANCH  24  26
ENDBRANCH  19  24
ENDBRANCH  15  18
ENDBRANCH  13  14
ENDBRANCH  12  13
ENDBRANCH   2  12
BRANCH   1  29
HETATM   29  C   UNL     1      41.506 -11.537   5.357  1.00  0.00     0.043 A 
HETATM   30  C   UNL     1      41.501 -10.789   4.176  1.00  0.00     0.033 A 
HETATM   31  C   UNL     1      40.463 -10.943   3.249  1.00  0.00     0.039 A 
HETATM   32  C   UNL     1      39.441 -11.870   3.468  1.00  0.00     0.068 A 
HETATM   33  C   UNL     1      39.418 -12.596   4.655  1.00  0.00     0.039 A 
HETATM   34  C   UNL     1      40.442 -12.428   5.591  1.00  0.00     0.033 A 
BRANCH  32  35
HETATM   35  O   UNL     1      38.503 -11.969   2.480  1.00  0.00    -0.352 OA
BRANCH  35  36
HETATM   36  C   UNL     1      38.332 -10.793   1.684  1.00  0.00     0.171 C 
HETATM   37  C   UNL     1      36.930 -10.814   1.101  1.00  0.00     0.034 C 
ENDBRANCH  35  36
ENDBRANCH  32  35
ENDBRANCH   1  29
BRANCH   6  38
HETATM   38  N   UNL     1      41.515  -9.932   7.771  1.00  0.00    -0.384 N 
HETATM   39  H   UNL     1      41.512  -9.013   8.187  1.00  0.00     0.157 HD
HETATM   40  H   UNL     1      40.641 -10.441   7.723  1.00  0.00     0.157 HD
ENDBRANCH   6  38
TORSDOF 11
ENDMDL
MODEL 5
REMARK VINA RESULT:      -8.3      2.429      5.568
REMARK  11 active torsions:
REMARK  status: ('A' for Active; 'I' for Inactive)
REMARK    1  A    between atoms: C_2  and  O_3 
REMARK    2  A    between atoms: O_3  and  C_4 
REMARK    3  A    between atoms: C_7  and  N_8 
REMARK    4  A    between atoms: C_9  and  S_10 
REMARK    5  A    between atoms: S_10  and  C_11 
REMARK    6  A    between atoms: C_11  and  C_12 
REMARK       I    between atoms: C_12  and  N_13 
REMARK    7  A    between atoms: N_13  and  C_14 
REMARK    8  A    between atoms: C_15  and  C_16 
REMARK    9  A    between atoms: C_16  and  O_17 
REMARK   10  A    between atoms: O_17  and  C_18 
REMARK   11  A    between atoms: C_29  and  N_30 
ROOT
HETATM    1  N   UNL     1      40.471 -14.379   3.148  1.00  0.00    -0.276 N 
HETATM    2  C   UNL     1      40.210 -13.064   3.619  1.00  0.00     0.177 C 
HETATM    3  N   UNL     1      39.892 -12.039   2.875  1.00  0.00    -0.204 NA
HETATM    4  C   UNL     1      39.752 -12.322   1.564  1.00  0.00     0.162 A 
HETATM    5  C   UNL     1      39.826 -13.532   0.934  1.00  0.00     0.081 A 
HETATM    6  C   UNL     1      40.195 -14.656   1.740  1.00  0.00     0.124 C 
HETATM    7  N   UNL     1      39.407 -11.426   0.595  1.00  0.00    -0.260 N 
HETATM    8  H   UNL     1      39.248 -10.428   0.697  1.00  0.00     0.191 HD
HETATM    9  N   UNL     1      39.223 -12.009  -0.612  1.00  0.00    -0.177 NA
HETATM   10  C   UNL     1      39.484 -13.311  -0.406  1.00  0.00     0.068 A 
HETATM   11  C   UNL     1      39.362 -14.266  -1.532  1.00  0.00     0.073 C 
ENDROOT
BRANCH   2  12
HETATM   12  S   UNL     1      40.103 -12.754   5.363  1.00  0.00    -0.082 SA
BRANCH  12  13
HETATM   13  C   UNL     1      40.177 -10.943   5.489  1.00  0.00     0.185 C 
BRANCH  13  14
HETATM   14  C   UNL     1      41.493 -10.305   5.934  1.00  0.00     0.231 C 
HETATM   15  N   UNL     1      41.968 -10.648   7.193  1.00  0.00    -0.326 N 
HETATM   16  H   UNL     1      41.249 -11.009   7.804  1.00  0.00     0.169 HD
HETATM   17  O   UNL     1      42.050  -9.494   5.191  1.00  0.00    -0.272 OA
BRANCH  15  18
HETATM   18  C   UNL     1      43.017  -9.924   7.814  1.00  0.00     0.051 A 
HETATM   19  C   UNL     1      44.387 -10.167   7.614  1.00  0.00     0.066 A 
HETATM   20  C   UNL     1      45.332  -9.266   8.141  1.00  0.00     0.020 A 
HETATM   21  C   UNL     1      44.924  -8.157   8.881  1.00  0.00     0.001 A 
HETATM   22  C   UNL     1      43.572  -7.964   9.147  1.00  0.00     0.002 A 
HETATM   23  C   UNL     1      42.627  -8.853   8.635  1.00  0.00     0.030 A 
BRANCH  19  24
HETATM   24  C   UNL     1      44.867 -11.456   7.046  1.00  0.00     0.295 C 
HETATM   25  O   UNL     1      45.660 -11.534   6.120  1.00  0.00    -0.259 OA
BRANCH  24  26
HETATM   26  O   UNL     1      44.212 -12.493   7.631  1.00  0.00    -0.318 OA
BRANCH  26  27
HETATM   27  C   UNL     1      43.798 -13.540   6.743  1.00  0.00     0.174 C 
HETATM   28  C   UNL     1      43.070 -14.638   7.493  1.00  0.00     0.034 C 
ENDBRANCH  26  27
ENDBRANCH  24  26
ENDBRANCH  19  24
ENDBRANCH  15  18
ENDBRANCH  13  14
ENDBRANCH  12  13
ENDBRANCH   2  12
BRANCH   1  29
HETATM   29  C   UNL     1      41.331 -15.272   3.864  1.00  0.00     0.043 A 
HETATM   30  C   UNL     1      40.847 -16.191   4.799  1.00  0.00     0.033 A 
HETATM   31  C   UNL     1      41.711 -17.130   5.376  1.00  0.00     0.039 A 
HETATM   32  C   UNL     1      43.055 -17.191   4.999  1.00  0.00     0.068 A 
HETATM   33  C   UNL     1      43.555 -16.260   4.094  1.00  0.00     0.039 A 
HETATM   34  C   UNL     1      42.699 -15.309   3.533  1.00  0.00     0.033 A 
BRANCH  32  35
HETATM   35  O   UNL     1      43.797 -18.172   5.592  1.00  0.00    -0.352 OA
BRANCH  35  36
HETATM   36  C   UNL     1      44.279 -19.189   4.708  1.00  0.00     0.171 C 
HETATM   37  C   UNL     1      43.997 -20.540   5.339  1.00  0.00     0.034 C 
ENDBRANCH  35  36
ENDBRANCH  32  35
ENDBRANCH   1  29
BRANCH   6  38
HETATM   38  N   UNL     1      40.272 -15.872   1.233  1.00  0.00    -0.384 N 
HETATM   39  H   UNL     1      39.621 -16.207   0.539  1.00  0.00     0.157 HD
HETATM   40  H   UNL     1      40.990 -16.505   1.565  1.00  0.00     0.157 HD
ENDBRANCH   6  38
TORSDOF 11
ENDMDL
MODEL 6
REMARK VINA RESULT:      -8.3      1.939      2.605
REMARK  11 active torsions:
REMARK  status: ('A' for Active; 'I' for Inactive)
REMARK    1  A    between atoms: C_2  and  O_3 
REMARK    2  A    between atoms: O_3  and  C_4 
REMARK    3  A    between atoms: C_7  and  N_8 
REMARK    4  A    between atoms: C_9  and  S_10 
REMARK    5  A    between atoms: S_10  and  C_11 
REMARK    6  A    between atoms: C_11  and  C_12 
REMARK       I    between atoms: C_12  and  N_13 
REMARK    7  A    between atoms: N_13  and  C_14 
REMARK    8  A    between atoms: C_15  and  C_16 
REMARK    9  A    between atoms: C_16  and  O_17 
REMARK   10  A    between atoms: O_17  and  C_18 
REMARK   11  A    between atoms: C_29  and  N_30 
ROOT
HETATM    1  N   UNL     1      42.634 -15.405   4.271  1.00  0.00    -0.276 N 
HETATM    2  C   UNL     1      42.611 -14.881   5.591  1.00  0.00     0.177 C 
HETATM    3  N   UNL     1      42.789 -15.571   6.686  1.00  0.00    -0.204 NA
HETATM    4  C   UNL     1      43.078 -16.873   6.486  1.00  0.00     0.162 A 
HETATM    5  C   UNL     1      43.276 -17.537   5.309  1.00  0.00     0.081 A 
HETATM    6  C   UNL     1      43.061 -16.793   4.105  1.00  0.00     0.124 C 
HETATM    7  N   UNL     1      43.324 -17.788   7.468  1.00  0.00    -0.260 N 
HETATM    8  H   UNL     1      43.288 -17.647   8.473  1.00  0.00     0.191 HD
HETATM    9  N   UNL     1      43.702 -18.990   6.976  1.00  0.00    -0.177 NA
HETATM   10  C   UNL     1      43.672 -18.839   5.642  1.00  0.00     0.068 A 
HETATM   11  C   UNL     1      44.052 -19.975   4.771  1.00  0.00     0.073 C 
ENDROOT
BRANCH   2  12
HETATM   12  S   UNL     1      42.527 -13.127   5.845  1.00  0.00    -0.082 SA
BRANCH  12  13
HETATM   13  C   UNL     1      44.099 -12.730   6.667  1.00  0.00     0.185 C 
BRANCH  13  14
HETATM   14  C   UNL     1      44.191 -11.423   7.453  1.00  0.00     0.231 C 
HETATM   15  N   UNL     1      43.006 -10.901   7.952  1.00  0.00    -0.326 N 
HETATM   16  H   UNL     1      42.186 -11.247   7.474  1.00  0.00     0.169 HD
HETATM   17  O   UNL     1      45.286 -10.870   7.575  1.00  0.00    -0.272 OA
BRANCH  15  18
HETATM   18  C   UNL     1      42.930  -9.577   8.455  1.00  0.00     0.051 A 
HETATM   19  C   UNL     1      43.201  -9.206   9.783  1.00  0.00     0.066 A 
HETATM   20  C   UNL     1      43.271  -7.841  10.118  1.00  0.00     0.020 A 
HETATM   21  C   UNL     1      43.046  -6.858   9.155  1.00  0.00     0.001 A 
HETATM   22  C   UNL     1      42.696  -7.227   7.860  1.00  0.00     0.002 A 
HETATM   23  C   UNL     1      42.618  -8.578   7.518  1.00  0.00     0.030 A 
BRANCH  19  24
HETATM   24  C   UNL     1      43.206 -10.212  10.879  1.00  0.00     0.295 C 
HETATM   25  O   UNL     1      44.022 -11.117  10.965  1.00  0.00    -0.259 OA
BRANCH  24  26
HETATM   26  O   UNL     1      42.120 -10.035  11.677  1.00  0.00    -0.318 OA
BRANCH  26  27
HETATM   27  C   UNL     1      42.384 -10.023  13.086  1.00  0.00     0.174 C 
HETATM   28  C   UNL     1      42.503  -8.606  13.610  1.00  0.00     0.034 C 
ENDBRANCH  26  27
ENDBRANCH  24  26
ENDBRANCH  19  24
ENDBRANCH  15  18
ENDBRANCH  13  14
ENDBRANCH  12  13
ENDBRANCH   2  12
BRANCH   1  29
HETATM   29  C   UNL     1      41.902 -14.785   3.209  1.00  0.00     0.043 A 
HETATM   30  C   UNL     1      42.513 -13.963   2.256  1.00  0.00     0.033 A 
HETATM   31  C   UNL     1      41.779 -13.487   1.163  1.00  0.00     0.039 A 
HETATM   32  C   UNL     1      40.443 -13.853   0.984  1.00  0.00     0.068 A 
HETATM   33  C   UNL     1      39.816 -14.643   1.943  1.00  0.00     0.039 A 
HETATM   34  C   UNL     1      40.540 -15.103   3.045  1.00  0.00     0.033 A 
BRANCH  32  35
HETATM   35  O   UNL     1      39.835 -13.366  -0.138  1.00  0.00    -0.352 OA
BRANCH  35  36
HETATM   36  C   UNL     1      39.483 -14.350  -1.115  1.00  0.00     0.171 C 
HETATM   37  C   UNL     1      40.165 -13.986  -2.422  1.00  0.00     0.034 C 
ENDBRANCH  35  36
ENDBRANCH  32  35
ENDBRANCH   1  29
BRANCH   6  38
HETATM   38  N   UNL     1      43.248 -17.335   2.917  1.00  0.00    -0.384 N 
HETATM   39  H   UNL     1      43.668 -16.825   2.155  1.00  0.00     0.157 HD
HETATM   40  H   UNL     1      42.940 -18.285   2.749  1.00  0.00     0.157 HD
ENDBRANCH   6  38
TORSDOF 11
ENDMDL
MODEL 7
REMARK VINA RESULT:      -8.0      2.682      5.709
REMARK  11 active torsions:
REMARK  status: ('A' for Active; 'I' for Inactive)
REMARK    1  A    between atoms: C_2  and  O_3 
REMARK    2  A    between atoms: O_3  and  C_4 
REMARK    3  A    between atoms: C_7  and  N_8 
REMARK    4  A    between atoms: C_9  and  S_10 
REMARK    5  A    between atoms: S_10  and  C_11 
REMARK    6  A    between atoms: C_11  and  C_12 
REMARK       I    between atoms: C_12  and  N_13 
REMARK    7  A    between atoms: N_13  and  C_14 
REMARK    8  A    between atoms: C_15  and  C_16 
REMARK    9  A    between atoms: C_16  and  O_17 
REMARK   10  A    between atoms: O_17  and  C_18 
REMARK   11  A    between atoms: C_29  and  N_30 
ROOT
HETATM    1  N   UNL     1      41.656 -13.309   2.338  1.00  0.00    -0.276 N 
HETATM    2  C   UNL     1      42.347 -12.088   2.567  1.00  0.00     0.177 C 
HETATM    3  N   UNL     1      42.182 -10.983   1.891  1.00  0.00    -0.204 NA
HETATM    4  C   UNL     1      41.218 -11.042   0.949  1.00  0.00     0.162 A 
HETATM    5  C   UNL     1      40.359 -12.064   0.664  1.00  0.00     0.081 A 
HETATM    6  C   UNL     1      40.548 -13.285   1.385  1.00  0.00     0.124 C 
HETATM    7  N   UNL     1      40.849 -10.014   0.132  1.00  0.00    -0.260 N 
HETATM    8  H   UNL     1      41.256  -9.085   0.076  1.00  0.00     0.191 HD
HETATM    9  N   UNL     1      39.776 -10.318  -0.634  1.00  0.00    -0.177 NA
HETATM   10  C   UNL     1      39.472 -11.585  -0.310  1.00  0.00     0.068 A 
HETATM   11  C   UNL     1      38.317 -12.248  -0.958  1.00  0.00     0.073 C 
ENDROOT
BRANCH   2  12
HETATM   12  S   UNL     1      43.396 -11.919   3.988  1.00  0.00    -0.082 SA
BRANCH  12  13
HETATM   13  C   UNL     1      42.231 -11.720   5.368  1.00  0.00     0.185 C 
BRANCH  13  14
HETATM   14  C   UNL     1      42.234 -10.394   6.128  1.00  0.00     0.231 C 
HETATM   15  N   UNL     1      42.437 -10.452   7.500  1.00  0.00    -0.326 N 
HETATM   16  H   UNL     1      42.232 -11.359   7.894  1.00  0.00     0.169 HD
HETATM   17  O   UNL     1      42.017  -9.348   5.513  1.00  0.00    -0.272 OA
BRANCH  15  18
HETATM   18  C   UNL     1      42.193  -9.333   8.335  1.00  0.00     0.051 A 
HETATM   19  C   UNL     1      43.165  -8.395   8.725  1.00  0.00     0.066 A 
HETATM   20  C   UNL     1      42.767  -7.228   9.403  1.00  0.00     0.020 A 
HETATM   21  C   UNL     1      41.425  -7.009   9.717  1.00  0.00     0.001 A 
HETATM   22  C   UNL     1      40.476  -7.976   9.404  1.00  0.00     0.002 A 
HETATM   23  C   UNL     1      40.860  -9.140   8.736  1.00  0.00     0.030 A 
BRANCH  19  24
HETATM   24  C   UNL     1      44.618  -8.704   8.627  1.00  0.00     0.295 C 
HETATM   25  O   UNL     1      45.460  -7.893   8.275  1.00  0.00    -0.259 OA
BRANCH  24  26
HETATM   26  O   UNL     1      44.829 -10.023   8.873  1.00  0.00    -0.318 OA
BRANCH  26  27
HETATM   27  C   UNL     1      46.039 -10.567   8.328  1.00  0.00     0.174 C 
HETATM   28  C   UNL     1      45.806 -11.145   6.946  1.00  0.00     0.034 C 
ENDBRANCH  26  27
ENDBRANCH  24  26
ENDBRANCH  19  24
ENDBRANCH  15  18
ENDBRANCH  13  14
ENDBRANCH  12  13
ENDBRANCH   2  12
BRANCH   1  29
HETATM   29  C   UNL     1      42.239 -14.571   2.677  1.00  0.00     0.043 A 
HETATM   30  C   UNL     1      41.972 -15.221   3.886  1.00  0.00     0.033 A 
HETATM   31  C   UNL     1      42.462 -16.512   4.115  1.00  0.00     0.039 A 
HETATM   32  C   UNL     1      43.188 -17.186   3.130  1.00  0.00     0.068 A 
HETATM   33  C   UNL     1      43.488 -16.537   1.936  1.00  0.00     0.039 A 
HETATM   34  C   UNL     1      43.018 -15.241   1.714  1.00  0.00     0.033 A 
BRANCH  32  35
HETATM   35  O   UNL     1      43.581 -18.457   3.443  1.00  0.00    -0.352 OA
BRANCH  35  36
HETATM   36  C   UNL     1      44.200 -18.604   4.724  1.00  0.00     0.171 C 
HETATM   37  C   UNL     1      44.070 -20.055   5.151  1.00  0.00     0.034 C 
ENDBRANCH  35  36
ENDBRANCH  32  35
ENDBRANCH   1  29
BRANCH   6  38
HETATM   38  N   UNL     1      39.757 -14.325   1.200  1.00  0.00    -0.384 N 
HETATM   39  H   UNL     1      39.628 -15.034   1.906  1.00  0.00     0.157 HD
HETATM   40  H   UNL     1      39.279 -14.436   0.314  1.00  0.00     0.157 HD
ENDBRANCH   6  38
TORSDOF 11
ENDMDL
MODEL 8
REMARK VINA RESULT:      -8.0      2.969      5.355
REMARK  11 active torsions:
REMARK  status: ('A' for Active; 'I' for Inactive)
REMARK    1  A    between atoms: C_2  and  O_3 
REMARK    2  A    between atoms: O_3  and  C_4 
REMARK    3  A    between atoms: C_7  and  N_8 
REMARK    4  A    between atoms: C_9  and  S_10 
REMARK    5  A    between atoms: S_10  and  C_11 
REMARK    6  A    between atoms: C_11  and  C_12 
REMARK       I    between atoms: C_12  and  N_13 
REMARK    7  A    between atoms: N_13  and  C_14 
REMARK    8  A    between atoms: C_15  and  C_16 
REMARK    9  A    between atoms: C_16  and  O_17 
REMARK   10  A    between atoms: O_17  and  C_18 
REMARK   11  A    between atoms: C_29  and  N_30 
ROOT
HETATM    1  N   UNL     1      41.402 -13.251   1.854  1.00  0.00    -0.276 N 
HETATM    2  C   UNL     1      41.519 -12.385   2.974  1.00  0.00     0.177 C 
HETATM    3  N   UNL     1      41.618 -11.083   2.922  1.00  0.00    -0.204 NA
HETATM    4  C   UNL     1      41.533 -10.566   1.680  1.00  0.00     0.162 A 
HETATM    5  C   UNL     1      41.289 -11.205   0.498  1.00  0.00     0.081 A 
HETATM    6  C   UNL     1      41.201 -12.632   0.544  1.00  0.00     0.124 C 
HETATM    7  N   UNL     1      41.590  -9.237   1.373  1.00  0.00    -0.260 N 
HETATM    8  H   UNL     1      41.742  -8.458   2.005  1.00  0.00     0.191 HD
HETATM    9  N   UNL     1      41.359  -8.997   0.062  1.00  0.00    -0.177 NA
HETATM   10  C   UNL     1      41.175 -10.211  -0.482  1.00  0.00     0.068 A 
HETATM   11  C   UNL     1      40.878 -10.325  -1.929  1.00  0.00     0.073 C 
ENDROOT
BRANCH   2  12
HETATM   12  S   UNL     1      41.334 -13.033   4.615  1.00  0.00    -0.082 SA
BRANCH  12  13
HETATM   13  C   UNL     1      42.987 -12.846   5.346  1.00  0.00     0.185 C 
BRANCH  13  14
HETATM   14  C   UNL     1      43.360 -11.491   5.947  1.00  0.00     0.231 C 
HETATM   15  N   UNL     1      42.780 -11.157   7.163  1.00  0.00    -0.326 N 
HETATM   16  H   UNL     1      41.936 -11.678   7.357  1.00  0.00     0.169 HD
HETATM   17  O   UNL     1      44.114 -10.743   5.321  1.00  0.00    -0.272 OA
BRANCH  15  18
HETATM   18  C   UNL     1      42.837  -9.837   7.676  1.00  0.00     0.051 A 
HETATM   19  C   UNL     1      43.865  -9.337   8.494  1.00  0.00     0.066 A 
HETATM   20  C   UNL     1      43.906  -7.961   8.789  1.00  0.00     0.020 A 
HETATM   21  C   UNL     1      42.924  -7.098   8.303  1.00  0.00     0.001 A 
HETATM   22  C   UNL     1      41.862  -7.608   7.563  1.00  0.00     0.002 A 
HETATM   23  C   UNL     1      41.808  -8.971   7.269  1.00  0.00     0.030 A 
BRANCH  19  24
HETATM   24  C   UNL     1      44.783 -10.252   9.225  1.00  0.00     0.295 C 
HETATM   25  O   UNL     1      45.390 -11.170   8.694  1.00  0.00    -0.259 OA
BRANCH  24  26
HETATM   26  O   UNL     1      44.744  -9.982  10.556  1.00  0.00    -0.318 OA
BRANCH  26  27
HETATM   27  C   UNL     1      43.819 -10.767  11.319  1.00  0.00     0.174 C 
HETATM   28  C   UNL     1      42.613  -9.945  11.732  1.00  0.00     0.034 C 
ENDBRANCH  26  27
ENDBRANCH  24  26
ENDBRANCH  19  24
ENDBRANCH  15  18
ENDBRANCH  13  14
ENDBRANCH  12  13
ENDBRANCH   2  12
BRANCH   1  29
HETATM   29  C   UNL     1      41.859 -14.606   1.906  1.00  0.00     0.043 A 
HETATM   30  C   UNL     1      43.213 -14.945   1.828  1.00  0.00     0.033 A 
HETATM   31  C   UNL     1      43.619 -16.272   2.015  1.00  0.00     0.039 A 
HETATM   32  C   UNL     1      42.688 -17.268   2.321  1.00  0.00     0.068 A 
HETATM   33  C   UNL     1      41.334 -16.948   2.369  1.00  0.00     0.039 A 
HETATM   34  C   UNL     1      40.926 -15.629   2.162  1.00  0.00     0.033 A 
BRANCH  32  35
HETATM   35  O   UNL     1      43.197 -18.519   2.525  1.00  0.00    -0.352 OA
BRANCH  35  36
HETATM   36  C   UNL     1      43.952 -18.679   3.730  1.00  0.00     0.171 C 
HETATM   37  C   UNL     1      44.053 -20.163   4.034  1.00  0.00     0.034 C 
ENDBRANCH  35  36
ENDBRANCH  32  35
ENDBRANCH   1  29
BRANCH   6  38
HETATM   38  N   UNL     1      40.945 -13.343  -0.537  1.00  0.00    -0.384 N 
HETATM   39  H   UNL     1      41.337 -13.111  -1.438  1.00  0.00     0.157 HD
HETATM   40  H   UNL     1      40.316 -14.135  -0.476  1.00  0.00     0.157 HD
ENDBRANCH   6  38
TORSDOF 11
ENDMDL
MODEL 9
REMARK VINA RESULT:      -8.0      1.667      2.503
REMARK  11 active torsions:
REMARK  status: ('A' for Active; 'I' for Inactive)
REMARK    1  A    between atoms: C_2  and  O_3 
REMARK    2  A    between atoms: O_3  and  C_4 
REMARK    3  A    between atoms: C_7  and  N_8 
REMARK    4  A    between atoms: C_9  and  S_10 
REMARK    5  A    between atoms: S_10  and  C_11 
REMARK    6  A    between atoms: C_11  and  C_12 
REMARK       I    between atoms: C_12  and  N_13 
REMARK    7  A    between atoms: N_13  and  C_14 
REMARK    8  A    between atoms: C_15  and  C_16 
REMARK    9  A    between atoms: C_16  and  O_17 
REMARK   10  A    between atoms: O_17  and  C_18 
REMARK   11  A    between atoms: C_29  and  N_30 
ROOT
HETATM    1  N   UNL     1      42.487 -14.652   4.405  1.00  0.00    -0.276 N 
HETATM    2  C   UNL     1      42.443 -14.110   5.717  1.00  0.00     0.177 C 
HETATM    3  N   UNL     1      42.625 -14.780   6.824  1.00  0.00    -0.204 NA
HETATM    4  C   UNL     1      42.941 -16.079   6.644  1.00  0.00     0.162 A 
HETATM    5  C   UNL     1      43.162 -16.756   5.479  1.00  0.00     0.081 A 
HETATM    6  C   UNL     1      42.943 -16.034   4.263  1.00  0.00     0.124 C 
HETATM    7  N   UNL     1      43.196 -16.974   7.642  1.00  0.00    -0.260 N 
HETATM    8  H   UNL     1      43.149 -16.820   8.645  1.00  0.00     0.191 HD
HETATM    9  N   UNL     1      43.603 -18.175   7.171  1.00  0.00    -0.177 NA
HETATM   10  C   UNL     1      43.580 -18.045   5.835  1.00  0.00     0.068 A 
HETATM   11  C   UNL     1      43.990 -19.185   4.984  1.00  0.00     0.073 C 
ENDROOT
BRANCH   2  12
HETATM   12  S   UNL     1      42.323 -12.354   5.945  1.00  0.00    -0.082 SA
BRANCH  12  13
HETATM   13  C   UNL     1      44.032 -11.841   6.285  1.00  0.00     0.185 C 
BRANCH  13  14
HETATM   14  C   UNL     1      44.285 -10.933   7.489  1.00  0.00     0.231 C 
HETATM   15  N   UNL     1      43.235 -10.756   8.379  1.00  0.00    -0.326 N 
HETATM   16  H   UNL     1      42.333 -10.966   7.976  1.00  0.00     0.169 HD
HETATM   17  O   UNL     1      45.377 -10.371   7.599  1.00  0.00    -0.272 OA
BRANCH  15  18
HETATM   18  C   UNL     1      43.262  -9.740   9.368  1.00  0.00     0.051 A 
HETATM   19  C   UNL     1      42.737  -8.447   9.203  1.00  0.00     0.066 A 
HETATM   20  C   UNL     1      42.657  -7.587  10.315  1.00  0.00     0.020 A 
HETATM   21  C   UNL     1      43.121  -7.994  11.566  1.00  0.00     0.001 A 
HETATM   22  C   UNL     1      43.717  -9.243  11.708  1.00  0.00     0.002 A 
HETATM   23  C   UNL     1      43.805 -10.102  10.611  1.00  0.00     0.030 A 
BRANCH  19  24
HETATM   24  C   UNL     1      42.460  -7.892   7.850  1.00  0.00     0.295 C 
HETATM   25  O   UNL     1      42.853  -6.798   7.473  1.00  0.00    -0.259 OA
BRANCH  24  26
HETATM   26  O   UNL     1      41.629  -8.723   7.169  1.00  0.00    -0.318 OA
BRANCH  26  27
HETATM   27  C   UNL     1      40.230  -8.546   7.429  1.00  0.00     0.174 C 
HETATM   28  C   UNL     1      39.616  -9.806   8.009  1.00  0.00     0.034 C 
ENDBRANCH  26  27
ENDBRANCH  24  26
ENDBRANCH  19  24
ENDBRANCH  15  18
ENDBRANCH  13  14
ENDBRANCH  12  13
ENDBRANCH   2  12
BRANCH   1  29
HETATM   29  C   UNL     1      41.753 -14.062   3.327  1.00  0.00     0.043 A 
HETATM   30  C   UNL     1      42.377 -13.387   2.275  1.00  0.00     0.033 A 
HETATM   31  C   UNL     1      41.626 -12.941   1.180  1.00  0.00     0.039 A 
HETATM   32  C   UNL     1      40.255 -13.198   1.102  1.00  0.00     0.068 A 
HETATM   33  C   UNL     1      39.617 -13.840   2.159  1.00  0.00     0.039 A 
HETATM   34  C   UNL     1      40.361 -14.266   3.261  1.00  0.00     0.033 A 
BRANCH  32  35
HETATM   35  O   UNL     1      39.628 -12.756  -0.029  1.00  0.00    -0.352 OA
BRANCH  35  36
HETATM   36  C   UNL     1      40.081 -13.352  -1.248  1.00  0.00     0.171 C 
HETATM   37  C   UNL     1      39.205 -14.556  -1.542  1.00  0.00     0.034 C 
ENDBRANCH  35  36
ENDBRANCH  32  35
ENDBRANCH   1  29
BRANCH   6  38
HETATM   38  N   UNL     1      43.151 -16.589   3.085  1.00  0.00    -0.384 N 
HETATM   39  H   UNL     1      42.539 -16.428   2.300  1.00  0.00     0.157 HD
HETATM   40  H   UNL     1      43.935 -17.220   2.962  1.00  0.00     0.157 HD
ENDBRANCH   6  38
TORSDOF 11
ENDMDL
MODEL 10
REMARK VINA RESULT:      -8.0      2.139      3.649
REMARK  11 active torsions:
REMARK  status: ('A' for Active; 'I' for Inactive)
REMARK    1  A    between atoms: C_2  and  O_3 
REMARK    2  A    between atoms: O_3  and  C_4 
REMARK    3  A    between atoms: C_7  and  N_8 
REMARK    4  A    between atoms: C_9  and  S_10 
REMARK    5  A    between atoms: S_10  and  C_11 
REMARK    6  A    between atoms: C_11  and  C_12 
REMARK       I    between atoms: C_12  and  N_13 
REMARK    7  A    between atoms: N_13  and  C_14 
REMARK    8  A    between atoms: C_15  and  C_16 
REMARK    9  A    between atoms: C_16  and  O_17 
REMARK   10  A    between atoms: O_17  and  C_18 
REMARK   11  A    between atoms: C_29  and  N_30 
ROOT
HETATM    1  N   UNL     1      42.990 -16.600   3.990  1.00  0.00    -0.276 N 
HETATM    2  C   UNL     1      43.115 -16.524   5.403  1.00  0.00     0.177 C 
HETATM    3  N   UNL     1      43.352 -17.531   6.201  1.00  0.00    -0.204 NA
HETATM    4  C   UNL     1      43.548 -18.708   5.572  1.00  0.00     0.162 A 
HETATM    5  C   UNL     1      43.602 -18.967   4.232  1.00  0.00     0.081 A 
HETATM    6  C   UNL     1      43.322 -17.873   3.353  1.00  0.00     0.124 C 
HETATM    7  N   UNL     1      43.829 -19.893   6.186  1.00  0.00    -0.260 N 
HETATM    8  H   UNL     1      43.892 -20.080   7.182  1.00  0.00     0.191 HD
HETATM    9  N   UNL     1      44.094 -20.885   5.305  1.00  0.00    -0.177 NA
HETATM   10  C   UNL     1      43.952 -20.317   4.096  1.00  0.00     0.068 A 
HETATM   11  C   UNL     1      44.188 -21.124   2.878  1.00  0.00     0.073 C 
ENDROOT
BRANCH   2  12
HETATM   12  S   UNL     1      43.153 -14.941   6.203  1.00  0.00    -0.082 SA
BRANCH  12  13
HETATM   13  C   UNL     1      41.406 -14.589   6.556  1.00  0.00     0.185 C 
BRANCH  13  14
HETATM   14  C   UNL     1      40.808 -13.293   6.010  1.00  0.00     0.231 C 
HETATM   15  N   UNL     1      41.630 -12.499   5.222  1.00  0.00    -0.326 N 
HETATM   16  H   UNL     1      42.614 -12.684   5.363  1.00  0.00     0.169 HD
HETATM   17  O   UNL     1      39.654 -12.987   6.318  1.00  0.00    -0.272 OA
BRANCH  15  18
HETATM   18  C   UNL     1      41.280 -11.166   4.890  1.00  0.00     0.051 A 
HETATM   19  C   UNL     1      41.643 -10.032   5.637  1.00  0.00     0.066 A 
HETATM   20  C   UNL     1      41.396  -8.750   5.110  1.00  0.00     0.020 A 
HETATM   21  C   UNL     1      40.769  -8.596   3.873  1.00  0.00     0.001 A 
HETATM   22  C   UNL     1      40.337  -9.719   3.174  1.00  0.00     0.002 A 
HETATM   23  C   UNL     1      40.572 -10.994   3.689  1.00  0.00     0.030 A 
BRANCH  19  24
HETATM   24  C   UNL     1      42.086 -10.149   7.052  1.00  0.00     0.295 C 
HETATM   25  O   UNL     1      41.674  -9.434   7.953  1.00  0.00    -0.259 OA
BRANCH  24  26
HETATM   26  O   UNL     1      43.077 -11.073   7.154  1.00  0.00    -0.318 OA
BRANCH  26  27
HETATM   27  C   UNL     1      44.413 -10.556   7.083  1.00  0.00     0.174 C 
HETATM   28  C   UNL     1      45.367 -11.579   6.498  1.00  0.00     0.034 C 
ENDBRANCH  26  27
ENDBRANCH  24  26
ENDBRANCH  19  24
ENDBRANCH  15  18
ENDBRANCH  13  14
ENDBRANCH  12  13
ENDBRANCH   2  12
BRANCH   1  29
HETATM   29  C   UNL     1      42.202 -15.656   3.258  1.00  0.00     0.043 A 
HETATM   30  C   UNL     1      42.772 -14.644   2.480  1.00  0.00     0.033 A 
HETATM   31  C   UNL     1      41.962 -13.828   1.681  1.00  0.00     0.039 A 
HETATM   32  C   UNL     1      40.582 -14.035   1.616  1.00  0.00     0.068 A 
HETATM   33  C   UNL     1      39.999 -15.017   2.411  1.00  0.00     0.039 A 
HETATM   34  C   UNL     1      40.803 -15.818   3.225  1.00  0.00     0.033 A 
BRANCH  32  35
HETATM   35  O   UNL     1      39.894 -13.210   0.773  1.00  0.00    -0.352 OA
BRANCH  35  36
HETATM   36  C   UNL     1      40.024 -13.515  -0.619  1.00  0.00     0.171 C 
HETATM   37  C   UNL     1      38.766 -13.050  -1.328  1.00  0.00     0.034 C 
ENDBRANCH  35  36
ENDBRANCH  32  35
ENDBRANCH   1  29
BRANCH   6  38
HETATM   38  N   UNL     1      43.371 -18.012   2.042  1.00  0.00    -0.384 N 
HETATM   39  H   UNL     1      44.232 -17.923   1.524  1.00  0.00     0.157 HD
HETATM   40  H   UNL     1      42.516 -18.190   1.528  1.00  0.00     0.157 HD
ENDBRANCH   6  38
TORSDOF 11
ENDMDL
