MODEL 1
REMARK VINA RESULT:      -8.7      0.000      0.000
REMARK  8 active torsions:
REMARK  status: ('A' for Active; 'I' for Inactive)
REMARK    1  A    between atoms: C_3  and  C_4 
REMARK    2  A    between atoms: C_4  and  C_5 
REMARK       I    between atoms: C_5  and  N_6 
REMARK    3  A    between atoms: N_6  and  C_7 
REMARK    4  A    between atoms: C_14  and  N_15 
REMARK       I    between atoms: N_15  and  C_16 
REMARK    5  A    between atoms: C_16  and  C_17 
REMARK    6  A    between atoms: C_26  and  C_27 
REMARK    7  A    between atoms: C_27  and  O_28 
REMARK    8  A    between atoms: C_30  and  O_31 
ROOT
HETATM    1  C   UNL     1      43.560 -18.476   6.401  1.00  0.00     0.216 C 
HETATM    2  C   UNL     1      43.803 -19.708   5.643  1.00  0.00    -0.098 C 
HETATM    3  C   UNL     1      44.004 -20.722   5.033  1.00  0.00     0.014 C 
ENDROOT
BRANCH   1   4
HETATM    4  N   UNL     1      42.821 -17.527   5.610  1.00  0.00    -0.351 N 
HETATM    5  C   UNL     1      42.145 -16.476   6.166  1.00  0.00     0.219 C 
HETATM    6  O   UNL     1      42.129 -16.233   7.370  1.00  0.00    -0.274 OA
HETATM    7  H   UNL     1      42.602 -17.803   4.650  1.00  0.00     0.163 HD
BRANCH   5   8
HETATM    8  C   UNL     1      41.425 -15.578   5.173  1.00  0.00     0.114 C 
BRANCH   8   9
HETATM    9  C   UNL     1      42.407 -14.819   4.255  1.00  0.00     0.056 C 
HETATM   10  C   UNL     1      42.184 -14.912   2.660  1.00  0.00    -0.030 C 
HETATM   11  C   UNL     1      43.614 -15.192   2.075  1.00  0.00     0.016 C 
HETATM   12  C   UNL     1      41.657 -13.578   1.956  1.00  0.00     0.012 C 
HETATM   13  C   UNL     1      41.325 -16.118   2.190  1.00  0.00     0.013 C 
HETATM   14  C   UNL     1      42.481 -12.335   2.380  1.00  0.00     0.055 C 
HETATM   15  C   UNL     1      40.085 -13.364   1.964  1.00  0.00     0.008 C 
HETATM   16  C   UNL     1      42.627 -12.295   3.854  1.00  0.00     0.012 A 
HETATM   17  C   UNL     1      42.570 -13.380   4.702  1.00  0.00     0.056 A 
HETATM   18  S   UNL     1      42.870 -10.855   4.730  1.00  0.00    -0.055 SA
HETATM   19  N   UNL     1      42.628 -13.053   6.046  1.00  0.00    -0.227 NA
HETATM   20  C   UNL     1      42.777 -11.759   6.175  1.00  0.00     0.174 A 
HETATM   21  C   UNL     1      39.712 -12.201   0.998  1.00  0.00     0.020 C 
HETATM   22  C   UNL     1      39.396 -14.655   1.436  1.00  0.00     0.128 C 
HETATM   23  C   UNL     1      39.813 -15.897   2.218  1.00  0.00     0.033 C 
BRANCH  20  24
HETATM   24  N   UNL     1      42.835 -10.999   7.302  1.00  0.00    -0.301 N 
HETATM   25  C   UNL     1      43.946 -10.944   8.112  1.00  0.00     0.264 C 
HETATM   26  O   UNL     1      45.000 -11.535   7.886  1.00  0.00    -0.267 OA
HETATM   27  H   UNL     1      41.994 -10.515   7.579  1.00  0.00     0.171 HD
BRANCH  25  28
HETATM   28  C   UNL     1      43.769 -10.135   9.319  1.00  0.00     0.072 A 
HETATM   29  S   UNL     1      42.365  -9.182   9.593  1.00  0.00    -0.097 SA
HETATM   30  C   UNL     1      42.933  -8.651  11.114  1.00  0.00     0.050 A 
HETATM   31  C   UNL     1      44.169  -9.177  11.416  1.00  0.00     0.009 A 
HETATM   32  C   UNL     1      44.651 -10.029  10.380  1.00  0.00     0.025 A 
ENDBRANCH  25  28
ENDBRANCH  20  24
BRANCH  15  33
HETATM   33  C   UNL     1      39.512 -12.992   3.352  1.00  0.00     0.176 C 
BRANCH  33  34
HETATM   34  O   UNL     1      39.144 -11.616   3.398  1.00  0.00    -0.400 OA
HETATM   35  H   UNL     1      38.245 -11.575   3.769  1.00  0.00     0.209 HD
ENDBRANCH  33  34
ENDBRANCH  15  33
BRANCH  22  36
HETATM   36  O   UNL     1      39.737 -14.883   0.063  1.00  0.00    -0.395 OA
HETATM   37  H   UNL     1      39.080 -14.409  -0.476  1.00  0.00     0.210 HD
ENDBRANCH  22  36
ENDBRANCH   8   9
ENDBRANCH   5   8
ENDBRANCH   1   4
TORSDOF 8
ENDMDL
MODEL 2
REMARK VINA RESULT:      -7.9      3.209      7.497
REMARK  8 active torsions:
REMARK  status: ('A' for Active; 'I' for Inactive)
REMARK    1  A    between atoms: C_3  and  C_4 
REMARK    2  A    between atoms: C_4  and  C_5 
REMARK       I    between atoms: C_5  and  N_6 
REMARK    3  A    between atoms: N_6  and  C_7 
REMARK    4  A    between atoms: C_14  and  N_15 
REMARK       I    between atoms: N_15  and  C_16 
REMARK    5  A    between atoms: C_16  and  C_17 
REMARK    6  A    between atoms: C_26  and  C_27 
REMARK    7  A    between atoms: C_27  and  O_28 
REMARK    8  A    between atoms: C_30  and  O_31 
ROOT
HETATM    1  C   UNL     1      43.949 -19.259   3.695  1.00  0.00     0.216 C 
HETATM    2  C   UNL     1      43.702 -19.984   2.444  1.00  0.00    -0.098 C 
HETATM    3  C   UNL     1      43.500 -20.588   1.427  1.00  0.00     0.014 C 
ENDROOT
BRANCH   1   4
HETATM    4  N   UNL     1      43.528 -17.888   3.583  1.00  0.00    -0.351 N 
HETATM    5  C   UNL     1      43.957 -16.915   4.443  1.00  0.00     0.219 C 
HETATM    6  O   UNL     1      44.749 -17.113   5.361  1.00  0.00    -0.274 OA
HETATM    7  H   UNL     1      42.704 -17.708   3.005  1.00  0.00     0.163 HD
BRANCH   5   8
HETATM    8  C   UNL     1      43.407 -15.525   4.167  1.00  0.00     0.114 C 
BRANCH   8   9
HETATM    9  C   UNL     1      42.080 -15.264   4.911  1.00  0.00     0.056 C 
HETATM   10  C   UNL     1      42.141 -14.508   6.335  1.00  0.00    -0.030 C 
HETATM   11  C   UNL     1      41.200 -15.346   7.271  1.00  0.00     0.016 C 
HETATM   12  C   UNL     1      41.582 -13.011   6.348  1.00  0.00     0.012 C 
HETATM   13  C   UNL     1      43.527 -14.547   7.036  1.00  0.00     0.013 C 
HETATM   14  C   UNL     1      40.193 -12.906   5.666  1.00  0.00     0.055 C 
HETATM   15  C   UNL     1      42.612 -11.882   5.925  1.00  0.00     0.008 C 
HETATM   16  C   UNL     1      40.211 -13.597   4.356  1.00  0.00     0.012 A 
HETATM   17  C   UNL     1      41.056 -14.624   3.995  1.00  0.00     0.056 A 
HETATM   18  S   UNL     1      39.172 -13.189   3.070  1.00  0.00    -0.055 SA
HETATM   19  N   UNL     1      40.937 -15.019   2.673  1.00  0.00    -0.227 NA
HETATM   20  C   UNL     1      39.987 -14.329   2.095  1.00  0.00     0.174 A 
HETATM   21  C   UNL     1      42.024 -10.483   6.271  1.00  0.00     0.020 C 
HETATM   22  C   UNL     1      43.922 -12.059   6.747  1.00  0.00     0.128 C 
HETATM   23  C   UNL     1      44.511 -13.459   6.605  1.00  0.00     0.033 C 
BRANCH  20  24
HETATM   24  N   UNL     1      39.560 -14.350   0.803  1.00  0.00    -0.301 N 
HETATM   25  C   UNL     1      39.970 -13.432  -0.136  1.00  0.00     0.264 C 
HETATM   26  O   UNL     1      40.781 -12.534   0.079  1.00  0.00    -0.267 OA
HETATM   27  H   UNL     1      38.860 -15.033   0.557  1.00  0.00     0.171 HD
BRANCH  25  28
HETATM   28  C   UNL     1      39.325 -13.581  -1.442  1.00  0.00     0.072 A 
HETATM   29  S   UNL     1      39.000 -15.117  -2.140  1.00  0.00    -0.097 SA
HETATM   30  C   UNL     1      38.272 -14.418  -3.518  1.00  0.00     0.050 A 
HETATM   31  C   UNL     1      38.275 -13.043  -3.462  1.00  0.00     0.009 A 
HETATM   32  C   UNL     1      38.885 -12.561  -2.268  1.00  0.00     0.025 A 
ENDBRANCH  25  28
ENDBRANCH  20  24
BRANCH  15  33
HETATM   33  C   UNL     1      42.939 -11.867   4.413  1.00  0.00     0.176 C 
BRANCH  33  34
HETATM   34  O   UNL     1      44.093 -11.073   4.150  1.00  0.00    -0.400 OA
HETATM   35  H   UNL     1      44.863 -11.578   4.468  1.00  0.00     0.209 HD
ENDBRANCH  33  34
ENDBRANCH  15  33
BRANCH  22  36
HETATM   36  O   UNL     1      43.676 -11.840   8.141  1.00  0.00    -0.395 OA
HETATM   37  H   UNL     1      43.736 -10.881   8.294  1.00  0.00     0.210 HD
ENDBRANCH  22  36
ENDBRANCH   8   9
ENDBRANCH   5   8
ENDBRANCH   1   4
TORSDOF 8
ENDMDL
MODEL 3
REMARK VINA RESULT:      -7.7      3.075      7.401
REMARK  8 active torsions:
REMARK  status: ('A' for Active; 'I' for Inactive)
REMARK    1  A    between atoms: C_3  and  C_4 
REMARK    2  A    between atoms: C_4  and  C_5 
REMARK       I    between atoms: C_5  and  N_6 
REMARK    3  A    between atoms: N_6  and  C_7 
REMARK    4  A    between atoms: C_14  and  N_15 
REMARK       I    between atoms: N_15  and  C_16 
REMARK    5  A    between atoms: C_16  and  C_17 
REMARK    6  A    between atoms: C_26  and  C_27 
REMARK    7  A    between atoms: C_27  and  O_28 
REMARK    8  A    between atoms: C_30  and  O_31 
ROOT
HETATM    1  C   UNL     1      43.670 -10.733   6.649  1.00  0.00     0.216 C 
HETATM    2  C   UNL     1      42.780  -9.956   7.517  1.00  0.00    -0.098 C 
HETATM    3  C   UNL     1      42.061  -9.317   8.236  1.00  0.00     0.014 C 
ENDROOT
BRANCH   1   4
HETATM    4  N   UNL     1      43.025 -11.040   5.400  1.00  0.00    -0.351 N 
HETATM    5  C   UNL     1      43.726 -11.276   4.249  1.00  0.00     0.219 C 
HETATM    6  O   UNL     1      44.953 -11.273   4.182  1.00  0.00    -0.274 OA
HETATM    7  H   UNL     1      42.028 -10.826   5.335  1.00  0.00     0.163 HD
BRANCH   5   8
HETATM    8  C   UNL     1      42.874 -11.586   3.030  1.00  0.00     0.114 C 
BRANCH   8   9
HETATM    9  C   UNL     1      41.405 -11.878   3.404  1.00  0.00     0.056 C 
HETATM   10  C   UNL     1      40.255 -10.956   2.750  1.00  0.00    -0.030 C 
HETATM   11  C   UNL     1      39.311 -10.588   3.949  1.00  0.00     0.016 C 
HETATM   12  C   UNL     1      39.339 -11.668   1.651  1.00  0.00     0.012 C 
HETATM   13  C   UNL     1      40.746  -9.587   2.204  1.00  0.00     0.013 C 
HETATM   14  C   UNL     1      38.809 -13.041   2.140  1.00  0.00     0.055 C 
HETATM   15  C   UNL     1      39.906 -11.668   0.170  1.00  0.00     0.008 C 
HETATM   16  C   UNL     1      39.916 -13.846   2.705  1.00  0.00     0.012 A 
HETATM   17  C   UNL     1      41.083 -13.351   3.244  1.00  0.00     0.056 A 
HETATM   18  S   UNL     1      39.906 -15.549   2.746  1.00  0.00    -0.055 SA
HETATM   19  N   UNL     1      42.001 -14.324   3.602  1.00  0.00    -0.227 NA
HETATM   20  C   UNL     1      41.492 -15.508   3.377  1.00  0.00     0.174 A 
HETATM   21  C   UNL     1      38.789 -12.119  -0.817  1.00  0.00     0.020 C 
HETATM   22  C   UNL     1      40.317 -10.217  -0.214  1.00  0.00     0.128 C 
HETATM   23  C   UNL     1      41.302  -9.611   0.780  1.00  0.00     0.033 C 
BRANCH  20  24
HETATM   24  N   UNL     1      42.050 -16.739   3.536  1.00  0.00    -0.301 N 
HETATM   25  C   UNL     1      43.021 -17.235   2.696  1.00  0.00     0.264 C 
HETATM   26  O   UNL     1      43.506 -16.614   1.753  1.00  0.00    -0.267 OA
HETATM   27  H   UNL     1      41.676 -17.328   4.264  1.00  0.00     0.171 HD
BRANCH  25  28
HETATM   28  C   UNL     1      43.424 -18.611   2.991  1.00  0.00     0.072 A 
HETATM   29  S   UNL     1      44.062 -19.079   4.516  1.00  0.00    -0.097 SA
HETATM   30  C   UNL     1      44.213 -20.711   4.036  1.00  0.00     0.050 A 
HETATM   31  C   UNL     1      43.793 -20.908   2.739  1.00  0.00     0.009 A 
HETATM   32  C   UNL     1      43.342 -19.697   2.137  1.00  0.00     0.025 A 
ENDBRANCH  25  28
ENDBRANCH  20  24
BRANCH  15  33
HETATM   33  C   UNL     1      41.101 -12.627  -0.042  1.00  0.00     0.176 C 
BRANCH  33  34
HETATM   34  O   UNL     1      40.707 -13.772  -0.793  1.00  0.00    -0.400 OA
HETATM   35  H   UNL     1      41.510 -14.126  -1.215  1.00  0.00     0.209 HD
ENDBRANCH  33  34
ENDBRANCH  15  33
BRANCH  22  36
HETATM   36  O   UNL     1      39.169  -9.361  -0.252  1.00  0.00    -0.395 OA
HETATM   37  H   UNL     1      39.392  -8.563   0.256  1.00  0.00     0.210 HD
ENDBRANCH  22  36
ENDBRANCH   8   9
ENDBRANCH   5   8
ENDBRANCH   1   4
TORSDOF 8
ENDMDL
MODEL 4
REMARK VINA RESULT:      -7.6      2.541      2.645
REMARK  8 active torsions:
REMARK  status: ('A' for Active; 'I' for Inactive)
REMARK    1  A    between atoms: C_3  and  C_4 
REMARK    2  A    between atoms: C_4  and  C_5 
REMARK       I    between atoms: C_5  and  N_6 
REMARK    3  A    between atoms: N_6  and  C_7 
REMARK    4  A    between atoms: C_14  and  N_15 
REMARK       I    between atoms: N_15  and  C_16 
REMARK    5  A    between atoms: C_16  and  C_17 
REMARK    6  A    between atoms: C_26  and  C_27 
REMARK    7  A    between atoms: C_27  and  O_28 
REMARK    8  A    between atoms: C_30  and  O_31 
ROOT
HETATM    1  C   UNL     1      43.458 -17.560   5.045  1.00  0.00     0.216 C 
HETATM    2  C   UNL     1      43.815 -18.475   3.956  1.00  0.00    -0.098 C 
HETATM    3  C   UNL     1      44.110 -19.233   3.073  1.00  0.00     0.014 C 
ENDROOT
BRANCH   1   4
HETATM    4  N   UNL     1      42.716 -16.434   4.544  1.00  0.00    -0.351 N 
HETATM    5  C   UNL     1      41.465 -16.118   4.998  1.00  0.00     0.219 C 
HETATM    6  O   UNL     1      40.880 -16.740   5.881  1.00  0.00    -0.274 OA
HETATM    7  H   UNL     1      43.037 -16.030   3.661  1.00  0.00     0.163 HD
BRANCH   5   8
HETATM    8  C   UNL     1      40.837 -14.893   4.352  1.00  0.00     0.114 C 
BRANCH   8   9
HETATM    9  C   UNL     1      41.898 -13.925   3.786  1.00  0.00     0.056 C 
HETATM   10  C   UNL     1      42.129 -13.899   2.189  1.00  0.00    -0.030 C 
HETATM   11  C   UNL     1      43.688 -13.927   2.013  1.00  0.00     0.016 C 
HETATM   12  C   UNL     1      41.608 -12.590   1.436  1.00  0.00     0.012 C 
HETATM   13  C   UNL     1      41.627 -15.162   1.436  1.00  0.00     0.013 C 
HETATM   14  C   UNL     1      42.083 -11.291   2.138  1.00  0.00     0.055 C 
HETATM   15  C   UNL     1      40.078 -12.593   1.017  1.00  0.00     0.008 C 
HETATM   16  C   UNL     1      41.820 -11.369   3.593  1.00  0.00     0.012 A 
HETATM   17  C   UNL     1      41.708 -12.525   4.334  1.00  0.00     0.056 A 
HETATM   18  S   UNL     1      41.591  -9.997   4.576  1.00  0.00    -0.055 SA
HETATM   19  N   UNL     1      41.352 -12.320   5.656  1.00  0.00    -0.227 NA
HETATM   20  C   UNL     1      41.256 -11.036   5.889  1.00  0.00     0.174 A 
HETATM   21  C   UNL     1      39.801 -11.407   0.047  1.00  0.00     0.020 C 
HETATM   22  C   UNL     1      39.767 -13.911   0.250  1.00  0.00     0.128 C 
HETATM   23  C   UNL     1      40.148 -15.152   1.053  1.00  0.00     0.033 C 
BRANCH  20  24
HETATM   24  N   UNL     1      40.890 -10.383   7.025  1.00  0.00    -0.301 N 
HETATM   25  C   UNL     1      39.582 -10.073   7.322  1.00  0.00     0.264 C 
HETATM   26  O   UNL     1      38.620 -10.382   6.623  1.00  0.00    -0.267 OA
HETATM   27  H   UNL     1      41.627 -10.058   7.632  1.00  0.00     0.171 HD
BRANCH  25  28
HETATM   28  C   UNL     1      39.415  -9.293   8.549  1.00  0.00     0.072 A 
HETATM   29  S   UNL     1      39.144  -7.596   8.535  1.00  0.00    -0.097 SA
HETATM   30  C   UNL     1      39.040  -7.524  10.238  1.00  0.00     0.050 A 
HETATM   31  C   UNL     1      39.213  -8.760  10.818  1.00  0.00     0.009 A 
HETATM   32  C   UNL     1      39.432  -9.778   9.845  1.00  0.00     0.025 A 
ENDBRANCH  25  28
ENDBRANCH  20  24
BRANCH  15  33
HETATM   33  C   UNL     1      39.103 -12.434   2.207  1.00  0.00     0.176 C 
BRANCH  33  34
HETATM   34  O   UNL     1      37.777 -12.188   1.747  1.00  0.00    -0.400 OA
HETATM   35  H   UNL     1      37.669 -11.221   1.693  1.00  0.00     0.209 HD
ENDBRANCH  33  34
ENDBRANCH  15  33
BRANCH  22  36
HETATM   36  O   UNL     1      40.495 -13.962  -0.983  1.00  0.00    -0.395 OA
HETATM   37  H   UNL     1      41.432 -13.815  -0.767  1.00  0.00     0.210 HD
ENDBRANCH  22  36
ENDBRANCH   8   9
ENDBRANCH   5   8
ENDBRANCH   1   4
TORSDOF 8
ENDMDL
MODEL 5
REMARK VINA RESULT:      -7.4      3.336      7.534
REMARK  8 active torsions:
REMARK  status: ('A' for Active; 'I' for Inactive)
REMARK    1  A    between atoms: C_3  and  C_4 
REMARK    2  A    between atoms: C_4  and  C_5 
REMARK       I    between atoms: C_5  and  N_6 
REMARK    3  A    between atoms: N_6  and  C_7 
REMARK    4  A    between atoms: C_14  and  N_15 
REMARK       I    between atoms: N_15  and  C_16 
REMARK    5  A    between atoms: C_16  and  C_17 
REMARK    6  A    between atoms: C_26  and  C_27 
REMARK    7  A    between atoms: C_27  and  O_28 
REMARK    8  A    between atoms: C_30  and  O_31 
ROOT
HETATM    1  C   UNL     1      40.286 -13.327  -2.071  1.00  0.00     0.216 C 
HETATM    2  C   UNL     1      39.347 -14.319  -2.606  1.00  0.00    -0.098 C 
HETATM    3  C   UNL     1      38.583 -15.129  -3.056  1.00  0.00     0.014 C 
ENDROOT
BRANCH   1   4
HETATM    4  N   UNL     1      40.371 -13.426  -0.638  1.00  0.00    -0.351 N 
HETATM    5  C   UNL     1      39.431 -12.881   0.193  1.00  0.00     0.219 C 
HETATM    6  O   UNL     1      38.429 -12.289  -0.201  1.00  0.00    -0.274 OA
HETATM    7  H   UNL     1      41.279 -13.689  -0.250  1.00  0.00     0.163 HD
BRANCH   5   8
HETATM    8  C   UNL     1      39.688 -13.088   1.677  1.00  0.00     0.114 C 
BRANCH   8   9
HETATM    9  C   UNL     1      40.959 -12.355   2.157  1.00  0.00     0.056 C 
HETATM   10  C   UNL     1      40.804 -10.850   2.716  1.00  0.00    -0.030 C 
HETATM   11  C   UNL     1      41.962 -10.048   2.023  1.00  0.00     0.016 C 
HETATM   12  C   UNL     1      41.005 -10.673   4.291  1.00  0.00     0.012 C 
HETATM   13  C   UNL     1      39.505 -10.120   2.276  1.00  0.00     0.013 C 
HETATM   14  C   UNL     1      42.294 -11.375   4.793  1.00  0.00     0.055 C 
HETATM   15  C   UNL     1      39.722 -10.927   5.188  1.00  0.00     0.008 C 
HETATM   16  C   UNL     1      42.362 -12.758   4.266  1.00  0.00     0.012 A 
HETATM   17  C   UNL     1      41.756 -13.216   3.116  1.00  0.00     0.056 A 
HETATM   18  S   UNL     1      43.208 -14.014   5.045  1.00  0.00    -0.055 SA
HETATM   19  N   UNL     1      41.889 -14.578   2.909  1.00  0.00    -0.227 NA
HETATM   20  C   UNL     1      42.623 -15.096   3.861  1.00  0.00     0.174 A 
HETATM   21  C   UNL     1      39.992 -10.432   6.638  1.00  0.00     0.020 C 
HETATM   22  C   UNL     1      38.535 -10.096   4.619  1.00  0.00     0.128 C 
HETATM   23  C   UNL     1      38.276 -10.389   3.144  1.00  0.00     0.033 C 
BRANCH  20  24
HETATM   24  N   UNL     1      42.972 -16.392   4.083  1.00  0.00    -0.301 N 
HETATM   25  C   UNL     1      43.394 -17.236   3.081  1.00  0.00     0.264 C 
HETATM   26  O   UNL     1      43.537 -16.903   1.907  1.00  0.00    -0.267 OA
HETATM   27  H   UNL     1      42.843 -16.754   5.016  1.00  0.00     0.171 HD
BRANCH  25  28
HETATM   28  C   UNL     1      43.636 -18.612   3.519  1.00  0.00     0.072 A 
HETATM   29  S   UNL     1      43.538 -19.952   2.447  1.00  0.00    -0.097 SA
HETATM   30  C   UNL     1      43.962 -21.060   3.676  1.00  0.00     0.050 A 
HETATM   31  C   UNL     1      44.170 -20.435   4.885  1.00  0.00     0.009 A 
HETATM   32  C   UNL     1      43.980 -19.025   4.794  1.00  0.00     0.025 A 
ENDBRANCH  25  28
ENDBRANCH  20  24
BRANCH  15  33
HETATM   33  C   UNL     1      39.318 -12.417   5.293  1.00  0.00     0.176 C 
BRANCH  33  34
HETATM   34  O   UNL     1      39.634 -12.939   6.580  1.00  0.00    -0.400 OA
HETATM   35  H   UNL     1      40.137 -12.251   7.051  1.00  0.00     0.209 HD
ENDBRANCH  33  34
ENDBRANCH  15  33
BRANCH  22  36
HETATM   36  O   UNL     1      38.801  -8.693   4.734  1.00  0.00    -0.395 OA
HETATM   37  H   UNL     1      38.997  -8.366   3.840  1.00  0.00     0.210 HD
ENDBRANCH  22  36
ENDBRANCH   8   9
ENDBRANCH   5   8
ENDBRANCH   1   4
TORSDOF 8
ENDMDL
MODEL 6
REMARK VINA RESULT:      -7.4      3.739      7.430
REMARK  8 active torsions:
REMARK  status: ('A' for Active; 'I' for Inactive)
REMARK    1  A    between atoms: C_3  and  C_4 
REMARK    2  A    between atoms: C_4  and  C_5 
REMARK       I    between atoms: C_5  and  N_6 
REMARK    3  A    between atoms: N_6  and  C_7 
REMARK    4  A    between atoms: C_14  and  N_15 
REMARK       I    between atoms: N_15  and  C_16 
REMARK    5  A    between atoms: C_16  and  C_17 
REMARK    6  A    between atoms: C_26  and  C_27 
REMARK    7  A    between atoms: C_27  and  O_28 
REMARK    8  A    between atoms: C_30  and  O_31 
ROOT
HETATM    1  C   UNL     1      43.117 -11.030   5.257  1.00  0.00     0.216 C 
HETATM    2  C   UNL     1      43.078 -12.400   5.779  1.00  0.00    -0.098 C 
HETATM    3  C   UNL     1      43.045 -13.517   6.219  1.00  0.00     0.014 C 
ENDROOT
BRANCH   1   4
HETATM    4  N   UNL     1      42.732 -11.001   3.871  1.00  0.00    -0.351 N 
HETATM    5  C   UNL     1      41.734 -10.190   3.403  1.00  0.00     0.219 C 
HETATM    6  O   UNL     1      41.103  -9.406   4.106  1.00  0.00    -0.274 OA
HETATM    7  H   UNL     1      43.045 -11.783   3.292  1.00  0.00     0.163 HD
BRANCH   5   8
HETATM    8  C   UNL     1      41.470 -10.294   1.910  1.00  0.00     0.114 C 
BRANCH   8   9
HETATM    9  C   UNL     1      40.113 -10.963   1.603  1.00  0.00     0.056 C 
HETATM   10  C   UNL     1      39.125 -10.236   0.555  1.00  0.00    -0.030 C 
HETATM   11  C   UNL     1      37.715 -10.275   1.245  1.00  0.00     0.016 C 
HETATM   12  C   UNL     1      38.961 -10.962  -0.859  1.00  0.00     0.012 C 
HETATM   13  C   UNL     1      39.409  -8.725   0.330  1.00  0.00     0.013 C 
HETATM   14  C   UNL     1      38.667 -12.477  -0.701  1.00  0.00     0.055 C 
HETATM   15  C   UNL     1      40.057 -10.611  -1.950  1.00  0.00     0.008 C 
HETATM   16  C   UNL     1      39.622 -13.087   0.252  1.00  0.00     0.012 A 
HETATM   17  C   UNL     1      40.291 -12.429   1.261  1.00  0.00     0.056 A 
HETATM   18  S   UNL     1      40.053 -14.735   0.217  1.00  0.00    -0.055 SA
HETATM   19  N   UNL     1      41.209 -13.212   1.939  1.00  0.00    -0.227 NA
HETATM   20  C   UNL     1      41.172 -14.433   1.470  1.00  0.00     0.174 A 
HETATM   21  C   UNL     1      39.601 -11.148  -3.339  1.00  0.00     0.020 C 
HETATM   22  C   UNL     1      40.183  -9.064  -2.061  1.00  0.00     0.128 C 
HETATM   23  C   UNL     1      40.478  -8.408  -0.716  1.00  0.00     0.033 C 
BRANCH  20  24
HETATM   24  N   UNL     1      41.926 -15.516   1.804  1.00  0.00    -0.301 N 
HETATM   25  C   UNL     1      41.673 -16.291   2.913  1.00  0.00     0.264 C 
HETATM   26  O   UNL     1      40.732 -16.115   3.683  1.00  0.00    -0.267 OA
HETATM   27  H   UNL     1      42.743 -15.704   1.243  1.00  0.00     0.171 HD
BRANCH  25  28
HETATM   28  C   UNL     1      42.654 -17.354   3.137  1.00  0.00     0.072 A 
HETATM   29  S   UNL     1      43.574 -17.470   4.584  1.00  0.00    -0.097 SA
HETATM   30  C   UNL     1      44.364 -18.889   4.056  1.00  0.00     0.050 A 
HETATM   31  C   UNL     1      43.949 -19.274   2.801  1.00  0.00     0.009 A 
HETATM   32  C   UNL     1      42.966 -18.388   2.271  1.00  0.00     0.025 A 
ENDBRANCH  25  28
ENDBRANCH  20  24
BRANCH  15  33
HETATM   33  C   UNL     1      41.445 -11.233  -1.665  1.00  0.00     0.176 C 
BRANCH  33  34
HETATM   34  O   UNL     1      41.699 -12.330  -2.539  1.00  0.00    -0.400 OA
HETATM   35  H   UNL     1      42.645 -12.296  -2.770  1.00  0.00     0.209 HD
ENDBRANCH  33  34
ENDBRANCH  15  33
BRANCH  22  36
HETATM   36  O   UNL     1      38.965  -8.493  -2.555  1.00  0.00    -0.395 OA
HETATM   37  H   UNL     1      39.205  -7.685  -3.039  1.00  0.00     0.210 HD
ENDBRANCH  22  36
ENDBRANCH   8   9
ENDBRANCH   5   8
ENDBRANCH   1   4
TORSDOF 8
ENDMDL
MODEL 7
REMARK VINA RESULT:      -7.2      3.276      7.919
REMARK  8 active torsions:
REMARK  status: ('A' for Active; 'I' for Inactive)
REMARK    1  A    between atoms: C_3  and  C_4 
REMARK    2  A    between atoms: C_4  and  C_5 
REMARK       I    between atoms: C_5  and  N_6 
REMARK    3  A    between atoms: N_6  and  C_7 
REMARK    4  A    between atoms: C_14  and  N_15 
REMARK       I    between atoms: N_15  and  C_16 
REMARK    5  A    between atoms: C_16  and  C_17 
REMARK    6  A    between atoms: C_26  and  C_27 
REMARK    7  A    between atoms: C_27  and  O_28 
REMARK    8  A    between atoms: C_30  and  O_31 
ROOT
HETATM    1  C   UNL     1      44.444  -9.741  10.446  1.00  0.00     0.216 C 
HETATM    2  C   UNL     1      43.786  -8.983  11.515  1.00  0.00    -0.098 C 
HETATM    3  C   UNL     1      43.258  -8.363  12.397  1.00  0.00     0.014 C 
ENDROOT
BRANCH   1   4
HETATM    4  N   UNL     1      43.763  -9.552   9.192  1.00  0.00    -0.351 N 
HETATM    5  C   UNL     1      43.807 -10.478   8.186  1.00  0.00     0.219 C 
HETATM    6  O   UNL     1      44.399 -11.550   8.268  1.00  0.00    -0.274 OA
HETATM    7  H   UNL     1      43.460  -8.600   8.975  1.00  0.00     0.163 HD
BRANCH   5   8
HETATM    8  C   UNL     1      43.025 -10.105   6.937  1.00  0.00     0.114 C 
BRANCH   8   9
HETATM    9  C   UNL     1      41.527 -10.459   7.059  1.00  0.00     0.056 C 
HETATM   10  C   UNL     1      40.459  -9.250   7.080  1.00  0.00    -0.030 C 
HETATM   11  C   UNL     1      39.485  -9.600   8.260  1.00  0.00     0.016 C 
HETATM   12  C   UNL     1      39.555  -9.103   5.771  1.00  0.00     0.012 C 
HETATM   13  C   UNL     1      41.049  -7.864   7.458  1.00  0.00     0.013 C 
HETATM   14  C   UNL     1      38.929 -10.457   5.344  1.00  0.00     0.055 C 
HETATM   15  C   UNL     1      40.186  -8.263   4.582  1.00  0.00     0.008 C 
HETATM   16  C   UNL     1      39.965 -11.515   5.321  1.00  0.00     0.012 A 
HETATM   17  C   UNL     1      41.133 -11.521   6.052  1.00  0.00     0.056 A 
HETATM   18  S   UNL     1      39.860 -12.904   4.340  1.00  0.00    -0.055 SA
HETATM   19  N   UNL     1      41.979 -12.578   5.763  1.00  0.00    -0.227 NA
HETATM   20  C   UNL     1      41.416 -13.358   4.876  1.00  0.00     0.174 A 
HETATM   21  C   UNL     1      39.091  -7.960   3.519  1.00  0.00     0.020 C 
HETATM   22  C   UNL     1      40.693  -6.901   5.139  1.00  0.00     0.128 C 
HETATM   23  C   UNL     1      41.665  -7.076   6.302  1.00  0.00     0.033 C 
BRANCH  20  24
HETATM   24  N   UNL     1      41.898 -14.478   4.271  1.00  0.00    -0.301 N 
HETATM   25  C   UNL     1      42.098 -15.663   4.942  1.00  0.00     0.264 C 
HETATM   26  O   UNL     1      41.830 -15.844   6.127  1.00  0.00    -0.267 OA
HETATM   27  H   UNL     1      42.181 -14.399   3.307  1.00  0.00     0.171 HD
BRANCH  25  28
HETATM   28  C   UNL     1      42.705 -16.717   4.128  1.00  0.00     0.072 A 
HETATM   29  S   UNL     1      43.833 -17.844   4.768  1.00  0.00    -0.097 SA
HETATM   30  C   UNL     1      43.983 -18.656   3.273  1.00  0.00     0.050 A 
HETATM   31  C   UNL     1      43.200 -18.086   2.295  1.00  0.00     0.009 A 
HETATM   32  C   UNL     1      42.467 -16.967   2.787  1.00  0.00     0.025 A 
ENDBRANCH  25  28
ENDBRANCH  20  24
BRANCH  15  33
HETATM   33  C   UNL     1      41.335  -8.990   3.844  1.00  0.00     0.176 C 
BRANCH  33  34
HETATM   34  O   UNL     1      41.167  -8.904   2.432  1.00  0.00    -0.400 OA
HETATM   35  H   UNL     1      42.057  -8.909   2.038  1.00  0.00     0.209 HD
ENDBRANCH  33  34
ENDBRANCH  15  33
BRANCH  22  36
HETATM   36  O   UNL     1      39.596  -6.112   5.616  1.00  0.00    -0.395 OA
HETATM   37  H   UNL     1      39.345  -6.468   6.485  1.00  0.00     0.210 HD
ENDBRANCH  22  36
ENDBRANCH   8   9
ENDBRANCH   5   8
ENDBRANCH   1   4
TORSDOF 8
ENDMDL
MODEL 8
REMARK VINA RESULT:      -7.2      3.312      6.441
REMARK  8 active torsions:
REMARK  status: ('A' for Active; 'I' for Inactive)
REMARK    1  A    between atoms: C_3  and  C_4 
REMARK    2  A    between atoms: C_4  and  C_5 
REMARK       I    between atoms: C_5  and  N_6 
REMARK    3  A    between atoms: N_6  and  C_7 
REMARK    4  A    between atoms: C_14  and  N_15 
REMARK       I    between atoms: N_15  and  C_16 
REMARK    5  A    between atoms: C_16  and  C_17 
REMARK    6  A    between atoms: C_26  and  C_27 
REMARK    7  A    between atoms: C_27  and  O_28 
REMARK    8  A    between atoms: C_30  and  O_31 
ROOT
HETATM    1  C   UNL     1      42.528  -7.178  -1.169  1.00  0.00     0.216 C 
HETATM    2  C   UNL     1      42.545  -7.327  -2.628  1.00  0.00    -0.098 C 
HETATM    3  C   UNL     1      42.563  -7.436  -3.823  1.00  0.00     0.014 C 
ENDROOT
BRANCH   1   4
HETATM    4  N   UNL     1      42.466  -8.464  -0.526  1.00  0.00    -0.351 N 
HETATM    5  C   UNL     1      41.334  -8.923   0.091  1.00  0.00     0.219 C 
HETATM    6  O   UNL     1      40.276  -8.301   0.129  1.00  0.00    -0.274 OA
HETATM    7  H   UNL     1      43.359  -8.916  -0.318  1.00  0.00     0.163 HD
BRANCH   5   8
HETATM    8  C   UNL     1      41.457 -10.304   0.713  1.00  0.00     0.114 C 
BRANCH   8   9
HETATM    9  C   UNL     1      40.201 -10.692   1.522  1.00  0.00     0.056 C 
HETATM   10  C   UNL     1      39.208 -11.801   0.901  1.00  0.00    -0.030 C 
HETATM   11  C   UNL     1      37.770 -11.200   1.094  1.00  0.00     0.016 C 
HETATM   12  C   UNL     1      39.210 -13.221   1.635  1.00  0.00     0.012 C 
HETATM   13  C   UNL     1      39.341 -12.012  -0.632  1.00  0.00     0.013 C 
HETATM   14  C   UNL     1      39.071 -13.078   3.173  1.00  0.00     0.055 C 
HETATM   15  C   UNL     1      40.327 -14.243   1.163  1.00  0.00     0.008 C 
HETATM   16  C   UNL     1      40.026 -12.066   3.681  1.00  0.00     0.012 A 
HETATM   17  C   UNL     1      40.557 -11.020   2.959  1.00  0.00     0.056 A 
HETATM   18  S   UNL     1      40.633 -12.071   5.273  1.00  0.00    -0.055 SA
HETATM   19  N   UNL     1      41.509 -10.284   3.643  1.00  0.00    -0.227 NA
HETATM   20  C   UNL     1      41.633 -10.752   4.859  1.00  0.00     0.174 A 
HETATM   21  C   UNL     1      40.018 -15.656   1.740  1.00  0.00     0.020 C 
HETATM   22  C   UNL     1      40.293 -14.350  -0.389  1.00  0.00     0.128 C 
HETATM   23  C   UNL     1      40.433 -12.990  -1.067  1.00  0.00     0.033 C 
BRANCH  20  24
HETATM   24  N   UNL     1      42.477 -10.369   5.856  1.00  0.00    -0.301 N 
HETATM   25  C   UNL     1      43.666 -11.010   6.117  1.00  0.00     0.264 C 
HETATM   26  O   UNL     1      44.104 -11.954   5.464  1.00  0.00    -0.267 OA
HETATM   27  H   UNL     1      42.169  -9.626   6.464  1.00  0.00     0.171 HD
BRANCH  25  28
HETATM   28  C   UNL     1      44.381 -10.495   7.286  1.00  0.00     0.072 A 
HETATM   29  S   UNL     1      43.579 -10.077   8.747  1.00  0.00    -0.097 SA
HETATM   30  C   UNL     1      45.042  -9.642   9.513  1.00  0.00     0.050 A 
HETATM   31  C   UNL     1      46.127  -9.801   8.680  1.00  0.00     0.009 A 
HETATM   32  C   UNL     1      45.745 -10.289   7.397  1.00  0.00     0.025 A 
ENDBRANCH  25  28
ENDBRANCH  20  24
BRANCH  15  33
HETATM   33  C   UNL     1      41.754 -13.871   1.634  1.00  0.00     0.176 C 
BRANCH  33  34
HETATM   34  O   UNL     1      42.720 -14.752   1.067  1.00  0.00    -0.400 OA
HETATM   35  H   UNL     1      42.231 -15.418   0.552  1.00  0.00     0.209 HD
ENDBRANCH  33  34
ENDBRANCH  15  33
BRANCH  22  36
HETATM   36  O   UNL     1      39.054 -14.919  -0.828  1.00  0.00    -0.395 OA
HETATM   37  H   UNL     1      38.492 -14.184  -1.127  1.00  0.00     0.210 HD
ENDBRANCH  22  36
ENDBRANCH   8   9
ENDBRANCH   5   8
ENDBRANCH   1   4
TORSDOF 8
ENDMDL
MODEL 9
REMARK VINA RESULT:      -7.2      3.344      8.030
REMARK  8 active torsions:
REMARK  status: ('A' for Active; 'I' for Inactive)
REMARK    1  A    between atoms: C_3  and  C_4 
REMARK    2  A    between atoms: C_4  and  C_5 
REMARK       I    between atoms: C_5  and  N_6 
REMARK    3  A    between atoms: N_6  and  C_7 
REMARK    4  A    between atoms: C_14  and  N_15 
REMARK       I    between atoms: N_15  and  C_16 
REMARK    5  A    between atoms: C_16  and  C_17 
REMARK    6  A    between atoms: C_26  and  C_27 
REMARK    7  A    between atoms: C_27  and  O_28 
REMARK    8  A    between atoms: C_30  and  O_31 
ROOT
HETATM    1  C   UNL     1      40.400  -9.712   7.531  1.00  0.00     0.216 C 
HETATM    2  C   UNL     1      41.666  -9.367   8.185  1.00  0.00    -0.098 C 
HETATM    3  C   UNL     1      42.696  -9.077   8.730  1.00  0.00     0.014 C 
ENDROOT
BRANCH   1   4
HETATM    4  N   UNL     1      40.553 -10.885   6.711  1.00  0.00    -0.351 N 
HETATM    5  C   UNL     1      39.498 -11.689   6.375  1.00  0.00     0.219 C 
HETATM    6  O   UNL     1      38.338 -11.473   6.714  1.00  0.00    -0.274 OA
HETATM    7  H   UNL     1      41.503 -11.246   6.599  1.00  0.00     0.163 HD
BRANCH   5   8
HETATM    8  C   UNL     1      39.852 -12.881   5.501  1.00  0.00     0.114 C 
BRANCH   8   9
HETATM    9  C   UNL     1      41.143 -12.646   4.689  1.00  0.00     0.056 C 
HETATM   10  C   UNL     1      42.462 -13.479   5.098  1.00  0.00    -0.030 C 
HETATM   11  C   UNL     1      43.616 -12.414   5.114  1.00  0.00     0.016 C 
HETATM   12  C   UNL     1      42.908 -14.618   4.070  1.00  0.00     0.012 C 
HETATM   13  C   UNL     1      42.447 -14.060   6.539  1.00  0.00     0.013 C 
HETATM   14  C   UNL     1      42.950 -14.096   2.610  1.00  0.00     0.055 C 
HETATM   15  C   UNL     1      42.203 -16.028   4.248  1.00  0.00     0.008 C 
HETATM   16  C   UNL     1      41.703 -13.365   2.291  1.00  0.00     0.012 A 
HETATM   17  C   UNL     1      40.877 -12.740   3.199  1.00  0.00     0.056 A 
HETATM   18  S   UNL     1      41.089 -13.210   0.710  1.00  0.00    -0.055 SA
HETATM   19  N   UNL     1      39.717 -12.222   2.649  1.00  0.00    -0.227 NA
HETATM   20  C   UNL     1      39.721 -12.418   1.355  1.00  0.00     0.174 A 
HETATM   21  C   UNL     1      42.944 -17.094   3.390  1.00  0.00     0.020 C 
HETATM   22  C   UNL     1      42.312 -16.463   5.738  1.00  0.00     0.128 C 
HETATM   23  C   UNL     1      41.750 -15.413   6.692  1.00  0.00     0.033 C 
BRANCH  20  24
HETATM   24  N   UNL     1      38.772 -12.119   0.427  1.00  0.00    -0.301 N 
HETATM   25  C   UNL     1      38.805 -10.972  -0.334  1.00  0.00     0.264 C 
HETATM   26  O   UNL     1      39.700 -10.132  -0.284  1.00  0.00    -0.267 OA
HETATM   27  H   UNL     1      37.981 -12.740   0.355  1.00  0.00     0.171 HD
BRANCH  25  28
HETATM   28  C   UNL     1      37.644 -10.801  -1.209  1.00  0.00     0.072 A 
HETATM   29  S   UNL     1      36.426  -9.628  -0.907  1.00  0.00    -0.097 SA
HETATM   30  C   UNL     1      35.557 -10.060  -2.312  1.00  0.00     0.050 A 
HETATM   31  C   UNL     1      36.169 -11.081  -3.003  1.00  0.00     0.009 A 
HETATM   32  C   UNL     1      37.370 -11.509  -2.366  1.00  0.00     0.025 A 
ENDBRANCH  25  28
ENDBRANCH  20  24
BRANCH  15  33
HETATM   33  C   UNL     1      40.721 -16.046   3.802  1.00  0.00     0.176 C 
BRANCH  33  34
HETATM   34  O   UNL     1      40.603 -16.488   2.452  1.00  0.00    -0.400 OA
HETATM   35  H   UNL     1      41.431 -16.245   2.000  1.00  0.00     0.209 HD
ENDBRANCH  33  34
ENDBRANCH  15  33
BRANCH  22  36
HETATM   36  O   UNL     1      43.680 -16.680   6.101  1.00  0.00    -0.395 OA
HETATM   37  H   UNL     1      43.976 -15.890   6.586  1.00  0.00     0.210 HD
ENDBRANCH  22  36
ENDBRANCH   8   9
ENDBRANCH   5   8
ENDBRANCH   1   4
TORSDOF 8
ENDMDL
MODEL 10
REMARK VINA RESULT:      -7.2      3.948      8.523
REMARK  8 active torsions:
REMARK  status: ('A' for Active; 'I' for Inactive)
REMARK    1  A    between atoms: C_3  and  C_4 
REMARK    2  A    between atoms: C_4  and  C_5 
REMARK       I    between atoms: C_5  and  N_6 
REMARK    3  A    between atoms: N_6  and  C_7 
REMARK    4  A    between atoms: C_14  and  N_15 
REMARK       I    between atoms: N_15  and  C_16 
REMARK    5  A    between atoms: C_16  and  C_17 
REMARK    6  A    between atoms: C_26  and  C_27 
REMARK    7  A    between atoms: C_27  and  O_28 
REMARK    8  A    between atoms: C_30  and  O_31 
ROOT
HETATM    1  C   UNL     1      38.328  -9.509   5.227  1.00  0.00     0.216 C 
HETATM    2  C   UNL     1      38.420  -8.521   4.148  1.00  0.00    -0.098 C 
HETATM    3  C   UNL     1      38.492  -7.702   3.273  1.00  0.00     0.014 C 
ENDROOT
BRANCH   1   4
HETATM    4  N   UNL     1      38.895 -10.767   4.817  1.00  0.00    -0.351 N 
HETATM    5  C   UNL     1      39.209 -11.757   5.708  1.00  0.00     0.219 C 
HETATM    6  O   UNL     1      39.014 -11.676   6.918  1.00  0.00    -0.274 OA
HETATM    7  H   UNL     1      39.295 -10.804   3.877  1.00  0.00     0.163 HD
BRANCH   5   8
HETATM    8  C   UNL     1      39.797 -13.015   5.090  1.00  0.00     0.114 C 
BRANCH   8   9
HETATM    9  C   UNL     1      41.091 -12.726   4.300  1.00  0.00     0.056 C 
HETATM   10  C   UNL     1      42.465 -13.394   4.820  1.00  0.00    -0.030 C 
HETATM   11  C   UNL     1      43.514 -12.227   4.778  1.00  0.00     0.016 C 
HETATM   12  C   UNL     1      43.053 -14.567   3.908  1.00  0.00     0.012 C 
HETATM   13  C   UNL     1      42.448 -13.852   6.304  1.00  0.00     0.013 C 
HETATM   14  C   UNL     1      43.103 -14.167   2.410  1.00  0.00     0.055 C 
HETATM   15  C   UNL     1      42.473 -16.017   4.186  1.00  0.00     0.008 C 
HETATM   16  C   UNL     1      41.806 -13.586   1.992  1.00  0.00     0.012 A 
HETATM   17  C   UNL     1      40.892 -12.969   2.817  1.00  0.00     0.056 A 
HETATM   18  S   UNL     1      41.242 -13.622   0.385  1.00  0.00    -0.055 SA
HETATM   19  N   UNL     1      39.711 -12.611   2.189  1.00  0.00    -0.227 NA
HETATM   20  C   UNL     1      39.784 -12.913   0.918  1.00  0.00     0.174 A 
HETATM   21  C   UNL     1      43.342 -17.076   3.446  1.00  0.00     0.020 C 
HETATM   22  C   UNL     1      42.565 -16.314   5.711  1.00  0.00     0.128 C 
HETATM   23  C   UNL     1      41.873 -15.247   6.553  1.00  0.00     0.033 C 
BRANCH  20  24
HETATM   24  N   UNL     1      38.847 -12.783  -0.062  1.00  0.00    -0.301 N 
HETATM   25  C   UNL     1      38.768 -11.679  -0.879  1.00  0.00     0.264 C 
HETATM   26  O   UNL     1      39.545 -10.728  -0.839  1.00  0.00    -0.267 OA
HETATM   27  H   UNL     1      38.146 -13.505  -0.132  1.00  0.00     0.171 HD
BRANCH  25  28
HETATM   28  C   UNL     1      37.636 -11.701  -1.807  1.00  0.00     0.072 A 
HETATM   29  S   UNL     1      36.747 -10.288  -2.212  1.00  0.00    -0.097 SA
HETATM   30  C   UNL     1      35.727 -11.145  -3.280  1.00  0.00     0.050 A 
HETATM   31  C   UNL     1      36.043 -12.484  -3.332  1.00  0.00     0.009 A 
HETATM   32  C   UNL     1      37.141 -12.804  -2.481  1.00  0.00     0.025 A 
ENDBRANCH  25  28
ENDBRANCH  20  24
BRANCH  15  33
HETATM   33  C   UNL     1      41.018 -16.213   3.698  1.00  0.00     0.176 C 
BRANCH  33  34
HETATM   34  O   UNL     1      40.992 -16.832   2.414  1.00  0.00    -0.400 OA
HETATM   35  H   UNL     1      40.929 -17.793   2.563  1.00  0.00     0.209 HD
ENDBRANCH  33  34
ENDBRANCH  15  33
BRANCH  22  36
HETATM   36  O   UNL     1      43.933 -16.370   6.132  1.00  0.00    -0.395 OA
HETATM   37  H   UNL     1      43.929 -16.516   7.094  1.00  0.00     0.210 HD
ENDBRANCH  22  36
ENDBRANCH   8   9
ENDBRANCH   5   8
ENDBRANCH   1   4
TORSDOF 8
ENDMDL
