MODEL 1
REMARK VINA RESULT:      -8.5      0.000      0.000
REMARK  3 active torsions:
REMARK  status: ('A' for Active; 'I' for Inactive)
REMARK    1  A    between atoms: C_13  and  C_14 
REMARK    2  A    between atoms: C_14  and  N_15 
REMARK       I    between atoms: N_15  and  C_16 
REMARK    3  A    between atoms: C_16  and  C_17 
ROOT
HETATM    1  C   UNL     1      42.426 -15.762   2.095  1.00  0.00     0.002 A 
HETATM    2  C   UNL     1      43.007 -17.027   1.896  1.00  0.00     0.018 A 
HETATM    3  C   UNL     1      43.346 -17.743   3.040  1.00  0.00     0.045 A 
HETATM    4  C   UNL     1      43.107 -17.194   4.290  1.00  0.00     0.017 A 
HETATM    5  C   UNL     1      42.555 -15.972   4.543  1.00  0.00    -0.015 A 
HETATM    6  C   UNL     1      42.200 -15.236   3.387  1.00  0.00     0.013 A 
HETATM    7  C   UNL     1      43.522 -18.091   5.246  1.00  0.00     0.047 A 
HETATM    8  N   UNL     1      44.024 -19.196   4.584  1.00  0.00    -0.322 N 
HETATM    9  C   UNL     1      43.949 -19.054   3.191  1.00  0.00     0.257 A 
HETATM   10  O   UNL     1      44.327 -19.889   2.383  1.00  0.00    -0.267 OA
HETATM   11  C   UNL     1      43.402 -17.821   6.594  1.00  0.00     0.031 A 
HETATM   12  C   UNL     1      42.838 -16.570   6.915  1.00  0.00     0.012 A 
HETATM   13  C   UNL     1      42.426 -15.634   5.921  1.00  0.00    -0.029 A 
HETATM   14  H   UNL     1      44.404 -20.022   5.019  1.00  0.00     0.169 HD
ENDROOT
BRANCH  13  15
HETATM   15  C   UNL     1      41.839 -14.319   6.369  1.00  0.00     0.162 C 
BRANCH  15  16
HETATM   16  N   UNL     1      42.852 -13.447   6.908  1.00  0.00    -0.351 N 
HETATM   17  C   UNL     1      43.507 -12.507   6.144  1.00  0.00     0.275 C 
HETATM   18  O   UNL     1      43.242 -12.314   4.961  1.00  0.00    -0.265 OA
HETATM   19  H   UNL     1      43.204 -13.608   7.844  1.00  0.00     0.163 HD
BRANCH  17  20
HETATM   20  C   UNL     1      44.524 -11.772   6.867  1.00  0.00     0.142 A 
HETATM   21  O   UNL     1      44.366 -11.539   8.210  1.00  0.00    -0.317 OA
HETATM   22  C   UNL     1      45.447 -10.827   8.623  1.00  0.00     0.143 A 
HETATM   23  C   UNL     1      46.303 -10.597   7.572  1.00  0.00     0.027 A 
HETATM   24  C   UNL     1      45.711 -11.206   6.440  1.00  0.00     0.045 A 
ENDBRANCH  17  20
ENDBRANCH  15  16
ENDBRANCH  13  15
TORSDOF 3
ENDMDL
MODEL 2
REMARK VINA RESULT:      -8.2      3.520      6.138
REMARK  3 active torsions:
REMARK  status: ('A' for Active; 'I' for Inactive)
REMARK    1  A    between atoms: C_13  and  C_14 
REMARK    2  A    between atoms: C_14  and  N_15 
REMARK       I    between atoms: N_15  and  C_16 
REMARK    3  A    between atoms: C_16  and  C_17 
ROOT
HETATM    1  C   UNL     1      43.172 -16.181   6.678  1.00  0.00     0.002 A 
HETATM    2  C   UNL     1      43.503 -17.548   6.706  1.00  0.00     0.018 A 
HETATM    3  C   UNL     1      43.647 -18.179   5.474  1.00  0.00     0.045 A 
HETATM    4  C   UNL     1      43.460 -17.456   4.307  1.00  0.00     0.017 A 
HETATM    5  C   UNL     1      43.133 -16.134   4.219  1.00  0.00    -0.015 A 
HETATM    6  C   UNL     1      42.989 -15.480   5.466  1.00  0.00     0.013 A 
HETATM    7  C   UNL     1      43.662 -18.296   3.236  1.00  0.00     0.047 A 
HETATM    8  N   UNL     1      43.969 -19.545   3.746  1.00  0.00    -0.322 N 
HETATM    9  C   UNL     1      43.979 -19.553   5.148  1.00  0.00     0.257 A 
HETATM   10  O   UNL     1      44.221 -20.532   5.838  1.00  0.00    -0.267 OA
HETATM   11  C   UNL     1      43.553 -17.852   1.935  1.00  0.00     0.031 A 
HETATM   12  C   UNL     1      43.213 -16.493   1.784  1.00  0.00     0.012 A 
HETATM   13  C   UNL     1      42.987 -15.627   2.894  1.00  0.00    -0.029 A 
HETATM   14  H   UNL     1      44.169 -20.370   3.203  1.00  0.00     0.169 HD
ENDROOT
BRANCH  13  15
HETATM   15  C   UNL     1      42.623 -14.189   2.625  1.00  0.00     0.162 C 
BRANCH  15  16
HETATM   16  N   UNL     1      42.058 -14.027   1.310  1.00  0.00    -0.351 N 
HETATM   17  C   UNL     1      40.702 -13.945   1.088  1.00  0.00     0.275 C 
HETATM   18  O   UNL     1      39.879 -13.958   1.999  1.00  0.00    -0.265 OA
HETATM   19  H   UNL     1      42.655 -14.110   0.495  1.00  0.00     0.163 HD
BRANCH  17  20
HETATM   20  C   UNL     1      40.344 -13.836  -0.312  1.00  0.00     0.142 A 
HETATM   21  O   UNL     1      40.835 -12.794  -1.058  1.00  0.00    -0.317 OA
HETATM   22  C   UNL     1      40.334 -12.930  -2.313  1.00  0.00     0.143 A 
HETATM   23  C   UNL     1      39.531 -14.043  -2.395  1.00  0.00     0.027 A 
HETATM   24  C   UNL     1      39.537 -14.629  -1.107  1.00  0.00     0.045 A 
ENDBRANCH  17  20
ENDBRANCH  15  16
ENDBRANCH  13  15
TORSDOF 3
ENDMDL
MODEL 3
REMARK VINA RESULT:      -8.0      1.143      2.583
REMARK  3 active torsions:
REMARK  status: ('A' for Active; 'I' for Inactive)
REMARK    1  A    between atoms: C_13  and  C_14 
REMARK    2  A    between atoms: C_14  and  N_15 
REMARK       I    between atoms: N_15  and  C_16 
REMARK    3  A    between atoms: C_16  and  C_17 
ROOT
HETATM    1  C   UNL     1      42.942 -16.630   6.919  1.00  0.00     0.002 A 
HETATM    2  C   UNL     1      43.397 -17.867   6.427  1.00  0.00     0.018 A 
HETATM    3  C   UNL     1      43.578 -17.961   5.050  1.00  0.00     0.045 A 
HETATM    4  C   UNL     1      43.308 -16.864   4.247  1.00  0.00     0.017 A 
HETATM    5  C   UNL     1      42.860 -15.645   4.667  1.00  0.00    -0.015 A 
HETATM    6  C   UNL     1      42.677 -15.537   6.066  1.00  0.00     0.013 A 
HETATM    7  C   UNL     1      43.569 -17.207   2.940  1.00  0.00     0.047 A 
HETATM    8  N   UNL     1      43.997 -18.522   2.937  1.00  0.00    -0.322 N 
HETATM    9  C   UNL     1      44.028 -19.068   4.229  1.00  0.00     0.257 A 
HETATM   10  O   UNL     1      44.369 -20.211   4.495  1.00  0.00    -0.267 OA
HETATM   11  C   UNL     1      43.400 -16.309   1.907  1.00  0.00     0.031 A 
HETATM   12  C   UNL     1      42.936 -15.032   2.283  1.00  0.00     0.012 A 
HETATM   13  C   UNL     1      42.649 -14.684   3.635  1.00  0.00    -0.029 A 
HETATM   14  H   UNL     1      44.262 -19.054   2.123  1.00  0.00     0.169 HD
ENDROOT
BRANCH  13  15
HETATM   15  C   UNL     1      42.151 -13.292   3.932  1.00  0.00     0.162 C 
BRANCH  15  16
HETATM   16  N   UNL     1      42.850 -12.711   5.050  1.00  0.00    -0.351 N 
HETATM   17  C   UNL     1      43.909 -11.845   4.897  1.00  0.00     0.275 C 
HETATM   18  O   UNL     1      44.306 -11.472   3.797  1.00  0.00    -0.265 OA
HETATM   19  H   UNL     1      42.656 -13.043   5.988  1.00  0.00     0.163 HD
BRANCH  17  20
HETATM   20  C   UNL     1      44.501 -11.419   6.149  1.00  0.00     0.142 A 
HETATM   21  O   UNL     1      43.698 -11.212   7.242  1.00  0.00    -0.317 OA
HETATM   22  C   UNL     1      44.503 -10.810   8.260  1.00  0.00     0.143 A 
HETATM   23  C   UNL     1      45.813 -10.755   7.846  1.00  0.00     0.027 A 
HETATM   24  C   UNL     1      45.814 -11.148   6.487  1.00  0.00     0.045 A 
ENDBRANCH  17  20
ENDBRANCH  15  16
ENDBRANCH  13  15
TORSDOF 3
ENDMDL
MODEL 4
REMARK VINA RESULT:      -7.8      2.866      4.627
REMARK  3 active torsions:
REMARK  status: ('A' for Active; 'I' for Inactive)
REMARK    1  A    between atoms: C_13  and  C_14 
REMARK    2  A    between atoms: C_14  and  N_15 
REMARK       I    between atoms: N_15  and  C_16 
REMARK    3  A    between atoms: C_16  and  C_17 
ROOT
HETATM    1  C   UNL     1      43.596 -18.411   6.558  1.00  0.00     0.002 A 
HETATM    2  C   UNL     1      43.746 -19.500   5.680  1.00  0.00     0.018 A 
HETATM    3  C   UNL     1      43.671 -19.218   4.320  1.00  0.00     0.045 A 
HETATM    4  C   UNL     1      43.456 -17.915   3.900  1.00  0.00     0.017 A 
HETATM    5  C   UNL     1      43.296 -16.823   4.704  1.00  0.00    -0.015 A 
HETATM    6  C   UNL     1      43.375 -17.097   6.090  1.00  0.00     0.013 A 
HETATM    7  C   UNL     1      43.428 -17.899   2.525  1.00  0.00     0.047 A 
HETATM    8  N   UNL     1      43.623 -19.199   2.094  1.00  0.00    -0.322 N 
HETATM    9  C   UNL     1      43.783 -20.089   3.166  1.00  0.00     0.257 A 
HETATM   10  O   UNL     1      43.968 -21.292   3.051  1.00  0.00    -0.267 OA
HETATM   11  C   UNL     1      43.237 -16.730   1.817  1.00  0.00     0.031 A 
HETATM   12  C   UNL     1      43.064 -15.570   2.597  1.00  0.00     0.012 A 
HETATM   13  C   UNL     1      43.075 -15.591   4.023  1.00  0.00    -0.029 A 
HETATM   14  H   UNL     1      43.652 -19.504   1.134  1.00  0.00     0.169 HD
ENDROOT
BRANCH  13  15
HETATM   15  C   UNL     1      42.875 -14.293   4.764  1.00  0.00     0.162 C 
BRANCH  15  16
HETATM   16  N   UNL     1      41.889 -13.465   4.119  1.00  0.00    -0.351 N 
HETATM   17  C   UNL     1      40.593 -13.361   4.572  1.00  0.00     0.275 C 
HETATM   18  O   UNL     1      40.197 -13.931   5.585  1.00  0.00    -0.265 OA
HETATM   19  H   UNL     1      42.100 -13.042   3.222  1.00  0.00     0.163 HD
BRANCH  17  20
HETATM   20  C   UNL     1      39.752 -12.517   3.749  1.00  0.00     0.142 A 
HETATM   21  O   UNL     1      39.467 -11.238   4.158  1.00  0.00    -0.317 OA
HETATM   22  C   UNL     1      38.659 -10.687   3.216  1.00  0.00     0.143 A 
HETATM   23  C   UNL     1      38.417 -11.584   2.202  1.00  0.00     0.027 A 
HETATM   24  C   UNL     1      39.121 -12.763   2.543  1.00  0.00     0.045 A 
ENDBRANCH  17  20
ENDBRANCH  15  16
ENDBRANCH  13  15
TORSDOF 3
ENDMDL
MODEL 5
REMARK VINA RESULT:      -7.5      1.626      1.914
REMARK  3 active torsions:
REMARK  status: ('A' for Active; 'I' for Inactive)
REMARK    1  A    between atoms: C_13  and  C_14 
REMARK    2  A    between atoms: C_14  and  N_15 
REMARK       I    between atoms: N_15  and  C_16 
REMARK    3  A    between atoms: C_16  and  C_17 
ROOT
HETATM    1  C   UNL     1      42.472 -14.610   1.828  1.00  0.00     0.002 A 
HETATM    2  C   UNL     1      42.872 -15.958   1.803  1.00  0.00     0.018 A 
HETATM    3  C   UNL     1      43.255 -16.517   3.018  1.00  0.00     0.045 A 
HETATM    4  C   UNL     1      43.230 -15.743   4.168  1.00  0.00     0.017 A 
HETATM    5  C   UNL     1      42.859 -14.432   4.251  1.00  0.00    -0.015 A 
HETATM    6  C   UNL     1      42.462 -13.855   3.022  1.00  0.00     0.013 A 
HETATM    7  C   UNL     1      43.644 -16.520   5.225  1.00  0.00     0.047 A 
HETATM    8  N   UNL     1      43.931 -17.777   4.725  1.00  0.00    -0.322 N 
HETATM    9  C   UNL     1      43.712 -17.855   3.342  1.00  0.00     0.257 A 
HETATM   10  O   UNL     1      43.892 -18.855   2.663  1.00  0.00    -0.267 OA
HETATM   11  C   UNL     1      43.714 -16.019   6.509  1.00  0.00     0.031 A 
HETATM   12  C   UNL     1      43.344 -14.668   6.654  1.00  0.00     0.012 A 
HETATM   13  C   UNL     1      42.932 -13.859   5.554  1.00  0.00    -0.029 A 
HETATM   14  H   UNL     1      44.259 -18.564   5.262  1.00  0.00     0.169 HD
ENDROOT
BRANCH  13  15
HETATM   15  C   UNL     1      42.561 -12.421   5.815  1.00  0.00     0.162 C 
BRANCH  15  16
HETATM   16  N   UNL     1      43.324 -11.871   6.907  1.00  0.00    -0.351 N 
HETATM   17  C   UNL     1      43.091 -10.614   7.418  1.00  0.00     0.275 C 
HETATM   18  O   UNL     1      42.188  -9.889   7.010  1.00  0.00    -0.265 OA
HETATM   19  H   UNL     1      44.151 -12.356   7.234  1.00  0.00     0.163 HD
BRANCH  17  20
HETATM   20  C   UNL     1      44.004 -10.235   8.477  1.00  0.00     0.142 A 
HETATM   21  O   UNL     1      43.919 -10.855   9.698  1.00  0.00    -0.317 OA
HETATM   22  C   UNL     1      44.871 -10.303  10.494  1.00  0.00     0.143 A 
HETATM   23  C   UNL     1      45.574  -9.339   9.810  1.00  0.00     0.027 A 
HETATM   24  C   UNL     1      45.017  -9.295   8.510  1.00  0.00     0.045 A 
ENDBRANCH  17  20
ENDBRANCH  15  16
ENDBRANCH  13  15
TORSDOF 3
ENDMDL
MODEL 6
REMARK VINA RESULT:      -7.4      2.615      3.703
REMARK  3 active torsions:
REMARK  status: ('A' for Active; 'I' for Inactive)
REMARK    1  A    between atoms: C_13  and  C_14 
REMARK    2  A    between atoms: C_14  and  N_15 
REMARK       I    between atoms: N_15  and  C_16 
REMARK    3  A    between atoms: C_16  and  C_17 
ROOT
HETATM    1  C   UNL     1      43.111 -15.932   2.117  1.00  0.00     0.002 A 
HETATM    2  C   UNL     1      43.409 -17.273   1.815  1.00  0.00     0.018 A 
HETATM    3  C   UNL     1      43.575 -18.133   2.896  1.00  0.00     0.045 A 
HETATM    4  C   UNL     1      43.446 -17.645   4.187  1.00  0.00     0.017 A 
HETATM    5  C   UNL     1      43.165 -16.356   4.540  1.00  0.00    -0.015 A 
HETATM    6  C   UNL     1      42.990 -15.473   3.448  1.00  0.00     0.013 A 
HETATM    7  C   UNL     1      43.648 -18.683   5.067  1.00  0.00     0.047 A 
HETATM    8  N   UNL     1      43.908 -19.814   4.316  1.00  0.00    -0.322 N 
HETATM    9  C   UNL     1      43.881 -19.550   2.939  1.00  0.00     0.257 A 
HETATM   10  O   UNL     1      44.079 -20.381   2.065  1.00  0.00    -0.267 OA
HETATM   11  C   UNL     1      43.574 -18.500   6.433  1.00  0.00     0.031 A 
HETATM   12  C   UNL     1      43.289 -17.186   6.855  1.00  0.00     0.012 A 
HETATM   13  C   UNL     1      43.097 -16.108   5.941  1.00  0.00    -0.029 A 
HETATM   14  H   UNL     1      44.098 -20.734   4.682  1.00  0.00     0.169 HD
ENDROOT
BRANCH  13  15
HETATM   15  C   UNL     1      42.802 -14.738   6.496  1.00  0.00     0.162 C 
BRANCH  15  16
HETATM   16  N   UNL     1      42.002 -13.962   5.582  1.00  0.00    -0.351 N 
HETATM   17  C   UNL     1      40.639 -13.826   5.717  1.00  0.00     0.275 C 
HETATM   18  O   UNL     1      40.013 -14.319   6.651  1.00  0.00    -0.265 OA
HETATM   19  H   UNL     1      42.419 -13.608   4.729  1.00  0.00     0.163 HD
BRANCH  17  20
HETATM   20  C   UNL     1      40.021 -13.048   4.663  1.00  0.00     0.142 A 
HETATM   21  O   UNL     1      39.804 -13.622   3.435  1.00  0.00    -0.317 OA
HETATM   22  C   UNL     1      39.234 -12.674   2.646  1.00  0.00     0.143 A 
HETATM   23  C   UNL     1      39.075 -11.498   3.341  1.00  0.00     0.027 A 
HETATM   24  C   UNL     1      39.581 -11.737   4.641  1.00  0.00     0.045 A 
ENDBRANCH  17  20
ENDBRANCH  15  16
ENDBRANCH  13  15
TORSDOF 3
ENDMDL
MODEL 7
REMARK VINA RESULT:      -7.3     14.836     16.725
REMARK  3 active torsions:
REMARK  status: ('A' for Active; 'I' for Inactive)
REMARK    1  A    between atoms: C_13  and  C_14 
REMARK    2  A    between atoms: C_14  and  N_15 
REMARK       I    between atoms: N_15  and  C_16 
REMARK    3  A    between atoms: C_16  and  C_17 
ROOT
HETATM    1  C   UNL     1      44.064 -32.790  -2.280  1.00  0.00     0.002 A 
HETATM    2  C   UNL     1      44.056 -32.478  -3.651  1.00  0.00     0.018 A 
HETATM    3  C   UNL     1      44.358 -31.163  -3.992  1.00  0.00     0.045 A 
HETATM    4  C   UNL     1      44.642 -30.244  -2.995  1.00  0.00     0.017 A 
HETATM    5  C   UNL     1      44.657 -30.487  -1.652  1.00  0.00    -0.015 A 
HETATM    6  C   UNL     1      44.357 -31.823  -1.294  1.00  0.00     0.013 A 
HETATM    7  C   UNL     1      44.910 -29.030  -3.585  1.00  0.00     0.047 A 
HETATM    8  N   UNL     1      44.786 -29.200  -4.951  1.00  0.00    -0.322 N 
HETATM    9  C   UNL     1      44.439 -30.517  -5.288  1.00  0.00     0.257 A 
HETATM   10  O   UNL     1      44.269 -30.923  -6.428  1.00  0.00    -0.267 OA
HETATM   11  C   UNL     1      45.236 -27.917  -2.838  1.00  0.00     0.031 A 
HETATM   12  C   UNL     1      45.265 -28.110  -1.442  1.00  0.00     0.012 A 
HETATM   13  C   UNL     1      44.970 -29.364  -0.832  1.00  0.00    -0.029 A 
HETATM   14  H   UNL     1      44.921 -28.486  -5.650  1.00  0.00     0.169 HD
ENDROOT
BRANCH  13  15
HETATM   15  C   UNL     1      45.023 -29.465   0.672  1.00  0.00     0.162 C 
BRANCH  15  16
HETATM   16  N   UNL     1      46.353 -29.778   1.131  1.00  0.00    -0.351 N 
HETATM   17  C   UNL     1      47.144 -28.868   1.794  1.00  0.00     0.275 C 
HETATM   18  O   UNL     1      46.758 -27.739   2.081  1.00  0.00    -0.265 OA
HETATM   19  H   UNL     1      46.787 -30.649   0.847  1.00  0.00     0.163 HD
BRANCH  17  20
HETATM   20  C   UNL     1      48.463 -29.370   2.121  1.00  0.00     0.142 A 
HETATM   21  O   UNL     1      49.210 -29.996   1.155  1.00  0.00    -0.317 OA
HETATM   22  C   UNL     1      50.380 -30.372   1.733  1.00  0.00     0.143 A 
HETATM   23  C   UNL     1      50.407 -29.997   3.056  1.00  0.00     0.027 A 
HETATM   24  C   UNL     1      49.173 -29.351   3.308  1.00  0.00     0.045 A 
ENDBRANCH  17  20
ENDBRANCH  15  16
ENDBRANCH  13  15
TORSDOF 3
ENDMDL
MODEL 8
REMARK VINA RESULT:      -7.3      3.802      6.039
REMARK  3 active torsions:
REMARK  status: ('A' for Active; 'I' for Inactive)
REMARK    1  A    between atoms: C_13  and  C_14 
REMARK    2  A    between atoms: C_14  and  N_15 
REMARK       I    between atoms: N_15  and  C_16 
REMARK    3  A    between atoms: C_16  and  C_17 
ROOT
HETATM    1  C   UNL     1      40.604 -14.953   6.021  1.00  0.00     0.002 A 
HETATM    2  C   UNL     1      41.670 -15.472   6.777  1.00  0.00     0.018 A 
HETATM    3  C   UNL     1      42.573 -16.287   6.102  1.00  0.00     0.045 A 
HETATM    4  C   UNL     1      42.388 -16.547   4.753  1.00  0.00     0.017 A 
HETATM    5  C   UNL     1      41.371 -16.077   3.972  1.00  0.00    -0.015 A 
HETATM    6  C   UNL     1      40.449 -15.243   4.647  1.00  0.00     0.013 A 
HETATM    7  C   UNL     1      43.407 -17.364   4.323  1.00  0.00     0.047 A 
HETATM    8  N   UNL     1      44.222 -17.614   5.412  1.00  0.00    -0.322 N 
HETATM    9  C   UNL     1      43.763 -16.971   6.571  1.00  0.00     0.257 A 
HETATM   10  O   UNL     1      44.305 -17.034   7.664  1.00  0.00    -0.267 OA
HETATM   11  C   UNL     1      43.493 -17.787   3.012  1.00  0.00     0.031 A 
HETATM   12  C   UNL     1      42.467 -17.334   2.160  1.00  0.00     0.012 A 
HETATM   13  C   UNL     1      41.401 -16.501   2.612  1.00  0.00    -0.029 A 
HETATM   14  H   UNL     1      45.053 -18.184   5.408  1.00  0.00     0.169 HD
ENDROOT
BRANCH  13  15
HETATM   15  C   UNL     1      40.348 -16.075   1.620  1.00  0.00     0.162 C 
BRANCH  15  16
HETATM   16  N   UNL     1      40.566 -14.724   1.170  1.00  0.00    -0.351 N 
HETATM   17  C   UNL     1      40.111 -14.262  -0.045  1.00  0.00     0.275 C 
HETATM   18  O   UNL     1      39.449 -14.956  -0.812  1.00  0.00    -0.265 OA
HETATM   19  H   UNL     1      41.188 -14.117   1.691  1.00  0.00     0.163 HD
BRANCH  17  20
HETATM   20  C   UNL     1      40.482 -12.890  -0.325  1.00  0.00     0.142 A 
HETATM   21  O   UNL     1      40.320 -12.389  -1.592  1.00  0.00    -0.317 OA
HETATM   22  C   UNL     1      40.756 -11.102  -1.572  1.00  0.00     0.143 A 
HETATM   23  C   UNL     1      41.193 -10.760  -0.315  1.00  0.00     0.027 A 
HETATM   24  C   UNL     1      41.016 -11.910   0.491  1.00  0.00     0.045 A 
ENDBRANCH  17  20
ENDBRANCH  15  16
ENDBRANCH  13  15
TORSDOF 3
ENDMDL
MODEL 9
REMARK VINA RESULT:      -7.3      6.935     11.905
REMARK  3 active torsions:
REMARK  status: ('A' for Active; 'I' for Inactive)
REMARK    1  A    between atoms: C_13  and  C_14 
REMARK    2  A    between atoms: C_14  and  N_15 
REMARK       I    between atoms: N_15  and  C_16 
REMARK    3  A    between atoms: C_16  and  C_17 
ROOT
HETATM    1  C   UNL     1      38.309  -7.105  12.852  1.00  0.00     0.002 A 
HETATM    2  C   UNL     1      38.563  -6.046  13.741  1.00  0.00     0.018 A 
HETATM    3  C   UNL     1      39.878  -5.895  14.170  1.00  0.00     0.045 A 
HETATM    4  C   UNL     1      40.852  -6.772  13.719  1.00  0.00     0.017 A 
HETATM    5  C   UNL     1      40.662  -7.819  12.864  1.00  0.00    -0.015 A 
HETATM    6  C   UNL     1      39.329  -7.979  12.417  1.00  0.00     0.013 A 
HETATM    7  C   UNL     1      42.056  -6.412  14.278  1.00  0.00     0.047 A 
HETATM    8  N   UNL     1      41.823  -5.311  15.082  1.00  0.00    -0.322 N 
HETATM    9  C   UNL     1      40.475  -4.925  15.068  1.00  0.00     0.257 A 
HETATM   10  O   UNL     1      40.013  -3.983  15.695  1.00  0.00    -0.267 OA
HETATM   11  C   UNL     1      43.218  -7.102  14.004  1.00  0.00     0.031 A 
HETATM   12  C   UNL     1      43.082  -8.197  13.128  1.00  0.00     0.012 A 
HETATM   13  C   UNL     1      41.829  -8.580  12.563  1.00  0.00    -0.029 A 
HETATM   14  H   UNL     1      42.516  -4.820  15.625  1.00  0.00     0.169 HD
ENDROOT
BRANCH  13  15
HETATM   15  C   UNL     1      41.789  -9.771  11.640  1.00  0.00     0.162 C 
BRANCH  15  16
HETATM   16  N   UNL     1      42.796  -9.675  10.613  1.00  0.00    -0.351 N 
HETATM   17  C   UNL     1      43.871 -10.532  10.543  1.00  0.00     0.275 C 
HETATM   18  O   UNL     1      44.026 -11.467  11.324  1.00  0.00    -0.265 OA
HETATM   19  H   UNL     1      42.802  -8.874   9.992  1.00  0.00     0.163 HD
BRANCH  17  20
HETATM   20  C   UNL     1      44.791 -10.229   9.466  1.00  0.00     0.142 A 
HETATM   21  O   UNL     1      45.053 -11.179   8.511  1.00  0.00    -0.317 OA
HETATM   22  C   UNL     1      45.947 -10.638   7.643  1.00  0.00     0.143 A 
HETATM   23  C   UNL     1      46.267  -9.354   8.017  1.00  0.00     0.027 A 
HETATM   24  C   UNL     1      45.522  -9.088   9.190  1.00  0.00     0.045 A 
ENDBRANCH  17  20
ENDBRANCH  15  16
ENDBRANCH  13  15
TORSDOF 3
ENDMDL
MODEL 10
REMARK VINA RESULT:      -7.3      4.185      7.177
REMARK  3 active torsions:
REMARK  status: ('A' for Active; 'I' for Inactive)
REMARK    1  A    between atoms: C_13  and  C_14 
REMARK    2  A    between atoms: C_14  and  N_15 
REMARK       I    between atoms: N_15  and  C_16 
REMARK    3  A    between atoms: C_16  and  C_17 
ROOT
HETATM    1  C   UNL     1      40.774 -14.037   5.634  1.00  0.00     0.002 A 
HETATM    2  C   UNL     1      41.326 -15.173   6.252  1.00  0.00     0.018 A 
HETATM    3  C   UNL     1      42.112 -15.997   5.453  1.00  0.00     0.045 A 
HETATM    4  C   UNL     1      42.310 -15.673   4.120  1.00  0.00     0.017 A 
HETATM    5  C   UNL     1      41.796 -14.591   3.466  1.00  0.00    -0.015 A 
HETATM    6  C   UNL     1      40.998 -13.743   4.271  1.00  0.00     0.013 A 
HETATM    7  C   UNL     1      43.119 -16.631   3.554  1.00  0.00     0.047 A 
HETATM    8  N   UNL     1      43.418 -17.552   4.542  1.00  0.00    -0.322 N 
HETATM    9  C   UNL     1      42.820 -17.223   5.766  1.00  0.00     0.257 A 
HETATM   10  O   UNL     1      42.929 -17.876   6.794  1.00  0.00    -0.267 OA
HETATM   11  C   UNL     1      43.499 -16.570   2.229  1.00  0.00     0.031 A 
HETATM   12  C   UNL     1      42.994 -15.472   1.504  1.00  0.00     0.012 A 
HETATM   13  C   UNL     1      42.141 -14.490   2.087  1.00  0.00    -0.029 A 
HETATM   14  H   UNL     1      43.993 -18.372   4.429  1.00  0.00     0.169 HD
ENDROOT
BRANCH  13  15
HETATM   15  C   UNL     1      41.650 -13.356   1.222  1.00  0.00     0.162 C 
BRANCH  15  16
HETATM   16  N   UNL     1      40.927 -13.844   0.075  1.00  0.00    -0.351 N 
HETATM   17  C   UNL     1      39.947 -13.110  -0.553  1.00  0.00     0.275 C 
HETATM   18  O   UNL     1      39.650 -11.969  -0.209  1.00  0.00    -0.265 OA
HETATM   19  H   UNL     1      41.035 -14.810  -0.210  1.00  0.00     0.163 HD
BRANCH  17  20
HETATM   20  C   UNL     1      39.310 -13.805  -1.652  1.00  0.00     0.142 A 
HETATM   21  O   UNL     1      39.099 -15.159  -1.566  1.00  0.00    -0.317 OA
HETATM   22  C   UNL     1      38.507 -15.546  -2.726  1.00  0.00     0.143 A 
HETATM   23  C   UNL     1      38.327 -14.467  -3.560  1.00  0.00     0.027 A 
HETATM   24  C   UNL     1      38.843 -13.345  -2.869  1.00  0.00     0.045 A 
ENDBRANCH  17  20
ENDBRANCH  15  16
ENDBRANCH  13  15
TORSDOF 3
ENDMDL
