MODEL 1
REMARK VINA RESULT:      -8.1      0.000      0.000
REMARK  5 active torsions:
REMARK  status: ('A' for Active; 'I' for Inactive)
REMARK    1  A    between atoms: C_9  and  N_10 
REMARK       I    between atoms: N_10  and  C_11 
REMARK    2  A    between atoms: C_11  and  C_12 
REMARK    3  A    between atoms: C_12  and  N_13 
REMARK    4  A    between atoms: C_12  and  C_17 
REMARK    5  A    between atoms: C_17  and  C_18 
ROOT
HETATM    1  N   UNL     1      43.276 -14.733   4.865  1.00  0.00    -0.325 N 
HETATM    2  C   UNL     1      42.236 -14.242   5.629  1.00  0.00     0.253 C 
HETATM    3  O   UNL     1      41.138 -14.765   5.821  1.00  0.00    -0.271 OA
HETATM    4  H   UNL     1      44.140 -14.204   4.815  1.00  0.00     0.169 HD
ENDROOT
BRANCH   2   5
HETATM    5  C   UNL     1      42.514 -12.898   6.314  1.00  0.00     0.280 C 
BRANCH   5   6
HETATM    6  N   UNL     1      41.224 -12.113   6.395  1.00  0.00    -0.066 N 
HETATM    7  H   UNL     1      41.070 -11.616   5.493  1.00  0.00     0.275 HD
HETATM    8  H   UNL     1      40.435 -12.751   6.562  1.00  0.00     0.275 HD
HETATM    9  H   UNL     1      41.230 -11.433   7.162  1.00  0.00     0.275 HD
ENDBRANCH   5   6
BRANCH   5  10
HETATM   10  C   UNL     1      43.565 -12.100   5.531  1.00  0.00     0.103 C 
BRANCH  10  11
HETATM   11  C   UNL     1      44.603 -11.506   6.421  1.00  0.00     0.053 A 
HETATM   12  N   UNL     1      44.266 -11.092   7.694  1.00  0.00    -0.247 NA
HETATM   13  C   UNL     1      45.376 -10.601   8.203  1.00  0.00     0.207 A 
HETATM   14  N   UNL     1      46.415 -10.682   7.318  1.00  0.00    -0.359 N 
HETATM   15  H   UNL     1      47.363 -10.362   7.480  1.00  0.00     0.166 HD
HETATM   16  C   UNL     1      45.933 -11.261   6.173  1.00  0.00     0.116 A 
ENDBRANCH  10  11
ENDBRANCH   5  10
ENDBRANCH   2   5
BRANCH   1  17
HETATM   17  C   UNL     1      43.299 -15.949   4.143  1.00  0.00     0.035 A 
HETATM   18  C   UNL     1      42.965 -16.065   2.795  1.00  0.00     0.030 A 
HETATM   19  C   UNL     1      43.004 -17.311   2.160  1.00  0.00     0.014 A 
HETATM   20  C   UNL     1      43.380 -18.467   2.857  1.00  0.00    -0.026 A 
HETATM   21  C   UNL     1      43.420 -19.722   2.229  1.00  0.00     0.012 A 
HETATM   22  C   UNL     1      43.725 -18.362   4.221  1.00  0.00    -0.024 A 
HETATM   23  C   UNL     1      43.796 -20.862   2.939  1.00  0.00     0.001 A 
HETATM   24  C   UNL     1      44.139 -20.761   4.285  1.00  0.00     0.001 A 
HETATM   25  C   UNL     1      44.104 -19.519   4.923  1.00  0.00     0.012 A 
HETATM   26  C   UNL     1      43.679 -17.102   4.847  1.00  0.00     0.042 A 
ENDBRANCH   1  17
TORSDOF 5
ENDMDL
MODEL 2
REMARK VINA RESULT:      -8.0      4.741      6.791
REMARK  5 active torsions:
REMARK  status: ('A' for Active; 'I' for Inactive)
REMARK    1  A    between atoms: C_9  and  N_10 
REMARK       I    between atoms: N_10  and  C_11 
REMARK    2  A    between atoms: C_11  and  C_12 
REMARK    3  A    between atoms: C_12  and  N_13 
REMARK    4  A    between atoms: C_12  and  C_17 
REMARK    5  A    between atoms: C_17  and  C_18 
ROOT
HETATM    1  N   UNL     1      42.138 -15.283   1.323  1.00  0.00    -0.325 N 
HETATM    2  C   UNL     1      40.808 -15.038   1.051  1.00  0.00     0.253 C 
HETATM    3  O   UNL     1      39.828 -15.570   1.573  1.00  0.00    -0.271 OA
HETATM    4  H   UNL     1      42.847 -14.750   0.830  1.00  0.00     0.169 HD
ENDROOT
BRANCH   2   5
HETATM    5  C   UNL     1      40.552 -13.969  -0.019  1.00  0.00     0.280 C 
BRANCH   5   6
HETATM    6  N   UNL     1      39.998 -12.730   0.648  1.00  0.00    -0.066 N 
HETATM    7  H   UNL     1      39.105 -12.463   0.182  1.00  0.00     0.275 HD
HETATM    8  H   UNL     1      39.810 -12.921   1.642  1.00  0.00     0.275 HD
HETATM    9  H   UNL     1      40.651 -11.942   0.610  1.00  0.00     0.275 HD
ENDBRANCH   5   6
BRANCH   5  10
HETATM   10  C   UNL     1      39.562 -14.484  -1.072  1.00  0.00     0.103 C 
BRANCH  10  11
HETATM   11  C   UNL     1      38.986 -13.381  -1.893  1.00  0.00     0.053 A 
HETATM   12  N   UNL     1      39.800 -12.367  -2.357  1.00  0.00    -0.247 NA
HETATM   13  C   UNL     1      38.999 -11.554  -3.013  1.00  0.00     0.207 A 
HETATM   14  N   UNL     1      37.706 -11.999  -2.998  1.00  0.00    -0.359 N 
HETATM   15  H   UNL     1      36.912 -11.538  -3.429  1.00  0.00     0.166 HD
HETATM   16  C   UNL     1      37.685 -13.169  -2.286  1.00  0.00     0.116 A 
ENDBRANCH  10  11
ENDBRANCH   5  10
ENDBRANCH   2   5
BRANCH   1  17
HETATM   17  C   UNL     1      42.657 -16.198   2.269  1.00  0.00     0.035 A 
HETATM   18  C   UNL     1      43.096 -15.841   3.543  1.00  0.00     0.030 A 
HETATM   19  C   UNL     1      43.607 -16.810   4.414  1.00  0.00     0.014 A 
HETATM   20  C   UNL     1      43.687 -18.156   4.031  1.00  0.00    -0.026 A 
HETATM   21  C   UNL     1      44.201 -19.135   4.897  1.00  0.00     0.012 A 
HETATM   22  C   UNL     1      43.241 -18.530   2.746  1.00  0.00    -0.024 A 
HETATM   23  C   UNL     1      44.273 -20.470   4.498  1.00  0.00     0.001 A 
HETATM   24  C   UNL     1      43.832 -20.843   3.232  1.00  0.00     0.001 A 
HETATM   25  C   UNL     1      43.319 -19.879   2.360  1.00  0.00     0.012 A 
HETATM   26  C   UNL     1      42.732 -17.544   1.881  1.00  0.00     0.042 A 
ENDBRANCH   1  17
TORSDOF 5
ENDMDL
MODEL 3
REMARK VINA RESULT:      -7.8      1.406      2.241
REMARK  5 active torsions:
REMARK  status: ('A' for Active; 'I' for Inactive)
REMARK    1  A    between atoms: C_9  and  N_10 
REMARK       I    between atoms: N_10  and  C_11 
REMARK    2  A    between atoms: C_11  and  C_12 
REMARK    3  A    between atoms: C_12  and  N_13 
REMARK    4  A    between atoms: C_12  and  C_17 
REMARK    5  A    between atoms: C_17  and  C_18 
ROOT
HETATM    1  N   UNL     1      42.980 -14.537   3.747  1.00  0.00    -0.325 N 
HETATM    2  C   UNL     1      41.866 -13.836   4.162  1.00  0.00     0.253 C 
HETATM    3  O   UNL     1      40.932 -14.254   4.846  1.00  0.00    -0.271 OA
HETATM    4  H   UNL     1      43.689 -14.056   3.204  1.00  0.00     0.169 HD
ENDROOT
BRANCH   2   5
HETATM    5  C   UNL     1      41.822 -12.369   3.716  1.00  0.00     0.280 C 
BRANCH   5   6
HETATM    6  N   UNL     1      42.978 -12.106   2.777  1.00  0.00    -0.066 N 
HETATM    7  H   UNL     1      42.645 -12.196   1.794  1.00  0.00     0.275 HD
HETATM    8  H   UNL     1      43.336 -11.152   2.921  1.00  0.00     0.275 HD
HETATM    9  H   UNL     1      43.760 -12.749   2.933  1.00  0.00     0.275 HD
ENDBRANCH   5   6
BRANCH   5  10
HETATM   10  C   UNL     1      41.909 -11.432   4.928  1.00  0.00     0.103 C 
BRANCH  10  11
HETATM   11  C   UNL     1      43.197 -11.578   5.665  1.00  0.00     0.053 A 
HETATM   12  N   UNL     1      44.365 -11.086   5.117  1.00  0.00    -0.247 NA
HETATM   13  C   UNL     1      45.308 -11.389   5.984  1.00  0.00     0.207 A 
HETATM   14  N   UNL     1      44.802 -12.052   7.067  1.00  0.00    -0.359 N 
HETATM   15  H   UNL     1      45.334 -12.393   7.860  1.00  0.00     0.166 HD
HETATM   16  C   UNL     1      43.451 -12.177   6.876  1.00  0.00     0.116 A 
ENDBRANCH  10  11
ENDBRANCH   5  10
ENDBRANCH   2   5
BRANCH   1  17
HETATM   17  C   UNL     1      43.285 -15.890   4.027  1.00  0.00     0.035 A 
HETATM   18  C   UNL     1      43.770 -16.345   5.252  1.00  0.00     0.030 A 
HETATM   19  C   UNL     1      44.057 -17.702   5.441  1.00  0.00     0.014 A 
HETATM   20  C   UNL     1      43.862 -18.632   4.411  1.00  0.00    -0.026 A 
HETATM   21  C   UNL     1      44.150 -19.995   4.590  1.00  0.00     0.012 A 
HETATM   22  C   UNL     1      43.367 -18.184   3.168  1.00  0.00    -0.024 A 
HETATM   23  C   UNL     1      43.949 -20.906   3.554  1.00  0.00     0.001 A 
HETATM   24  C   UNL     1      43.458 -20.468   2.327  1.00  0.00     0.001 A 
HETATM   25  C   UNL     1      43.168 -19.115   2.135  1.00  0.00     0.012 A 
HETATM   26  C   UNL     1      43.085 -16.816   2.993  1.00  0.00     0.042 A 
ENDBRANCH   1  17
TORSDOF 5
ENDMDL
MODEL 4
REMARK VINA RESULT:      -7.6      3.101      4.841
REMARK  5 active torsions:
REMARK  status: ('A' for Active; 'I' for Inactive)
REMARK    1  A    between atoms: C_9  and  N_10 
REMARK       I    between atoms: N_10  and  C_11 
REMARK    2  A    between atoms: C_11  and  C_12 
REMARK    3  A    between atoms: C_12  and  N_13 
REMARK    4  A    between atoms: C_12  and  C_17 
REMARK    5  A    between atoms: C_17  and  C_18 
ROOT
HETATM    1  N   UNL     1      42.781 -14.619   3.786  1.00  0.00    -0.325 N 
HETATM    2  C   UNL     1      43.166 -13.845   2.710  1.00  0.00     0.253 C 
HETATM    3  O   UNL     1      43.914 -14.168   1.786  1.00  0.00    -0.271 OA
HETATM    4  H   UNL     1      42.136 -14.230   4.465  1.00  0.00     0.169 HD
ENDROOT
BRANCH   2   5
HETATM    5  C   UNL     1      42.568 -12.433   2.681  1.00  0.00     0.280 C 
BRANCH   5   6
HETATM    6  N   UNL     1      42.034 -12.098   4.056  1.00  0.00    -0.066 N 
HETATM    7  H   UNL     1      41.853 -11.074   4.111  1.00  0.00     0.275 HD
HETATM    8  H   UNL     1      41.152 -12.601   4.222  1.00  0.00     0.275 HD
HETATM    9  H   UNL     1      42.681 -12.370   4.802  1.00  0.00     0.275 HD
ENDBRANCH   5   6
BRANCH   5  10
HETATM   10  C   UNL     1      41.439 -12.345   1.646  1.00  0.00     0.103 C 
BRANCH  10  11
HETATM   11  C   UNL     1      40.697 -13.630   1.507  1.00  0.00     0.053 A 
HETATM   12  N   UNL     1      40.087 -14.198   2.608  1.00  0.00    -0.247 NA
HETATM   13  C   UNL     1      39.549 -15.315   2.167  1.00  0.00     0.207 A 
HETATM   14  N   UNL     1      39.781 -15.494   0.831  1.00  0.00    -0.359 N 
HETATM   15  H   UNL     1      39.473 -16.282   0.273  1.00  0.00     0.166 HD
HETATM   16  C   UNL     1      40.514 -14.421   0.397  1.00  0.00     0.116 A 
ENDBRANCH  10  11
ENDBRANCH   5  10
ENDBRANCH   2   5
BRANCH   1  17
HETATM   17  C   UNL     1      43.165 -15.954   4.052  1.00  0.00     0.035 A 
HETATM   18  C   UNL     1      43.727 -16.382   5.253  1.00  0.00     0.030 A 
HETATM   19  C   UNL     1      44.089 -17.723   5.429  1.00  0.00     0.014 A 
HETATM   20  C   UNL     1      43.893 -18.664   4.410  1.00  0.00    -0.026 A 
HETATM   21  C   UNL     1      44.255 -20.010   4.576  1.00  0.00     0.012 A 
HETATM   22  C   UNL     1      43.320 -18.244   3.190  1.00  0.00    -0.024 A 
HETATM   23  C   UNL     1      44.053 -20.933   3.549  1.00  0.00     0.001 A 
HETATM   24  C   UNL     1      43.486 -20.522   2.346  1.00  0.00     0.001 A 
HETATM   25  C   UNL     1      43.122 -19.186   2.167  1.00  0.00     0.012 A 
HETATM   26  C   UNL     1      42.964 -16.892   3.028  1.00  0.00     0.042 A 
ENDBRANCH   1  17
TORSDOF 5
ENDMDL
MODEL 5
REMARK VINA RESULT:      -7.5      2.217      4.064
REMARK  5 active torsions:
REMARK  status: ('A' for Active; 'I' for Inactive)
REMARK    1  A    between atoms: C_9  and  N_10 
REMARK       I    between atoms: N_10  and  C_11 
REMARK    2  A    between atoms: C_11  and  C_12 
REMARK    3  A    between atoms: C_12  and  N_13 
REMARK    4  A    between atoms: C_12  and  C_17 
REMARK    5  A    between atoms: C_17  and  C_18 
ROOT
HETATM    1  N   UNL     1      42.976 -14.276   5.010  1.00  0.00    -0.325 N 
HETATM    2  C   UNL     1      41.956 -13.720   5.756  1.00  0.00     0.253 C 
HETATM    3  O   UNL     1      41.131 -14.312   6.451  1.00  0.00    -0.271 OA
HETATM    4  H   UNL     1      43.603 -13.662   4.500  1.00  0.00     0.169 HD
ENDROOT
BRANCH   2   5
HETATM    5  C   UNL     1      41.877 -12.189   5.703  1.00  0.00     0.280 C 
BRANCH   5   6
HETATM    6  N   UNL     1      40.739 -11.726   6.585  1.00  0.00    -0.066 N 
HETATM    7  H   UNL     1      39.854 -12.166   6.258  1.00  0.00     0.275 HD
HETATM    8  H   UNL     1      40.912 -12.010   7.559  1.00  0.00     0.275 HD
HETATM    9  H   UNL     1      40.634 -10.707   6.582  1.00  0.00     0.275 HD
ENDBRANCH   5   6
BRANCH   5  10
HETATM   10  C   UNL     1      41.652 -11.708   4.264  1.00  0.00     0.103 C 
BRANCH  10  11
HETATM   11  C   UNL     1      40.627 -12.521   3.549  1.00  0.00     0.053 A 
HETATM   12  N   UNL     1      41.012 -13.393   2.550  1.00  0.00    -0.247 NA
HETATM   13  C   UNL     1      39.893 -13.930   2.110  1.00  0.00     0.207 A 
HETATM   14  N   UNL     1      38.804 -13.446   2.782  1.00  0.00    -0.359 N 
HETATM   15  H   UNL     1      37.838 -13.705   2.616  1.00  0.00     0.166 HD
HETATM   16  C   UNL     1      39.262 -12.545   3.707  1.00  0.00     0.116 A 
ENDBRANCH  10  11
ENDBRANCH   5  10
ENDBRANCH   2   5
BRANCH   1  17
HETATM   17  C   UNL     1      43.290 -15.650   4.892  1.00  0.00     0.035 A 
HETATM   18  C   UNL     1      43.904 -16.401   5.892  1.00  0.00     0.030 A 
HETATM   19  C   UNL     1      44.189 -17.756   5.687  1.00  0.00     0.014 A 
HETATM   20  C   UNL     1      43.864 -18.389   4.480  1.00  0.00    -0.026 A 
HETATM   21  C   UNL     1      44.149 -19.747   4.265  1.00  0.00     0.012 A 
HETATM   22  C   UNL     1      43.238 -17.640   3.461  1.00  0.00    -0.024 A 
HETATM   23  C   UNL     1      43.818 -20.360   3.056  1.00  0.00     0.001 A 
HETATM   24  C   UNL     1      43.198 -19.624   2.050  1.00  0.00     0.001 A 
HETATM   25  C   UNL     1      42.909 -18.273   2.250  1.00  0.00     0.012 A 
HETATM   26  C   UNL     1      42.959 -16.278   3.682  1.00  0.00     0.042 A 
ENDBRANCH   1  17
TORSDOF 5
ENDMDL
MODEL 6
REMARK VINA RESULT:      -7.2      2.389      3.490
REMARK  5 active torsions:
REMARK  status: ('A' for Active; 'I' for Inactive)
REMARK    1  A    between atoms: C_9  and  N_10 
REMARK       I    between atoms: N_10  and  C_11 
REMARK    2  A    between atoms: C_11  and  C_12 
REMARK    3  A    between atoms: C_12  and  N_13 
REMARK    4  A    between atoms: C_12  and  C_17 
REMARK    5  A    between atoms: C_17  and  C_18 
ROOT
HETATM    1  N   UNL     1      43.002 -14.347   4.063  1.00  0.00    -0.325 N 
HETATM    2  C   UNL     1      41.937 -13.793   4.745  1.00  0.00     0.253 C 
HETATM    3  O   UNL     1      40.880 -14.342   5.053  1.00  0.00    -0.271 OA
HETATM    4  H   UNL     1      43.827 -13.781   3.897  1.00  0.00     0.169 HD
ENDROOT
BRANCH   2   5
HETATM    5  C   UNL     1      42.128 -12.330   5.164  1.00  0.00     0.280 C 
BRANCH   5   6
HETATM    6  N   UNL     1      42.166 -12.252   6.674  1.00  0.00    -0.066 N 
HETATM    7  H   UNL     1      43.047 -12.690   7.015  1.00  0.00     0.275 HD
HETATM    8  H   UNL     1      42.145 -11.268   6.975  1.00  0.00     0.275 HD
HETATM    9  H   UNL     1      41.363 -12.718   7.108  1.00  0.00     0.275 HD
ENDBRANCH   5   6
BRANCH   5  10
HETATM   10  C   UNL     1      40.987 -11.459   4.624  1.00  0.00     0.103 C 
BRANCH  10  11
HETATM   11  C   UNL     1      41.034 -11.321   3.140  1.00  0.00     0.053 A 
HETATM   12  N   UNL     1      39.996 -11.806   2.368  1.00  0.00    -0.247 NA
HETATM   13  C   UNL     1      40.346 -11.556   1.124  1.00  0.00     0.207 A 
HETATM   14  N   UNL     1      41.559 -10.929   1.057  1.00  0.00    -0.359 N 
HETATM   15  H   UNL     1      42.037 -10.644   0.209  1.00  0.00     0.166 HD
HETATM   16  C   UNL     1      42.009 -10.771   2.341  1.00  0.00     0.116 A 
ENDBRANCH  10  11
ENDBRANCH   5  10
ENDBRANCH   2   5
BRANCH   1  17
HETATM   17  C   UNL     1      43.102 -15.671   3.577  1.00  0.00     0.035 A 
HETATM   18  C   UNL     1      42.824 -16.046   2.264  1.00  0.00     0.030 A 
HETATM   19  C   UNL     1      42.939 -17.384   1.869  1.00  0.00     0.014 A 
HETATM   20  C   UNL     1      43.335 -18.374   2.777  1.00  0.00    -0.026 A 
HETATM   21  C   UNL     1      43.450 -19.720   2.391  1.00  0.00     0.012 A 
HETATM   22  C   UNL     1      43.624 -18.007   4.108  1.00  0.00    -0.024 A 
HETATM   23  C   UNL     1      43.847 -20.692   3.309  1.00  0.00     0.001 A 
HETATM   24  C   UNL     1      44.135 -20.332   4.623  1.00  0.00     0.001 A 
HETATM   25  C   UNL     1      44.025 -18.998   5.021  1.00  0.00     0.012 A 
HETATM   26  C   UNL     1      43.503 -16.658   4.491  1.00  0.00     0.042 A 
ENDBRANCH   1  17
TORSDOF 5
ENDMDL
MODEL 7
REMARK VINA RESULT:      -7.1      4.257      5.428
REMARK  5 active torsions:
REMARK  status: ('A' for Active; 'I' for Inactive)
REMARK    1  A    between atoms: C_9  and  N_10 
REMARK       I    between atoms: N_10  and  C_11 
REMARK    2  A    between atoms: C_11  and  C_12 
REMARK    3  A    between atoms: C_12  and  N_13 
REMARK    4  A    between atoms: C_12  and  C_17 
REMARK    5  A    between atoms: C_17  and  C_18 
ROOT
HETATM    1  N   UNL     1      41.731 -14.739   1.131  1.00  0.00    -0.325 N 
HETATM    2  C   UNL     1      40.466 -14.195   1.232  1.00  0.00     0.253 C 
HETATM    3  O   UNL     1      39.646 -14.374   2.132  1.00  0.00    -0.271 OA
HETATM    4  H   UNL     1      42.313 -14.484   0.341  1.00  0.00     0.169 HD
ENDROOT
BRANCH   2   5
HETATM    5  C   UNL     1      40.072 -13.255   0.086  1.00  0.00     0.280 C 
BRANCH   5   6
HETATM    6  N   UNL     1      41.276 -13.034  -0.803  1.00  0.00    -0.066 N 
HETATM    7  H   UNL     1      41.005 -13.213  -1.793  1.00  0.00     0.275 HD
HETATM    8  H   UNL     1      41.600 -12.061  -0.718  1.00  0.00     0.275 HD
HETATM    9  H   UNL     1      42.063 -13.638  -0.550  1.00  0.00     0.275 HD
ENDBRANCH   5   6
BRANCH   5  10
HETATM   10  C   UNL     1      39.574 -11.912   0.635  1.00  0.00     0.103 C 
BRANCH  10  11
HETATM   11  C   UNL     1      40.452 -10.776   0.234  1.00  0.00     0.053 A 
HETATM   12  N   UNL     1      40.335 -10.224  -1.026  1.00  0.00    -0.247 NA
HETATM   13  C   UNL     1      41.249  -9.277  -1.074  1.00  0.00     0.207 A 
HETATM   14  N   UNL     1      41.948  -9.191   0.098  1.00  0.00    -0.359 N 
HETATM   15  H   UNL     1      42.704  -8.545   0.295  1.00  0.00     0.166 HD
HETATM   16  C   UNL     1      41.446 -10.144   0.945  1.00  0.00     0.116 A 
ENDBRANCH  10  11
ENDBRANCH   5  10
ENDBRANCH   2   5
BRANCH   1  17
HETATM   17  C   UNL     1      42.353 -15.618   2.048  1.00  0.00     0.035 A 
HETATM   18  C   UNL     1      42.893 -15.219   3.270  1.00  0.00     0.030 A 
HETATM   19  C   UNL     1      43.502 -16.154   4.114  1.00  0.00     0.014 A 
HETATM   20  C   UNL     1      43.582 -17.507   3.757  1.00  0.00    -0.026 A 
HETATM   21  C   UNL     1      44.194 -18.452   4.597  1.00  0.00     0.012 A 
HETATM   22  C   UNL     1      43.035 -17.924   2.526  1.00  0.00    -0.024 A 
HETATM   23  C   UNL     1      44.264 -19.794   4.225  1.00  0.00     0.001 A 
HETATM   24  C   UNL     1      43.723 -20.209   3.011  1.00  0.00     0.001 A 
HETATM   25  C   UNL     1      43.112 -19.280   2.166  1.00  0.00     0.012 A 
HETATM   26  C   UNL     1      42.427 -16.971   1.686  1.00  0.00     0.042 A 
ENDBRANCH   1  17
TORSDOF 5
ENDMDL
MODEL 8
REMARK VINA RESULT:      -7.0     10.940     14.739
REMARK  5 active torsions:
REMARK  status: ('A' for Active; 'I' for Inactive)
REMARK    1  A    between atoms: C_9  and  N_10 
REMARK       I    between atoms: N_10  and  C_11 
REMARK    2  A    between atoms: C_11  and  C_12 
REMARK    3  A    between atoms: C_12  and  N_13 
REMARK    4  A    between atoms: C_12  and  C_17 
REMARK    5  A    between atoms: C_17  and  C_18 
ROOT
HETATM    1  N   UNL     1      40.762  -7.480  17.074  1.00  0.00    -0.325 N 
HETATM    2  C   UNL     1      41.242  -7.479  18.368  1.00  0.00     0.253 C 
HETATM    3  O   UNL     1      42.412  -7.597  18.731  1.00  0.00    -0.271 OA
HETATM    4  H   UNL     1      39.768  -7.348  16.919  1.00  0.00     0.169 HD
ENDROOT
BRANCH   2   5
HETATM    5  C   UNL     1      40.174  -7.295  19.454  1.00  0.00     0.280 C 
BRANCH   5   6
HETATM    6  N   UNL     1      40.849  -6.871  20.739  1.00  0.00    -0.066 N 
HETATM    7  H   UNL     1      40.476  -7.443  21.525  1.00  0.00     0.275 HD
HETATM    8  H   UNL     1      41.865  -7.025  20.669  1.00  0.00     0.275 HD
HETATM    9  H   UNL     1      40.708  -5.877  20.944  1.00  0.00     0.275 HD
ENDBRANCH   5   6
BRANCH   5  10
HETATM   10  C   UNL     1      39.398  -8.600  19.677  1.00  0.00     0.103 C 
BRANCH  10  11
HETATM   11  C   UNL     1      40.005  -9.443  20.746  1.00  0.00     0.053 A 
HETATM   12  N   UNL     1      39.593  -9.299  22.056  1.00  0.00    -0.247 NA
HETATM   13  C   UNL     1      40.322 -10.153  22.743  1.00  0.00     0.207 A 
HETATM   14  N   UNL     1      41.184 -10.843  21.936  1.00  0.00    -0.359 N 
HETATM   15  H   UNL     1      41.849 -11.546  22.238  1.00  0.00     0.166 HD
HETATM   16  C   UNL     1      40.989 -10.400  20.655  1.00  0.00     0.116 A 
ENDBRANCH  10  11
ENDBRANCH   5  10
ENDBRANCH   2   5
BRANCH   1  17
HETATM   17  C   UNL     1      41.520  -7.614  15.887  1.00  0.00     0.035 A 
HETATM   18  C   UNL     1      42.565  -6.765  15.527  1.00  0.00     0.030 A 
HETATM   19  C   UNL     1      43.257  -6.962  14.327  1.00  0.00     0.014 A 
HETATM   20  C   UNL     1      42.921  -8.013  13.463  1.00  0.00    -0.026 A 
HETATM   21  C   UNL     1      43.607  -8.217  12.255  1.00  0.00     0.012 A 
HETATM   22  C   UNL     1      41.868  -8.882  13.819  1.00  0.00    -0.024 A 
HETATM   23  C   UNL     1      43.259  -9.269  11.408  1.00  0.00     0.001 A 
HETATM   24  C   UNL     1      42.222 -10.130  11.757  1.00  0.00     0.001 A 
HETATM   25  C   UNL     1      41.530  -9.938  12.955  1.00  0.00     0.012 A 
HETATM   26  C   UNL     1      41.180  -8.670  15.029  1.00  0.00     0.042 A 
ENDBRANCH   1  17
TORSDOF 5
ENDMDL
MODEL 9
REMARK VINA RESULT:      -6.9      2.294      3.837
REMARK  5 active torsions:
REMARK  status: ('A' for Active; 'I' for Inactive)
REMARK    1  A    between atoms: C_9  and  N_10 
REMARK       I    between atoms: N_10  and  C_11 
REMARK    2  A    between atoms: C_11  and  C_12 
REMARK    3  A    between atoms: C_12  and  N_13 
REMARK    4  A    between atoms: C_12  and  C_17 
REMARK    5  A    between atoms: C_17  and  C_18 
ROOT
HETATM    1  N   UNL     1      42.969 -13.103   6.539  1.00  0.00    -0.325 N 
HETATM    2  C   UNL     1      43.785 -11.990   6.561  1.00  0.00     0.253 C 
HETATM    3  O   UNL     1      44.951 -11.911   6.173  1.00  0.00    -0.271 OA
HETATM    4  H   UNL     1      42.014 -13.020   6.871  1.00  0.00     0.169 HD
ENDROOT
BRANCH   2   5
HETATM    5  C   UNL     1      43.134 -10.722   7.128  1.00  0.00     0.280 C 
BRANCH   5   6
HETATM    6  N   UNL     1      43.169 -10.785   8.638  1.00  0.00    -0.066 N 
HETATM    7  H   UNL     1      42.530 -10.059   9.024  1.00  0.00     0.275 HD
HETATM    8  H   UNL     1      42.851 -11.711   8.958  1.00  0.00     0.275 HD
HETATM    9  H   UNL     1      44.111 -10.644   9.012  1.00  0.00     0.275 HD
ENDBRANCH   5   6
BRANCH   5  10
HETATM   10  C   UNL     1      41.685 -10.596   6.642  1.00  0.00     0.103 C 
BRANCH  10  11
HETATM   11  C   UNL     1      41.601 -10.192   5.209  1.00  0.00     0.053 A 
HETATM   12  N   UNL     1      41.526 -11.156   4.224  1.00  0.00    -0.247 NA
HETATM   13  C   UNL     1      41.490 -10.488   3.090  1.00  0.00     0.207 A 
HETATM   14  N   UNL     1      41.535  -9.138   3.298  1.00  0.00    -0.359 N 
HETATM   15  H   UNL     1      41.527  -8.423   2.579  1.00  0.00     0.166 HD
HETATM   16  C   UNL     1      41.604  -8.935   4.651  1.00  0.00     0.116 A 
ENDBRANCH  10  11
ENDBRANCH   5  10
ENDBRANCH   2   5
BRANCH   1  17
HETATM   17  C   UNL     1      43.302 -14.391   6.057  1.00  0.00     0.035 A 
HETATM   18  C   UNL     1      43.991 -15.350   6.798  1.00  0.00     0.030 A 
HETATM   19  C   UNL     1      44.290 -16.597   6.240  1.00  0.00     0.014 A 
HETATM   20  C   UNL     1      43.905 -16.914   4.931  1.00  0.00    -0.026 A 
HETATM   21  C   UNL     1      44.203 -18.163   4.361  1.00  0.00     0.012 A 
HETATM   22  C   UNL     1      43.203 -15.955   4.172  1.00  0.00    -0.024 A 
HETATM   23  C   UNL     1      43.812 -18.461   3.055  1.00  0.00     0.001 A 
HETATM   24  C   UNL     1      43.117 -17.516   2.305  1.00  0.00     0.001 A 
HETATM   25  C   UNL     1      42.814 -16.271   2.859  1.00  0.00     0.012 A 
HETATM   26  C   UNL     1      42.911 -14.703   4.746  1.00  0.00     0.042 A 
ENDBRANCH   1  17
TORSDOF 5
ENDMDL
MODEL 10
REMARK VINA RESULT:      -6.9      3.057      3.820
REMARK  5 active torsions:
REMARK  status: ('A' for Active; 'I' for Inactive)
REMARK    1  A    between atoms: C_9  and  N_10 
REMARK       I    between atoms: N_10  and  C_11 
REMARK    2  A    between atoms: C_11  and  C_12 
REMARK    3  A    between atoms: C_12  and  N_13 
REMARK    4  A    between atoms: C_12  and  C_17 
REMARK    5  A    between atoms: C_17  and  C_18 
ROOT
HETATM    1  N   UNL     1      41.704 -13.098   2.890  1.00  0.00    -0.325 N 
HETATM    2  C   UNL     1      42.387 -11.901   2.970  1.00  0.00     0.253 C 
HETATM    3  O   UNL     1      43.606 -11.736   2.992  1.00  0.00    -0.271 OA
HETATM    4  H   UNL     1      40.690 -13.084   2.856  1.00  0.00     0.169 HD
ENDROOT
BRANCH   2   5
HETATM    5  C   UNL     1      41.498 -10.651   3.023  1.00  0.00     0.280 C 
BRANCH   5   6
HETATM    6  N   UNL     1      42.100  -9.662   3.995  1.00  0.00    -0.066 N 
HETATM    7  H   UNL     1      41.333  -9.127   4.455  1.00  0.00     0.275 HD
HETATM    8  H   UNL     1      42.636 -10.162   4.718  1.00  0.00     0.275 HD
HETATM    9  H   UNL     1      42.744  -9.010   3.539  1.00  0.00     0.275 HD
ENDBRANCH   5   6
BRANCH   5  10
HETATM   10  C   UNL     1      40.075 -11.018   3.463  1.00  0.00     0.103 C 
BRANCH  10  11
HETATM   11  C   UNL     1      39.894 -10.912   4.939  1.00  0.00     0.053 A 
HETATM   12  N   UNL     1      39.528  -9.707   5.505  1.00  0.00    -0.247 NA
HETATM   13  C   UNL     1      39.477  -9.935   6.800  1.00  0.00     0.207 A 
HETATM   14  N   UNL     1      39.790 -11.232   7.097  1.00  0.00    -0.359 N 
HETATM   15  H   UNL     1      39.825 -11.640   8.024  1.00  0.00     0.166 HD
HETATM   16  C   UNL     1      40.057 -11.869   5.913  1.00  0.00     0.116 A 
ENDBRANCH  10  11
ENDBRANCH   5  10
ENDBRANCH   2   5
BRANCH   1  17
HETATM   17  C   UNL     1      42.267 -14.393   2.812  1.00  0.00     0.035 A 
HETATM   18  C   UNL     1      42.545 -15.054   1.616  1.00  0.00     0.030 A 
HETATM   19  C   UNL     1      43.093 -16.342   1.629  1.00  0.00     0.014 A 
HETATM   20  C   UNL     1      43.378 -16.994   2.836  1.00  0.00    -0.026 A 
HETATM   21  C   UNL     1      43.925 -18.287   2.859  1.00  0.00     0.012 A 
HETATM   22  C   UNL     1      43.106 -16.333   4.053  1.00  0.00    -0.024 A 
HETATM   23  C   UNL     1      44.202 -18.921   4.071  1.00  0.00     0.001 A 
HETATM   24  C   UNL     1      43.937 -18.270   5.273  1.00  0.00     0.001 A 
HETATM   25  C   UNL     1      43.392 -16.985   5.265  1.00  0.00     0.012 A 
HETATM   26  C   UNL     1      42.553 -15.039   4.024  1.00  0.00     0.042 A 
ENDBRANCH   1  17
TORSDOF 5
ENDMDL
