MODEL 1
REMARK VINA RESULT:      -9.3      0.000      0.000
REMARK  5 active torsions:
REMARK  status: ('A' for Active; 'I' for Inactive)
REMARK    1  A    between atoms: C_5  and  C_6 
REMARK    2  A    between atoms: C_10  and  C_11 
REMARK       I    between atoms: C_11  and  N_12 
REMARK    3  A    between atoms: N_12  and  C_13 
REMARK    4  A    between atoms: C_14  and  C_15 
REMARK       I    between atoms: C_15  and  N_16 
REMARK    5  A    between atoms: N_16  and  C_17 
ROOT
HETATM    1  C   UNL     1      43.979 -11.499   7.803  1.00  0.00     0.274 C 
HETATM    2  N   UNL     1      42.956 -10.752   8.347  1.00  0.00    -0.321 N 
HETATM    3  O   UNL     1      45.165 -11.381   8.074  1.00  0.00    -0.266 OA
HETATM    4  H   UNL     1      42.050 -11.195   8.351  1.00  0.00     0.169 HD
ENDROOT
BRANCH   1   5
HETATM    5  C   UNL     1      43.518 -12.477   6.848  1.00  0.00     0.120 A 
HETATM    6  N   UNL     1      42.227 -12.503   6.394  1.00  0.00    -0.272 N 
HETATM    7  N   UNL     1      41.939 -13.572   5.629  1.00  0.00    -0.174 NA
HETATM    8  H   UNL     1      41.488 -11.844   6.620  1.00  0.00     0.189 HD
HETATM    9  C   UNL     1      43.094 -14.247   5.545  1.00  0.00     0.089 A 
HETATM   10  C   UNL     1      44.116 -13.578   6.271  1.00  0.00     0.071 A 
BRANCH   9  11
HETATM   11  C   UNL     1      43.214 -15.532   4.861  1.00  0.00    -0.006 A 
HETATM   12  C   UNL     1      42.863 -15.655   3.509  1.00  0.00     0.014 A 
HETATM   13  C   UNL     1      43.074 -16.857   2.828  1.00  0.00     0.007 A 
HETATM   14  C   UNL     1      43.632 -17.957   3.488  1.00  0.00    -0.062 A 
HETATM   15  C   UNL     1      43.925 -19.222   2.737  1.00  0.00     0.048 C 
HETATM   16  C   UNL     1      43.976 -17.838   4.840  1.00  0.00     0.007 A 
HETATM   17  C   UNL     1      43.758 -16.638   5.524  1.00  0.00     0.014 A 
ENDBRANCH   9  11
ENDBRANCH   1   5
BRANCH   2  18
HETATM   18  C   UNL     1      43.038  -9.514   9.022  1.00  0.00     0.050 A 
HETATM   19  C   UNL     1      43.106  -9.303  10.410  1.00  0.00     0.058 A 
HETATM   20  C   UNL     1      43.158  -7.987  10.913  1.00  0.00     0.019 A 
HETATM   21  C   UNL     1      43.193  -6.888  10.056  1.00  0.00     0.001 A 
HETATM   22  C   UNL     1      43.180  -7.093   8.684  1.00  0.00     0.002 A 
HETATM   23  C   UNL     1      43.107  -8.391   8.174  1.00  0.00     0.030 A 
BRANCH  19  24
HETATM   24  C   UNL     1      43.225 -10.342  11.458  1.00  0.00     0.254 C 
HETATM   25  N   UNL     1      42.213 -10.525  12.376  1.00  0.00    -0.352 N 
HETATM   26  H   UNL     1      42.416 -11.278  13.025  1.00  0.00     0.163 HD
HETATM   27  O   UNL     1      44.173 -11.125  11.425  1.00  0.00    -0.268 OA
BRANCH  25  28
HETATM   28  C   UNL     1      40.981  -9.827  12.518  1.00  0.00     0.084 A 
HETATM   29  C   UNL     1      39.782 -10.080  11.650  1.00  0.00     0.027 A 
HETATM   30  C   UNL     1      39.784 -10.556  13.071  1.00  0.00     0.027 A 
ENDBRANCH  25  28
ENDBRANCH  19  24
ENDBRANCH   2  18
TORSDOF 5
ENDMDL
MODEL 2
REMARK VINA RESULT:      -8.8      1.529      1.984
REMARK  5 active torsions:
REMARK  status: ('A' for Active; 'I' for Inactive)
REMARK    1  A    between atoms: C_5  and  C_6 
REMARK    2  A    between atoms: C_10  and  C_11 
REMARK       I    between atoms: C_11  and  N_12 
REMARK    3  A    between atoms: N_12  and  C_13 
REMARK    4  A    between atoms: C_14  and  C_15 
REMARK       I    between atoms: C_15  and  N_16 
REMARK    5  A    between atoms: N_16  and  C_17 
ROOT
HETATM    1  C   UNL     1      43.996 -12.328   6.817  1.00  0.00     0.274 C 
HETATM    2  N   UNL     1      43.038 -11.634   7.523  1.00  0.00    -0.321 N 
HETATM    3  O   UNL     1      45.102 -11.903   6.516  1.00  0.00    -0.266 OA
HETATM    4  H   UNL     1      42.375 -12.202   8.030  1.00  0.00     0.169 HD
ENDROOT
BRANCH   1   5
HETATM    5  C   UNL     1      43.573 -13.657   6.448  1.00  0.00     0.120 A 
HETATM    6  N   UNL     1      43.012 -14.522   7.347  1.00  0.00    -0.272 N 
HETATM    7  N   UNL     1      42.821 -15.763   6.865  1.00  0.00    -0.174 NA
HETATM    8  H   UNL     1      42.788 -14.330   8.318  1.00  0.00     0.189 HD
HETATM    9  C   UNL     1      43.234 -15.697   5.591  1.00  0.00     0.089 A 
HETATM   10  C   UNL     1      43.686 -14.386   5.281  1.00  0.00     0.071 A 
BRANCH   9  11
HETATM   11  C   UNL     1      43.275 -16.860   4.708  1.00  0.00    -0.006 A 
HETATM   12  C   UNL     1      42.780 -16.778   3.399  1.00  0.00     0.014 A 
HETATM   13  C   UNL     1      42.912 -17.858   2.522  1.00  0.00     0.007 A 
HETATM   14  C   UNL     1      43.532 -19.040   2.941  1.00  0.00    -0.062 A 
HETATM   15  C   UNL     1      43.737 -20.170   1.977  1.00  0.00     0.048 C 
HETATM   16  C   UNL     1      44.018 -19.126   4.251  1.00  0.00     0.007 A 
HETATM   17  C   UNL     1      43.881 -18.049   5.131  1.00  0.00     0.014 A 
ENDBRANCH   9  11
ENDBRANCH   1   5
BRANCH   2  18
HETATM   18  C   UNL     1      42.948 -10.241   7.743  1.00  0.00     0.050 A 
HETATM   19  C   UNL     1      43.505  -9.508   8.804  1.00  0.00     0.058 A 
HETATM   20  C   UNL     1      43.291  -8.116   8.877  1.00  0.00     0.019 A 
HETATM   21  C   UNL     1      42.577  -7.443   7.887  1.00  0.00     0.001 A 
HETATM   22  C   UNL     1      42.070  -8.154   6.809  1.00  0.00     0.002 A 
HETATM   23  C   UNL     1      42.257  -9.536   6.737  1.00  0.00     0.030 A 
BRANCH  19  24
HETATM   24  C   UNL     1      44.406 -10.024   9.859  1.00  0.00     0.254 C 
HETATM   25  N   UNL     1      44.061  -9.908  11.189  1.00  0.00    -0.352 N 
HETATM   26  H   UNL     1      44.758 -10.316  11.803  1.00  0.00     0.163 HD
HETATM   27  O   UNL     1      45.401 -10.671   9.537  1.00  0.00    -0.268 OA
BRANCH  25  28
HETATM   28  C   UNL     1      42.907  -9.319  11.778  1.00  0.00     0.084 A 
HETATM   29  C   UNL     1      42.560  -9.454  13.232  1.00  0.00     0.027 A 
HETATM   30  C   UNL     1      43.075  -8.147  12.710  1.00  0.00     0.027 A 
ENDBRANCH  25  28
ENDBRANCH  19  24
ENDBRANCH   2  18
TORSDOF 5
ENDMDL
MODEL 3
REMARK VINA RESULT:      -8.3      2.168      3.395
REMARK  5 active torsions:
REMARK  status: ('A' for Active; 'I' for Inactive)
REMARK    1  A    between atoms: C_5  and  C_6 
REMARK    2  A    between atoms: C_10  and  C_11 
REMARK       I    between atoms: C_11  and  N_12 
REMARK    3  A    between atoms: N_12  and  C_13 
REMARK    4  A    between atoms: C_14  and  C_15 
REMARK       I    between atoms: C_15  and  N_16 
REMARK    5  A    between atoms: N_16  and  C_17 
ROOT
HETATM    1  C   UNL     1      42.871 -11.779   5.872  1.00  0.00     0.274 C 
HETATM    2  N   UNL     1      42.057 -11.331   6.890  1.00  0.00    -0.321 N 
HETATM    3  O   UNL     1      43.614 -11.080   5.198  1.00  0.00    -0.266 OA
HETATM    4  H   UNL     1      41.823 -12.017   7.592  1.00  0.00     0.169 HD
ENDROOT
BRANCH   1   5
HETATM    5  C   UNL     1      42.776 -13.203   5.658  1.00  0.00     0.120 A 
HETATM    6  N   UNL     1      42.546 -14.082   6.680  1.00  0.00    -0.272 N 
HETATM    7  N   UNL     1      42.641 -15.375   6.320  1.00  0.00    -0.174 NA
HETATM    8  H   UNL     1      42.372 -13.853   7.654  1.00  0.00     0.189 HD
HETATM    9  C   UNL     1      42.902 -15.340   5.006  1.00  0.00     0.089 A 
HETATM   10  C   UNL     1      42.965 -13.997   4.545  1.00  0.00     0.071 A 
BRANCH   9  11
HETATM   11  C   UNL     1      43.161 -16.541   4.215  1.00  0.00    -0.006 A 
HETATM   12  C   UNL     1      43.953 -17.576   4.731  1.00  0.00     0.014 A 
HETATM   13  C   UNL     1      44.117 -18.767   4.018  1.00  0.00     0.007 A 
HETATM   14  C   UNL     1      43.499 -18.940   2.775  1.00  0.00    -0.062 A 
HETATM   15  C   UNL     1      43.616 -20.245   2.046  1.00  0.00     0.048 C 
HETATM   16  C   UNL     1      42.714 -17.904   2.255  1.00  0.00     0.007 A 
HETATM   17  C   UNL     1      42.555 -16.710   2.965  1.00  0.00     0.014 A 
ENDBRANCH   9  11
ENDBRANCH   1   5
BRANCH   2  18
HETATM   18  C   UNL     1      41.627 -10.012   7.152  1.00  0.00     0.050 A 
HETATM   19  C   UNL     1      41.878  -9.246   8.303  1.00  0.00     0.058 A 
HETATM   20  C   UNL     1      41.343  -7.945   8.404  1.00  0.00     0.019 A 
HETATM   21  C   UNL     1      40.609  -7.384   7.361  1.00  0.00     0.001 A 
HETATM   22  C   UNL     1      40.403  -8.115   6.200  1.00  0.00     0.002 A 
HETATM   23  C   UNL     1      40.910  -9.413   6.097  1.00  0.00     0.030 A 
BRANCH  19  24
HETATM   24  C   UNL     1      42.748  -9.618   9.441  1.00  0.00     0.254 C 
HETATM   25  N   UNL     1      44.112  -9.718   9.271  1.00  0.00    -0.352 N 
HETATM   26  H   UNL     1      44.589  -9.963  10.133  1.00  0.00     0.163 HD
HETATM   27  O   UNL     1      42.261  -9.712  10.567  1.00  0.00    -0.268 OA
BRANCH  25  28
HETATM   28  C   UNL     1      44.897  -9.526   8.099  1.00  0.00     0.084 A 
HETATM   29  C   UNL     1      46.357  -9.174   8.128  1.00  0.00     0.027 A 
HETATM   30  C   UNL     1      45.933 -10.556   7.732  1.00  0.00     0.027 A 
ENDBRANCH  25  28
ENDBRANCH  19  24
ENDBRANCH   2  18
TORSDOF 5
ENDMDL
MODEL 4
REMARK VINA RESULT:      -8.2      3.077      4.310
REMARK  5 active torsions:
REMARK  status: ('A' for Active; 'I' for Inactive)
REMARK    1  A    between atoms: C_5  and  C_6 
REMARK    2  A    between atoms: C_10  and  C_11 
REMARK       I    between atoms: C_11  and  N_12 
REMARK    3  A    between atoms: N_12  and  C_13 
REMARK    4  A    between atoms: C_14  and  C_15 
REMARK       I    between atoms: C_15  and  N_16 
REMARK    5  A    between atoms: N_16  and  C_17 
ROOT
HETATM    1  C   UNL     1      42.792 -11.773   5.558  1.00  0.00     0.274 C 
HETATM    2  N   UNL     1      42.317 -11.305   6.764  1.00  0.00    -0.321 N 
HETATM    3  O   UNL     1      43.111 -11.079   4.603  1.00  0.00    -0.266 OA
HETATM    4  H   UNL     1      42.472 -11.911   7.556  1.00  0.00     0.169 HD
ENDROOT
BRANCH   1   5
HETATM    5  C   UNL     1      42.891 -13.212   5.510  1.00  0.00     0.120 A 
HETATM    6  N   UNL     1      43.340 -13.950   6.571  1.00  0.00    -0.272 N 
HETATM    7  N   UNL     1      43.510 -15.255   6.296  1.00  0.00    -0.174 NA
HETATM    8  H   UNL     1      43.596 -13.602   7.490  1.00  0.00     0.189 HD
HETATM    9  C   UNL     1      43.118 -15.384   5.020  1.00  0.00     0.089 A 
HETATM   10  C   UNL     1      42.694 -14.131   4.500  1.00  0.00     0.071 A 
BRANCH   9  11
HETATM   11  C   UNL     1      43.212 -16.642   4.283  1.00  0.00    -0.006 A 
HETATM   12  C   UNL     1      42.471 -16.837   3.110  1.00  0.00     0.014 A 
HETATM   13  C   UNL     1      42.638 -17.999   2.350  1.00  0.00     0.007 A 
HETATM   14  C   UNL     1      43.542 -18.987   2.756  1.00  0.00    -0.062 A 
HETATM   15  C   UNL     1      43.772 -20.198   1.901  1.00  0.00     0.048 C 
HETATM   16  C   UNL     1      44.276 -18.797   3.932  1.00  0.00     0.007 A 
HETATM   17  C   UNL     1      44.105 -17.638   4.696  1.00  0.00     0.014 A 
ENDBRANCH   9  11
ENDBRANCH   1   5
BRANCH   2  18
HETATM   18  C   UNL     1      41.770 -10.036   7.058  1.00  0.00     0.050 A 
HETATM   19  C   UNL     1      40.414  -9.668   7.040  1.00  0.00     0.058 A 
HETATM   20  C   UNL     1      40.050  -8.338   7.338  1.00  0.00     0.019 A 
HETATM   21  C   UNL     1      41.007  -7.392   7.701  1.00  0.00     0.001 A 
HETATM   22  C   UNL     1      42.341  -7.764   7.772  1.00  0.00     0.002 A 
HETATM   23  C   UNL     1      42.717  -9.072   7.457  1.00  0.00     0.030 A 
BRANCH  19  24
HETATM   24  C   UNL     1      39.257 -10.564   6.822  1.00  0.00     0.254 C 
HETATM   25  N   UNL     1      38.913 -10.962   5.548  1.00  0.00    -0.352 N 
HETATM   26  H   UNL     1      38.113 -11.586   5.544  1.00  0.00     0.163 HD
HETATM   27  O   UNL     1      38.683 -11.053   7.794  1.00  0.00    -0.268 OA
BRANCH  25  28
HETATM   28  C   UNL     1      39.511 -10.626   4.301  1.00  0.00     0.084 A 
HETATM   29  C   UNL     1      39.699 -11.610   3.181  1.00  0.00     0.027 A 
HETATM   30  C   UNL     1      38.647 -10.548   3.069  1.00  0.00     0.027 A 
ENDBRANCH  25  28
ENDBRANCH  19  24
ENDBRANCH   2  18
TORSDOF 5
ENDMDL
MODEL 5
REMARK VINA RESULT:      -8.2      2.548      8.832
REMARK  5 active torsions:
REMARK  status: ('A' for Active; 'I' for Inactive)
REMARK    1  A    between atoms: C_5  and  C_6 
REMARK    2  A    between atoms: C_10  and  C_11 
REMARK       I    between atoms: C_11  and  N_12 
REMARK    3  A    between atoms: N_12  and  C_13 
REMARK    4  A    between atoms: C_14  and  C_15 
REMARK       I    between atoms: C_15  and  N_16 
REMARK    5  A    between atoms: N_16  and  C_17 
ROOT
HETATM    1  C   UNL     1      44.455 -11.204   7.276  1.00  0.00     0.274 C 
HETATM    2  N   UNL     1      43.376 -12.032   7.057  1.00  0.00    -0.321 N 
HETATM    3  O   UNL     1      45.384 -11.028   6.500  1.00  0.00    -0.266 OA
HETATM    4  H   UNL     1      42.534 -11.788   7.557  1.00  0.00     0.169 HD
ENDROOT
BRANCH   1   5
HETATM    5  C   UNL     1      44.400 -10.527   8.549  1.00  0.00     0.120 A 
HETATM    6  N   UNL     1      45.522 -10.260   9.285  1.00  0.00    -0.272 N 
HETATM    7  N   UNL     1      45.268  -9.764  10.509  1.00  0.00    -0.174 NA
HETATM    8  H   UNL     1      46.484 -10.448   9.018  1.00  0.00     0.189 HD
HETATM    9  C   UNL     1      43.932  -9.664  10.560  1.00  0.00     0.089 A 
HETATM   10  C   UNL     1      43.351 -10.104   9.340  1.00  0.00     0.071 A 
BRANCH   9  11
HETATM   11  C   UNL     1      43.213  -9.235  11.758  1.00  0.00    -0.006 A 
HETATM   12  C   UNL     1      42.167 -10.011  12.277  1.00  0.00     0.014 A 
HETATM   13  C   UNL     1      41.548  -9.654  13.478  1.00  0.00     0.007 A 
HETATM   14  C   UNL     1      41.959  -8.513  14.176  1.00  0.00    -0.062 A 
HETATM   15  C   UNL     1      41.343  -8.173  15.501  1.00  0.00     0.048 C 
HETATM   16  C   UNL     1      42.997  -7.733  13.654  1.00  0.00     0.007 A 
HETATM   17  C   UNL     1      43.612  -8.085  12.449  1.00  0.00     0.014 A 
ENDBRANCH   9  11
ENDBRANCH   1   5
BRANCH   2  18
HETATM   18  C   UNL     1      43.254 -13.085   6.124  1.00  0.00     0.050 A 
HETATM   19  C   UNL     1      42.986 -12.979   4.749  1.00  0.00     0.058 A 
HETATM   20  C   UNL     1      42.873 -14.149   3.969  1.00  0.00     0.019 A 
HETATM   21  C   UNL     1      43.073 -15.410   4.527  1.00  0.00     0.001 A 
HETATM   22  C   UNL     1      43.390 -15.518   5.873  1.00  0.00     0.002 A 
HETATM   23  C   UNL     1      43.483 -14.368   6.661  1.00  0.00     0.030 A 
BRANCH  19  24
HETATM   24  C   UNL     1      42.889 -11.730   3.960  1.00  0.00     0.254 C 
HETATM   25  N   UNL     1      41.694 -11.049   3.878  1.00  0.00    -0.352 N 
HETATM   26  H   UNL     1      41.772 -10.204   3.321  1.00  0.00     0.163 HD
HETATM   27  O   UNL     1      43.912 -11.237   3.486  1.00  0.00    -0.268 OA
BRANCH  25  28
HETATM   28  C   UNL     1      40.429 -11.364   4.450  1.00  0.00     0.084 A 
HETATM   29  C   UNL     1      39.149 -10.687   4.052  1.00  0.00     0.027 A 
HETATM   30  C   UNL     1      39.409 -12.098   3.618  1.00  0.00     0.027 A 
ENDBRANCH  25  28
ENDBRANCH  19  24
ENDBRANCH   2  18
TORSDOF 5
ENDMDL
MODEL 6
REMARK VINA RESULT:      -8.2      2.553      9.062
REMARK  5 active torsions:
REMARK  status: ('A' for Active; 'I' for Inactive)
REMARK    1  A    between atoms: C_5  and  C_6 
REMARK    2  A    between atoms: C_10  and  C_11 
REMARK       I    between atoms: C_11  and  N_12 
REMARK    3  A    between atoms: N_12  and  C_13 
REMARK    4  A    between atoms: C_14  and  C_15 
REMARK       I    between atoms: C_15  and  N_16 
REMARK    5  A    between atoms: N_16  and  C_17 
ROOT
HETATM    1  C   UNL     1      43.654 -12.327   6.505  1.00  0.00     0.274 C 
HETATM    2  N   UNL     1      43.117 -13.449   7.098  1.00  0.00    -0.321 N 
HETATM    3  O   UNL     1      43.853 -12.184   5.307  1.00  0.00    -0.266 OA
HETATM    4  H   UNL     1      42.653 -13.293   7.981  1.00  0.00     0.169 HD
ENDROOT
BRANCH   1   5
HETATM    5  C   UNL     1      43.976 -11.287   7.451  1.00  0.00     0.120 A 
HETATM    6  N   UNL     1      45.250 -11.081   7.906  1.00  0.00    -0.272 N 
HETATM    7  N   UNL     1      45.337 -10.172   8.894  1.00  0.00    -0.174 NA
HETATM    8  H   UNL     1      46.088 -11.573   7.613  1.00  0.00     0.189 HD
HETATM    9  C   UNL     1      44.080  -9.737   9.063  1.00  0.00     0.089 A 
HETATM   10  C   UNL     1      43.201 -10.390   8.157  1.00  0.00     0.071 A 
BRANCH   9  11
HETATM   11  C   UNL     1      43.702  -8.785  10.105  1.00  0.00    -0.006 A 
HETATM   12  C   UNL     1      43.099  -7.565   9.770  1.00  0.00     0.014 A 
HETATM   13  C   UNL     1      42.645  -6.700  10.770  1.00  0.00     0.007 A 
HETATM   14  C   UNL     1      42.794  -7.037  12.119  1.00  0.00    -0.062 A 
HETATM   15  C   UNL     1      42.241  -6.142  13.188  1.00  0.00     0.048 C 
HETATM   16  C   UNL     1      43.405  -8.251  12.455  1.00  0.00     0.007 A 
HETATM   17  C   UNL     1      43.865  -9.114  11.456  1.00  0.00     0.014 A 
ENDBRANCH   9  11
ENDBRANCH   1   5
BRANCH   2  18
HETATM   18  C   UNL     1      43.009 -14.754   6.569  1.00  0.00     0.050 A 
HETATM   19  C   UNL     1      41.857 -15.372   6.053  1.00  0.00     0.058 A 
HETATM   20  C   UNL     1      41.929 -16.701   5.587  1.00  0.00     0.019 A 
HETATM   21  C   UNL     1      43.135 -17.399   5.582  1.00  0.00     0.001 A 
HETATM   22  C   UNL     1      44.286 -16.776   6.041  1.00  0.00     0.002 A 
HETATM   23  C   UNL     1      44.223 -15.467   6.526  1.00  0.00     0.030 A 
BRANCH  19  24
HETATM   24  C   UNL     1      40.533 -14.743   5.846  1.00  0.00     0.254 C 
HETATM   25  N   UNL     1      40.114 -14.401   4.578  1.00  0.00    -0.352 N 
HETATM   26  H   UNL     1      39.184 -13.995   4.578  1.00  0.00     0.163 HD
HETATM   27  O   UNL     1      39.757 -14.645   6.796  1.00  0.00    -0.268 OA
BRANCH  25  28
HETATM   28  C   UNL     1      40.788 -14.543   3.332  1.00  0.00     0.084 A 
HETATM   29  C   UNL     1      40.525 -15.667   2.372  1.00  0.00     0.027 A 
HETATM   30  C   UNL     1      40.030 -14.288   2.055  1.00  0.00     0.027 A 
ENDBRANCH  25  28
ENDBRANCH  19  24
ENDBRANCH   2  18
TORSDOF 5
ENDMDL
MODEL 7
REMARK VINA RESULT:      -8.1      5.589      9.234
REMARK  5 active torsions:
REMARK  status: ('A' for Active; 'I' for Inactive)
REMARK    1  A    between atoms: C_5  and  C_6 
REMARK    2  A    between atoms: C_10  and  C_11 
REMARK       I    between atoms: C_11  and  N_12 
REMARK    3  A    between atoms: N_12  and  C_13 
REMARK    4  A    between atoms: C_14  and  C_15 
REMARK       I    between atoms: C_15  and  N_16 
REMARK    5  A    between atoms: N_16  and  C_17 
ROOT
HETATM    1  C   UNL     1      40.517 -15.338   1.836  1.00  0.00     0.274 C 
HETATM    2  N   UNL     1      41.811 -15.345   2.311  1.00  0.00    -0.321 N 
HETATM    3  O   UNL     1      39.610 -16.054   2.236  1.00  0.00    -0.266 OA
HETATM    4  H   UNL     1      42.320 -14.482   2.195  1.00  0.00     0.169 HD
ENDROOT
BRANCH   1   5
HETATM    5  C   UNL     1      40.307 -14.373   0.784  1.00  0.00     0.120 A 
HETATM    6  N   UNL     1      39.511 -14.633  -0.298  1.00  0.00    -0.272 N 
HETATM    7  N   UNL     1      39.553 -13.682  -1.249  1.00  0.00    -0.174 NA
HETATM    8  H   UNL     1      38.958 -15.469  -0.461  1.00  0.00     0.189 HD
HETATM    9  C   UNL     1      40.375 -12.747  -0.752  1.00  0.00     0.089 A 
HETATM   10  C   UNL     1      40.846 -13.128   0.533  1.00  0.00     0.071 A 
BRANCH   9  11
HETATM   11  C   UNL     1      40.768 -11.557  -1.503  1.00  0.00    -0.006 A 
HETATM   12  C   UNL     1      40.503 -11.461  -2.876  1.00  0.00     0.014 A 
HETATM   13  C   UNL     1      40.787 -10.282  -3.572  1.00  0.00     0.007 A 
HETATM   14  C   UNL     1      41.348  -9.185  -2.910  1.00  0.00    -0.062 A 
HETATM   15  C   UNL     1      41.583  -7.898  -3.643  1.00  0.00     0.048 C 
HETATM   16  C   UNL     1      41.620  -9.283  -1.541  1.00  0.00     0.007 A 
HETATM   17  C   UNL     1      41.343 -10.463  -0.845  1.00  0.00     0.014 A 
ENDBRANCH   9  11
ENDBRANCH   1   5
BRANCH   2  18
HETATM   18  C   UNL     1      42.464 -16.349   3.060  1.00  0.00     0.050 A 
HETATM   19  C   UNL     1      42.406 -16.549   4.449  1.00  0.00     0.058 A 
HETATM   20  C   UNL     1      43.150 -17.595   5.035  1.00  0.00     0.019 A 
HETATM   21  C   UNL     1      43.904 -18.468   4.253  1.00  0.00     0.001 A 
HETATM   22  C   UNL     1      43.923 -18.307   2.875  1.00  0.00     0.002 A 
HETATM   23  C   UNL     1      43.208 -17.262   2.286  1.00  0.00     0.030 A 
BRANCH  19  24
HETATM   24  C   UNL     1      41.552 -15.819   5.414  1.00  0.00     0.254 C 
HETATM   25  N   UNL     1      41.952 -14.600   5.916  1.00  0.00    -0.352 N 
HETATM   26  H   UNL     1      41.267 -14.204   6.552  1.00  0.00     0.163 HD
HETATM   27  O   UNL     1      40.425 -16.247   5.664  1.00  0.00    -0.268 OA
BRANCH  25  28
HETATM   28  C   UNL     1      43.143 -13.863   5.665  1.00  0.00     0.084 A 
HETATM   29  C   UNL     1      43.213 -12.363   5.703  1.00  0.00     0.027 A 
HETATM   30  C   UNL     1      43.829 -13.163   6.810  1.00  0.00     0.027 A 
ENDBRANCH  25  28
ENDBRANCH  19  24
ENDBRANCH   2  18
TORSDOF 5
ENDMDL
MODEL 8
REMARK VINA RESULT:      -8.0      2.065      2.365
REMARK  5 active torsions:
REMARK  status: ('A' for Active; 'I' for Inactive)
REMARK    1  A    between atoms: C_5  and  C_6 
REMARK    2  A    between atoms: C_10  and  C_11 
REMARK       I    between atoms: C_11  and  N_12 
REMARK    3  A    between atoms: N_12  and  C_13 
REMARK    4  A    between atoms: C_14  and  C_15 
REMARK       I    between atoms: C_15  and  N_16 
REMARK    5  A    between atoms: N_16  and  C_17 
ROOT
HETATM    1  C   UNL     1      42.003 -10.639   6.195  1.00  0.00     0.274 C 
HETATM    2  N   UNL     1      42.433 -10.436   7.488  1.00  0.00    -0.321 N 
HETATM    3  O   UNL     1      41.722  -9.758   5.395  1.00  0.00    -0.266 OA
HETATM    4  H   UNL     1      42.989 -11.181   7.882  1.00  0.00     0.169 HD
ENDROOT
BRANCH   1   5
HETATM    5  C   UNL     1      41.908 -12.034   5.843  1.00  0.00     0.120 A 
HETATM    6  N   UNL     1      41.050 -12.891   6.476  1.00  0.00    -0.272 N 
HETATM    7  N   UNL     1      41.205 -14.180   6.124  1.00  0.00    -0.174 NA
HETATM    8  H   UNL     1      40.373 -12.655   7.195  1.00  0.00     0.189 HD
HETATM    9  C   UNL     1      42.173 -14.161   5.196  1.00  0.00     0.089 A 
HETATM   10  C   UNL     1      42.620 -12.831   4.969  1.00  0.00     0.071 A 
BRANCH   9  11
HETATM   11  C   UNL     1      42.718 -15.374   4.591  1.00  0.00    -0.006 A 
HETATM   12  C   UNL     1      43.149 -16.439   5.395  1.00  0.00     0.014 A 
HETATM   13  C   UNL     1      43.574 -17.638   4.816  1.00  0.00     0.007 A 
HETATM   14  C   UNL     1      43.584 -17.789   3.425  1.00  0.00    -0.062 A 
HETATM   15  C   UNL     1      43.971 -19.100   2.809  1.00  0.00     0.048 C 
HETATM   16  C   UNL     1      43.162 -16.723   2.621  1.00  0.00     0.007 A 
HETATM   17  C   UNL     1      42.743 -15.521   3.199  1.00  0.00     0.014 A 
ENDBRANCH   9  11
ENDBRANCH   1   5
BRANCH   2  18
HETATM   18  C   UNL     1      42.318  -9.271   8.279  1.00  0.00     0.050 A 
HETATM   19  C   UNL     1      41.182  -8.822   8.973  1.00  0.00     0.058 A 
HETATM   20  C   UNL     1      41.241  -7.613   9.696  1.00  0.00     0.019 A 
HETATM   21  C   UNL     1      42.422  -6.878   9.778  1.00  0.00     0.001 A 
HETATM   22  C   UNL     1      43.561  -7.345   9.139  1.00  0.00     0.002 A 
HETATM   23  C   UNL     1      43.509  -8.530   8.401  1.00  0.00     0.030 A 
BRANCH  19  24
HETATM   24  C   UNL     1      39.894  -9.537   9.119  1.00  0.00     0.254 C 
HETATM   25  N   UNL     1      39.497 -10.014  10.349  1.00  0.00    -0.352 N 
HETATM   26  H   UNL     1      38.590 -10.467  10.311  1.00  0.00     0.163 HD
HETATM   27  O   UNL     1      39.122  -9.588   8.162  1.00  0.00    -0.268 OA
BRANCH  25  28
HETATM   28  C   UNL     1      40.165  -9.950  11.605  1.00  0.00     0.084 A 
HETATM   29  C   UNL     1      39.699  -9.095  12.748  1.00  0.00     0.027 A 
HETATM   30  C   UNL     1      39.521 -10.582  12.812  1.00  0.00     0.027 A 
ENDBRANCH  25  28
ENDBRANCH  19  24
ENDBRANCH   2  18
TORSDOF 5
ENDMDL
MODEL 9
REMARK VINA RESULT:      -8.0      2.724      8.704
REMARK  5 active torsions:
REMARK  status: ('A' for Active; 'I' for Inactive)
REMARK    1  A    between atoms: C_5  and  C_6 
REMARK    2  A    between atoms: C_10  and  C_11 
REMARK       I    between atoms: C_11  and  N_12 
REMARK    3  A    between atoms: N_12  and  C_13 
REMARK    4  A    between atoms: C_14  and  C_15 
REMARK       I    between atoms: C_15  and  N_16 
REMARK    5  A    between atoms: N_16  and  C_17 
ROOT
HETATM    1  C   UNL     1      43.015 -12.320   4.776  1.00  0.00     0.274 C 
HETATM    2  N   UNL     1      41.781 -12.909   4.945  1.00  0.00    -0.321 N 
HETATM    3  O   UNL     1      43.634 -12.260   3.723  1.00  0.00    -0.266 OA
HETATM    4  H   UNL     1      41.232 -12.553   5.713  1.00  0.00     0.169 HD
ENDROOT
BRANCH   1   5
HETATM    5  C   UNL     1      43.542 -11.752   5.993  1.00  0.00     0.120 A 
HETATM    6  N   UNL     1      44.675 -12.229   6.592  1.00  0.00    -0.272 N 
HETATM    7  N   UNL     1      44.930 -11.681   7.794  1.00  0.00    -0.174 NA
HETATM    8  H   UNL     1      45.282 -12.967   6.247  1.00  0.00     0.189 HD
HETATM    9  C   UNL     1      43.951 -10.783   7.969  1.00  0.00     0.089 A 
HETATM   10  C   UNL     1      43.076 -10.775   6.849  1.00  0.00     0.071 A 
BRANCH   9  11
HETATM   11  C   UNL     1      43.798 -10.003   9.194  1.00  0.00    -0.006 A 
HETATM   12  C   UNL     1      43.525  -8.629   9.136  1.00  0.00     0.014 A 
HETATM   13  C   UNL     1      43.278  -7.904  10.305  1.00  0.00     0.007 A 
HETATM   14  C   UNL     1      43.307  -8.539  11.551  1.00  0.00    -0.062 A 
HETATM   15  C   UNL     1      42.969  -7.775  12.798  1.00  0.00     0.048 C 
HETATM   16  C   UNL     1      43.587  -9.909  11.612  1.00  0.00     0.007 A 
HETATM   17  C   UNL     1      43.842 -10.633  10.444  1.00  0.00     0.014 A 
ENDBRANCH   9  11
ENDBRANCH   1   5
BRANCH   2  18
HETATM   18  C   UNL     1      41.132 -13.842   4.105  1.00  0.00     0.050 A 
HETATM   19  C   UNL     1      40.811 -15.177   4.402  1.00  0.00     0.058 A 
HETATM   20  C   UNL     1      40.180 -15.975   3.425  1.00  0.00     0.019 A 
HETATM   21  C   UNL     1      39.823 -15.450   2.185  1.00  0.00     0.001 A 
HETATM   22  C   UNL     1      40.090 -14.118   1.906  1.00  0.00     0.002 A 
HETATM   23  C   UNL     1      40.734 -13.323   2.857  1.00  0.00     0.030 A 
BRANCH  19  24
HETATM   24  C   UNL     1      40.980 -15.859   5.705  1.00  0.00     0.254 C 
HETATM   25  N   UNL     1      42.118 -16.591   5.966  1.00  0.00    -0.352 N 
HETATM   26  H   UNL     1      42.111 -16.990   6.899  1.00  0.00     0.163 HD
HETATM   27  O   UNL     1      40.157 -15.662   6.599  1.00  0.00    -0.268 OA
BRANCH  25  28
HETATM   28  C   UNL     1      43.246 -16.841   5.135  1.00  0.00     0.084 A 
HETATM   29  C   UNL     1      44.655 -16.907   5.649  1.00  0.00     0.027 A 
HETATM   30  C   UNL     1      43.954 -18.167   5.238  1.00  0.00     0.027 A 
ENDBRANCH  25  28
ENDBRANCH  19  24
ENDBRANCH   2  18
TORSDOF 5
ENDMDL
MODEL 10
REMARK VINA RESULT:      -7.9      2.855      9.365
REMARK  5 active torsions:
REMARK  status: ('A' for Active; 'I' for Inactive)
REMARK    1  A    between atoms: C_5  and  C_6 
REMARK    2  A    between atoms: C_10  and  C_11 
REMARK       I    between atoms: C_11  and  N_12 
REMARK    3  A    between atoms: N_12  and  C_13 
REMARK    4  A    between atoms: C_14  and  C_15 
REMARK       I    between atoms: C_15  and  N_16 
REMARK    5  A    between atoms: N_16  and  C_17 
ROOT
HETATM    1  C   UNL     1      43.304 -12.450   4.881  1.00  0.00     0.274 C 
HETATM    2  N   UNL     1      42.656 -13.631   5.170  1.00  0.00    -0.321 N 
HETATM    3  O   UNL     1      43.452 -11.977   3.763  1.00  0.00    -0.266 OA
HETATM    4  H   UNL     1      42.267 -13.697   6.099  1.00  0.00     0.169 HD
ENDROOT
BRANCH   1   5
HETATM    5  C   UNL     1      43.813 -11.783   6.055  1.00  0.00     0.120 A 
HETATM    6  N   UNL     1      45.058 -12.039   6.559  1.00  0.00    -0.272 N 
HETATM    7  N   UNL     1      45.305 -11.442   7.739  1.00  0.00    -0.174 NA
HETATM    8  H   UNL     1      45.760 -12.658   6.163  1.00  0.00     0.189 HD
HETATM    9  C   UNL     1      44.195 -10.735   7.996  1.00  0.00     0.089 A 
HETATM   10  C   UNL     1      43.247 -10.898   6.950  1.00  0.00     0.071 A 
BRANCH   9  11
HETATM   11  C   UNL     1      44.000  -9.984   9.233  1.00  0.00    -0.006 A 
HETATM   12  C   UNL     1      43.805  -8.596   9.201  1.00  0.00     0.014 A 
HETATM   13  C   UNL     1      43.518  -7.893  10.375  1.00  0.00     0.007 A 
HETATM   14  C   UNL     1      43.429  -8.564  11.599  1.00  0.00    -0.062 A 
HETATM   15  C   UNL     1      43.048  -7.819  12.844  1.00  0.00     0.048 C 
HETATM   16  C   UNL     1      43.631  -9.948  11.634  1.00  0.00     0.007 A 
HETATM   17  C   UNL     1      43.926 -10.652  10.462  1.00  0.00     0.014 A 
ENDBRANCH   9  11
ENDBRANCH   1   5
BRANCH   2  18
HETATM   18  C   UNL     1      42.347 -14.697   4.297  1.00  0.00     0.050 A 
HETATM   19  C   UNL     1      41.265 -14.782   3.405  1.00  0.00     0.058 A 
HETATM   20  C   UNL     1      41.096 -15.943   2.622  1.00  0.00     0.019 A 
HETATM   21  C   UNL     1      42.013 -16.991   2.680  1.00  0.00     0.001 A 
HETATM   22  C   UNL     1      43.112 -16.891   3.519  1.00  0.00     0.002 A 
HETATM   23  C   UNL     1      43.278 -15.755   4.316  1.00  0.00     0.030 A 
BRANCH  19  24
HETATM   24  C   UNL     1      40.281 -13.717   3.104  1.00  0.00     0.254 C 
HETATM   25  N   UNL     1      40.010 -13.367   1.799  1.00  0.00    -0.352 N 
HETATM   26  H   UNL     1      39.307 -12.638   1.736  1.00  0.00     0.163 HD
HETATM   27  O   UNL     1      39.613 -13.239   4.020  1.00  0.00    -0.268 OA
BRANCH  25  28
HETATM   28  C   UNL     1      40.563 -13.875   0.590  1.00  0.00     0.084 A 
HETATM   29  C   UNL     1      39.744 -14.176  -0.632  1.00  0.00     0.027 A 
HETATM   30  C   UNL     1      40.642 -12.976  -0.616  1.00  0.00     0.027 A 
ENDBRANCH  25  28
ENDBRANCH  19  24
ENDBRANCH   2  18
TORSDOF 5
ENDMDL
