MODEL 1
REMARK VINA RESULT:      -8.9      0.000      0.000
REMARK  7 active torsions:
REMARK  status: ('A' for Active; 'I' for Inactive)
REMARK    1  A    between atoms: O_2  and  C_3 
REMARK    2  A    between atoms: C_6  and  N_7 
REMARK       I    between atoms: N_7  and  C_8 
REMARK    3  A    between atoms: C_8  and  C_9 
REMARK    4  A    between atoms: C_9  and  C_10 
REMARK    5  A    between atoms: C_10  and  N_11 
REMARK    6  A    between atoms: C_10  and  C_20 
REMARK       I    between atoms: N_11  and  C_12 
REMARK    7  A    between atoms: C_12  and  C_13 
ROOT
HETATM    1  C   UNL     1      41.778 -14.795   5.571  1.00  0.00     0.126 C 
ENDROOT
BRANCH   1   2
HETATM    2  C   UNL     1      41.575 -16.037   6.462  1.00  0.00     0.133 C 
BRANCH   2   3
HETATM    3  C   UNL     1      42.785 -16.298   7.325  1.00  0.00     0.224 C 
HETATM    4  N   UNL     1      43.637 -17.337   7.104  1.00  0.00    -0.326 N 
HETATM    5  H   UNL     1      44.389 -17.302   7.784  1.00  0.00     0.169 HD
HETATM    6  O   UNL     1      43.029 -15.598   8.316  1.00  0.00    -0.273 OA
BRANCH   4   7
HETATM    7  C   UNL     1      43.741 -18.355   6.141  1.00  0.00     0.052 A 
HETATM    8  C   UNL     1      43.515 -19.715   6.315  1.00  0.00     0.149 A 
HETATM    9  N   UNL     1      43.580 -20.640   5.320  1.00  0.00    -0.235 NA
HETATM   10  C   UNL     1      43.896 -20.192   4.089  1.00  0.00     0.163 A 
HETATM   11  C   UNL     1      44.199 -18.873   3.815  1.00  0.00     0.060 A 
HETATM   12  C   UNL     1      44.118 -17.949   4.855  1.00  0.00     0.035 A 
BRANCH  10  13
HETATM   13  O   UNL     1      43.944 -21.068   3.024  1.00  0.00    -0.339 OA
HETATM   14  C   UNL     1      43.602 -20.448   1.789  1.00  0.00     0.211 C 
ENDBRANCH  10  13
ENDBRANCH   4   7
ENDBRANCH   2   3
ENDBRANCH   1   2
BRANCH   1  15
HETATM   15  N   UNL     1      42.723 -13.796   6.087  1.00  0.00    -0.348 N 
HETATM   16  C   UNL     1      42.495 -12.441   6.192  1.00  0.00     0.252 C 
HETATM   17  O   UNL     1      41.444 -11.893   5.880  1.00  0.00    -0.268 OA
HETATM   18  H   UNL     1      43.525 -14.179   6.564  1.00  0.00     0.163 HD
BRANCH  16  19
HETATM   19  C   UNL     1      43.607 -11.608   6.734  1.00  0.00     0.032 A 
HETATM   20  C   UNL     1      43.409 -10.644   7.730  1.00  0.00     0.017 A 
HETATM   21  C   UNL     1      44.496  -9.919   8.226  1.00  0.00     0.001 A 
HETATM   22  C   UNL     1      45.782 -10.160   7.742  1.00  0.00     0.000 A 
HETATM   23  C   UNL     1      45.989 -11.129   6.762  1.00  0.00     0.001 A 
HETATM   24  C   UNL     1      44.905 -11.852   6.261  1.00  0.00     0.017 A 
ENDBRANCH  16  19
ENDBRANCH   1  15
BRANCH   1  25
HETATM   25  C   UNL     1      42.070 -15.176   4.126  1.00  0.00    -0.035 A 
HETATM   26  C   UNL     1      41.272 -16.153   3.502  1.00  0.00     0.009 A 
HETATM   27  C   UNL     1      41.517 -16.548   2.186  1.00  0.00     0.001 A 
HETATM   28  C   UNL     1      42.563 -15.971   1.472  1.00  0.00     0.000 A 
HETATM   29  C   UNL     1      43.369 -15.010   2.078  1.00  0.00     0.001 A 
HETATM   30  C   UNL     1      43.129 -14.620   3.398  1.00  0.00     0.009 A 
ENDBRANCH   1  25
TORSDOF 7
ENDMDL
MODEL 2
REMARK VINA RESULT:      -8.0      2.829      6.850
REMARK  7 active torsions:
REMARK  status: ('A' for Active; 'I' for Inactive)
REMARK    1  A    between atoms: O_2  and  C_3 
REMARK    2  A    between atoms: C_6  and  N_7 
REMARK       I    between atoms: N_7  and  C_8 
REMARK    3  A    between atoms: C_8  and  C_9 
REMARK    4  A    between atoms: C_9  and  C_10 
REMARK    5  A    between atoms: C_10  and  N_11 
REMARK    6  A    between atoms: C_10  and  C_20 
REMARK       I    between atoms: N_11  and  C_12 
REMARK    7  A    between atoms: C_12  and  C_13 
ROOT
HETATM    1  C   UNL     1      42.496 -13.102   5.886  1.00  0.00     0.126 C 
ENDROOT
BRANCH   1   2
HETATM    2  C   UNL     1      41.465 -12.219   5.156  1.00  0.00     0.133 C 
BRANCH   2   3
HETATM    3  C   UNL     1      40.061 -12.735   5.354  1.00  0.00     0.224 C 
HETATM    4  N   UNL     1      39.294 -13.197   4.328  1.00  0.00    -0.326 N 
HETATM    5  H   UNL     1      38.404 -13.517   4.695  1.00  0.00     0.169 HD
HETATM    6  O   UNL     1      39.521 -12.713   6.468  1.00  0.00    -0.273 OA
BRANCH   4   7
HETATM    7  C   UNL     1      39.482 -13.389   2.949  1.00  0.00     0.052 A 
HETATM    8  C   UNL     1      39.297 -12.463   1.929  1.00  0.00     0.149 A 
HETATM    9  N   UNL     1      39.555 -12.702   0.615  1.00  0.00    -0.235 NA
HETATM   10  C   UNL     1      40.011 -13.929   0.296  1.00  0.00     0.163 A 
HETATM   11  C   UNL     1      40.174 -14.944   1.219  1.00  0.00     0.060 A 
HETATM   12  C   UNL     1      39.908 -14.665   2.558  1.00  0.00     0.035 A 
BRANCH  10  13
HETATM   13  O   UNL     1      40.327 -14.232  -1.013  1.00  0.00    -0.339 OA
HETATM   14  C   UNL     1      39.174 -14.461  -1.816  1.00  0.00     0.211 C 
ENDBRANCH  10  13
ENDBRANCH   4   7
ENDBRANCH   2   3
ENDBRANCH   1   2
BRANCH   1  15
HETATM   15  N   UNL     1      42.912 -14.313   5.167  1.00  0.00    -0.348 N 
HETATM   16  C   UNL     1      42.682 -15.612   5.564  1.00  0.00     0.252 C 
HETATM   17  O   UNL     1      42.070 -15.924   6.579  1.00  0.00    -0.268 OA
HETATM   18  H   UNL     1      43.228 -14.156   4.222  1.00  0.00     0.163 HD
BRANCH  16  19
HETATM   19  C   UNL     1      43.210 -16.693   4.682  1.00  0.00     0.032 A 
HETATM   20  C   UNL     1      44.028 -17.723   5.161  1.00  0.00     0.017 A 
HETATM   21  C   UNL     1      44.462 -18.730   4.295  1.00  0.00     0.001 A 
HETATM   22  C   UNL     1      44.073 -18.722   2.955  1.00  0.00     0.000 A 
HETATM   23  C   UNL     1      43.246 -17.709   2.475  1.00  0.00     0.001 A 
HETATM   24  C   UNL     1      42.814 -16.698   3.336  1.00  0.00     0.017 A 
ENDBRANCH  16  19
ENDBRANCH   1  15
BRANCH   1  25
HETATM   25  C   UNL     1      43.683 -12.290   6.388  1.00  0.00    -0.035 A 
HETATM   26  C   UNL     1      43.660 -11.787   7.701  1.00  0.00     0.009 A 
HETATM   27  C   UNL     1      44.717 -11.020   8.196  1.00  0.00     0.001 A 
HETATM   28  C   UNL     1      45.814 -10.745   7.384  1.00  0.00     0.000 A 
HETATM   29  C   UNL     1      45.848 -11.227   6.077  1.00  0.00     0.001 A 
HETATM   30  C   UNL     1      44.787 -11.989   5.580  1.00  0.00     0.009 A 
ENDBRANCH   1  25
TORSDOF 7
ENDMDL
MODEL 3
REMARK VINA RESULT:      -8.0      7.026     12.317
REMARK  7 active torsions:
REMARK  status: ('A' for Active; 'I' for Inactive)
REMARK    1  A    between atoms: O_2  and  C_3 
REMARK    2  A    between atoms: C_6  and  N_7 
REMARK       I    between atoms: N_7  and  C_8 
REMARK    3  A    between atoms: C_8  and  C_9 
REMARK    4  A    between atoms: C_9  and  C_10 
REMARK    5  A    between atoms: C_10  and  N_11 
REMARK    6  A    between atoms: C_10  and  C_20 
REMARK       I    between atoms: N_11  and  C_12 
REMARK    7  A    between atoms: C_12  and  C_13 
ROOT
HETATM    1  C   UNL     1      41.625  -9.972  12.357  1.00  0.00     0.126 C 
ENDROOT
BRANCH   1   2
HETATM    2  C   UNL     1      40.117 -10.023  12.044  1.00  0.00     0.133 C 
BRANCH   2   3
HETATM    3  C   UNL     1      39.765  -9.118  10.889  1.00  0.00     0.224 C 
HETATM    4  N   UNL     1      39.294  -7.852  11.062  1.00  0.00    -0.326 N 
HETATM    5  H   UNL     1      39.153  -7.422  10.154  1.00  0.00     0.169 HD
HETATM    6  O   UNL     1      39.840  -9.514   9.719  1.00  0.00    -0.273 OA
BRANCH   4   7
HETATM    7  C   UNL     1      39.047  -7.021  12.168  1.00  0.00     0.052 A 
HETATM    8  C   UNL     1      38.017  -7.127  13.095  1.00  0.00     0.149 A 
HETATM    9  N   UNL     1      37.871  -6.318  14.179  1.00  0.00    -0.235 NA
HETATM   10  C   UNL     1      38.789  -5.347  14.345  1.00  0.00     0.163 A 
HETATM   11  C   UNL     1      39.818  -5.113  13.453  1.00  0.00     0.060 A 
HETATM   12  C   UNL     1      39.945  -5.963  12.356  1.00  0.00     0.035 A 
BRANCH  10  13
HETATM   13  O   UNL     1      38.725  -4.511  15.441  1.00  0.00    -0.339 OA
HETATM   14  C   UNL     1      39.029  -5.182  16.659  1.00  0.00     0.211 C 
ENDBRANCH  10  13
ENDBRANCH   4   7
ENDBRANCH   2   3
ENDBRANCH   1   2
BRANCH   1  15
HETATM   15  N   UNL     1      42.511  -9.895  11.187  1.00  0.00    -0.348 N 
HETATM   16  C   UNL     1      43.652 -10.638  10.983  1.00  0.00     0.252 C 
HETATM   17  O   UNL     1      44.069 -11.489  11.760  1.00  0.00    -0.268 OA
HETATM   18  H   UNL     1      42.133  -9.382  10.405  1.00  0.00     0.163 HD
BRANCH  16  19
HETATM   19  C   UNL     1      44.409 -10.382   9.723  1.00  0.00     0.032 A 
HETATM   20  C   UNL     1      45.415  -9.413   9.634  1.00  0.00     0.017 A 
HETATM   21  C   UNL     1      46.117  -9.243   8.437  1.00  0.00     0.001 A 
HETATM   22  C   UNL     1      45.829 -10.046   7.333  1.00  0.00     0.000 A 
HETATM   23  C   UNL     1      44.841 -11.023   7.420  1.00  0.00     0.001 A 
HETATM   24  C   UNL     1      44.134 -11.193   8.612  1.00  0.00     0.017 A 
ENDBRANCH  16  19
ENDBRANCH   1  15
BRANCH   1  25
HETATM   25  C   UNL     1      41.952  -8.914  13.402  1.00  0.00    -0.035 A 
HETATM   26  C   UNL     1      41.160  -8.832  14.562  1.00  0.00     0.009 A 
HETATM   27  C   UNL     1      41.411  -7.864  15.536  1.00  0.00     0.001 A 
HETATM   28  C   UNL     1      42.458  -6.963  15.365  1.00  0.00     0.000 A 
HETATM   29  C   UNL     1      43.246  -7.024  14.218  1.00  0.00     0.001 A 
HETATM   30  C   UNL     1      42.991  -7.988  13.240  1.00  0.00     0.009 A 
ENDBRANCH   1  25
TORSDOF 7
ENDMDL
MODEL 4
REMARK VINA RESULT:      -7.9      4.627      8.467
REMARK  7 active torsions:
REMARK  status: ('A' for Active; 'I' for Inactive)
REMARK    1  A    between atoms: O_2  and  C_3 
REMARK    2  A    between atoms: C_6  and  N_7 
REMARK       I    between atoms: N_7  and  C_8 
REMARK    3  A    between atoms: C_8  and  C_9 
REMARK    4  A    between atoms: C_9  and  C_10 
REMARK    5  A    between atoms: C_10  and  N_11 
REMARK    6  A    between atoms: C_10  and  C_20 
REMARK       I    between atoms: N_11  and  C_12 
REMARK    7  A    between atoms: C_12  and  C_13 
ROOT
HETATM    1  C   UNL     1      41.527 -14.719   2.943  1.00  0.00     0.126 C 
ENDROOT
BRANCH   1   2
HETATM    2  C   UNL     1      41.301 -14.366   1.460  1.00  0.00     0.133 C 
BRANCH   2   3
HETATM    3  C   UNL     1      40.151 -15.149   0.877  1.00  0.00     0.224 C 
HETATM    4  N   UNL     1      39.489 -14.761  -0.248  1.00  0.00    -0.326 N 
HETATM    5  H   UNL     1      38.777 -15.448  -0.470  1.00  0.00     0.169 HD
HETATM    6  O   UNL     1      39.720 -16.166   1.436  1.00  0.00    -0.273 OA
BRANCH   4   7
HETATM    7  C   UNL     1      39.620 -13.708  -1.170  1.00  0.00     0.052 A 
HETATM    8  C   UNL     1      40.268 -13.731  -2.399  1.00  0.00     0.149 A 
HETATM    9  N   UNL     1      40.307 -12.686  -3.269  1.00  0.00    -0.235 NA
HETATM   10  C   UNL     1      39.678 -11.555  -2.894  1.00  0.00     0.163 A 
HETATM   11  C   UNL     1      39.055 -11.401  -1.670  1.00  0.00     0.060 A 
HETATM   12  C   UNL     1      39.027 -12.493  -0.804  1.00  0.00     0.035 A 
BRANCH  10  13
HETATM   13  O   UNL     1      39.645 -10.466  -3.741  1.00  0.00    -0.339 OA
HETATM   14  C   UNL     1      40.755  -9.594  -3.555  1.00  0.00     0.211 C 
ENDBRANCH  10  13
ENDBRANCH   4   7
ENDBRANCH   2   3
ENDBRANCH   1   2
BRANCH   1  15
HETATM   15  N   UNL     1      42.002 -16.085   3.201  1.00  0.00    -0.348 N 
HETATM   16  C   UNL     1      43.043 -16.717   2.558  1.00  0.00     0.252 C 
HETATM   17  O   UNL     1      43.730 -16.200   1.685  1.00  0.00    -0.268 OA
HETATM   18  H   UNL     1      41.641 -16.505   4.044  1.00  0.00     0.163 HD
BRANCH  16  19
HETATM   19  C   UNL     1      43.344 -18.118   2.974  1.00  0.00     0.032 A 
HETATM   20  C   UNL     1      43.202 -19.207   2.107  1.00  0.00     0.017 A 
HETATM   21  C   UNL     1      43.535 -20.494   2.541  1.00  0.00     0.001 A 
HETATM   22  C   UNL     1      44.022 -20.696   3.832  1.00  0.00     0.000 A 
HETATM   23  C   UNL     1      44.182 -19.614   4.695  1.00  0.00     0.001 A 
HETATM   24  C   UNL     1      43.846 -18.329   4.268  1.00  0.00     0.017 A 
ENDBRANCH  16  19
ENDBRANCH   1  15
BRANCH   1  25
HETATM   25  C   UNL     1      42.368 -13.668   3.654  1.00  0.00    -0.035 A 
HETATM   26  C   UNL     1      42.880 -12.587   2.914  1.00  0.00     0.009 A 
HETATM   27  C   UNL     1      43.674 -11.612   3.521  1.00  0.00     0.001 A 
HETATM   28  C   UNL     1      43.968 -11.702   4.878  1.00  0.00     0.000 A 
HETATM   29  C   UNL     1      43.477 -12.772   5.624  1.00  0.00     0.001 A 
HETATM   30  C   UNL     1      42.688 -13.752   5.015  1.00  0.00     0.009 A 
ENDBRANCH   1  25
TORSDOF 7
ENDMDL
MODEL 5
REMARK VINA RESULT:      -7.9      2.242      6.545
REMARK  7 active torsions:
REMARK  status: ('A' for Active; 'I' for Inactive)
REMARK    1  A    between atoms: O_2  and  C_3 
REMARK    2  A    between atoms: C_6  and  N_7 
REMARK       I    between atoms: N_7  and  C_8 
REMARK    3  A    between atoms: C_8  and  C_9 
REMARK    4  A    between atoms: C_9  and  C_10 
REMARK    5  A    between atoms: C_10  and  N_11 
REMARK    6  A    between atoms: C_10  and  C_20 
REMARK       I    between atoms: N_11  and  C_12 
REMARK    7  A    between atoms: C_12  and  C_13 
ROOT
HETATM    1  C   UNL     1      43.185 -17.103   4.756  1.00  0.00     0.126 C 
ENDROOT
BRANCH   1   2
HETATM    2  C   UNL     1      44.316 -16.452   5.575  1.00  0.00     0.133 C 
BRANCH   2   3
HETATM    3  C   UNL     1      43.848 -16.079   6.960  1.00  0.00     0.224 C 
HETATM    4  N   UNL     1      43.330 -14.856   7.258  1.00  0.00    -0.326 N 
HETATM    5  H   UNL     1      43.058 -14.839   8.235  1.00  0.00     0.169 HD
HETATM    6  O   UNL     1      43.966 -16.865   7.909  1.00  0.00    -0.273 OA
BRANCH   4   7
HETATM    7  C   UNL     1      43.031 -13.693   6.527  1.00  0.00     0.052 A 
HETATM    8  C   UNL     1      41.833 -13.366   5.904  1.00  0.00     0.149 A 
HETATM    9  N   UNL     1      41.595 -12.193   5.259  1.00  0.00    -0.235 NA
HETATM   10  C   UNL     1      42.604 -11.300   5.223  1.00  0.00     0.163 A 
HETATM   11  C   UNL     1      43.855 -11.545   5.757  1.00  0.00     0.060 A 
HETATM   12  C   UNL     1      44.064 -12.754   6.416  1.00  0.00     0.035 A 
BRANCH  10  13
HETATM   13  O   UNL     1      42.424 -10.074   4.618  1.00  0.00    -0.339 OA
HETATM   14  C   UNL     1      41.541 -10.138   3.503  1.00  0.00     0.211 C 
ENDBRANCH  10  13
ENDBRANCH   4   7
ENDBRANCH   2   3
ENDBRANCH   1   2
BRANCH   1  15
HETATM   15  N   UNL     1      42.677 -16.304   3.633  1.00  0.00    -0.348 N 
HETATM   16  C   UNL     1      41.359 -15.980   3.396  1.00  0.00     0.252 C 
HETATM   17  O   UNL     1      40.428 -16.310   4.121  1.00  0.00    -0.268 OA
HETATM   18  H   UNL     1      43.387 -15.813   3.109  1.00  0.00     0.163 HD
BRANCH  16  19
HETATM   19  C   UNL     1      41.070 -15.167   2.180  1.00  0.00     0.032 A 
HETATM   20  C   UNL     1      40.190 -15.596   1.180  1.00  0.00     0.017 A 
HETATM   21  C   UNL     1      39.928 -14.774   0.080  1.00  0.00     0.001 A 
HETATM   22  C   UNL     1      40.532 -13.520  -0.020  1.00  0.00     0.000 A 
HETATM   23  C   UNL     1      41.396 -13.080   0.980  1.00  0.00     0.001 A 
HETATM   24  C   UNL     1      41.664 -13.900   2.077  1.00  0.00     0.017 A 
ENDBRANCH  16  19
ENDBRANCH   1  15
BRANCH   1  25
HETATM   25  C   UNL     1      43.531 -18.528   4.344  1.00  0.00    -0.035 A 
HETATM   26  C   UNL     1      43.468 -18.881   2.983  1.00  0.00     0.009 A 
HETATM   27  C   UNL     1      43.756 -20.181   2.564  1.00  0.00     0.001 A 
HETATM   28  C   UNL     1      44.113 -21.148   3.498  1.00  0.00     0.000 A 
HETATM   29  C   UNL     1      44.171 -20.818   4.851  1.00  0.00     0.001 A 
HETATM   30  C   UNL     1      43.875 -19.519   5.272  1.00  0.00     0.009 A 
ENDBRANCH   1  25
TORSDOF 7
ENDMDL
MODEL 6
REMARK VINA RESULT:      -7.6      2.995      6.978
REMARK  7 active torsions:
REMARK  status: ('A' for Active; 'I' for Inactive)
REMARK    1  A    between atoms: O_2  and  C_3 
REMARK    2  A    between atoms: C_6  and  N_7 
REMARK       I    between atoms: N_7  and  C_8 
REMARK    3  A    between atoms: C_8  and  C_9 
REMARK    4  A    between atoms: C_9  and  C_10 
REMARK    5  A    between atoms: C_10  and  N_11 
REMARK    6  A    between atoms: C_10  and  C_20 
REMARK       I    between atoms: N_11  and  C_12 
REMARK    7  A    between atoms: C_12  and  C_13 
ROOT
HETATM    1  C   UNL     1      42.281 -15.953   4.091  1.00  0.00     0.126 C 
ENDROOT
BRANCH   1   2
HETATM    2  C   UNL     1      43.137 -15.216   5.140  1.00  0.00     0.133 C 
BRANCH   2   3
HETATM    3  C   UNL     1      42.343 -14.920   6.388  1.00  0.00     0.224 C 
HETATM    4  N   UNL     1      41.516 -13.843   6.498  1.00  0.00    -0.326 N 
HETATM    5  H   UNL     1      41.067 -13.859   7.407  1.00  0.00     0.169 HD
HETATM    6  O   UNL     1      42.451 -15.626   7.399  1.00  0.00    -0.273 OA
BRANCH   4   7
HETATM    7  C   UNL     1      41.110 -12.806   5.642  1.00  0.00     0.052 A 
HETATM    8  C   UNL     1      41.840 -11.688   5.255  1.00  0.00     0.149 A 
HETATM    9  N   UNL     1      41.402 -10.749   4.374  1.00  0.00    -0.235 NA
HETATM   10  C   UNL     1      40.170 -10.923   3.858  1.00  0.00     0.163 A 
HETATM   11  C   UNL     1      39.335 -11.963   4.217  1.00  0.00     0.060 A 
HETATM   12  C   UNL     1      39.816 -12.912   5.117  1.00  0.00     0.035 A 
BRANCH  10  13
HETATM   13  O   UNL     1      39.674 -10.030   2.930  1.00  0.00    -0.339 OA
HETATM   14  C   UNL     1      38.507 -10.514   2.274  1.00  0.00     0.211 C 
ENDBRANCH  10  13
ENDBRANCH   4   7
ENDBRANCH   2   3
ENDBRANCH   1   2
BRANCH   1  15
HETATM   15  N   UNL     1      41.927 -15.168   2.901  1.00  0.00    -0.348 N 
HETATM   16  C   UNL     1      40.688 -15.119   2.300  1.00  0.00     0.252 C 
HETATM   17  O   UNL     1      39.702 -15.722   2.705  1.00  0.00    -0.268 OA
HETATM   18  H   UNL     1      42.613 -14.479   2.630  1.00  0.00     0.163 HD
BRANCH  16  19
HETATM   19  C   UNL     1      40.560 -14.262   1.085  1.00  0.00     0.032 A 
HETATM   20  C   UNL     1      41.089 -12.967   1.018  1.00  0.00     0.017 A 
HETATM   21  C   UNL     1      40.970 -12.225  -0.160  1.00  0.00     0.001 A 
HETATM   22  C   UNL     1      40.338 -12.773  -1.276  1.00  0.00     0.000 A 
HETATM   23  C   UNL     1      39.824 -14.067  -1.222  1.00  0.00     0.001 A 
HETATM   24  C   UNL     1      39.936 -14.810  -0.046  1.00  0.00     0.017 A 
ENDBRANCH  16  19
ENDBRANCH   1  15
BRANCH   1  25
HETATM   25  C   UNL     1      42.866 -17.313   3.736  1.00  0.00    -0.035 A 
HETATM   26  C   UNL     1      43.651 -17.989   4.687  1.00  0.00     0.009 A 
HETATM   27  C   UNL     1      44.225 -19.228   4.397  1.00  0.00     0.001 A 
HETATM   28  C   UNL     1      44.022 -19.811   3.149  1.00  0.00     0.000 A 
HETATM   29  C   UNL     1      43.255 -19.150   2.191  1.00  0.00     0.001 A 
HETATM   30  C   UNL     1      42.687 -17.907   2.480  1.00  0.00     0.009 A 
ENDBRANCH   1  25
TORSDOF 7
ENDMDL
MODEL 7
REMARK VINA RESULT:      -7.6      3.329      7.917
REMARK  7 active torsions:
REMARK  status: ('A' for Active; 'I' for Inactive)
REMARK    1  A    between atoms: O_2  and  C_3 
REMARK    2  A    between atoms: C_6  and  N_7 
REMARK       I    between atoms: N_7  and  C_8 
REMARK    3  A    between atoms: C_8  and  C_9 
REMARK    4  A    between atoms: C_9  and  C_10 
REMARK    5  A    between atoms: C_10  and  N_11 
REMARK    6  A    between atoms: C_10  and  C_20 
REMARK       I    between atoms: N_11  and  C_12 
REMARK    7  A    between atoms: C_12  and  C_13 
ROOT
HETATM    1  C   UNL     1      42.339 -13.991   2.814  1.00  0.00     0.126 C 
ENDROOT
BRANCH   1   2
HETATM    2  C   UNL     1      43.484 -12.974   2.987  1.00  0.00     0.133 C 
BRANCH   2   3
HETATM    3  C   UNL     1      42.960 -11.560   3.031  1.00  0.00     0.224 C 
HETATM    4  N   UNL     1      43.049 -10.775   4.141  1.00  0.00    -0.326 N 
HETATM    5  H   UNL     1      42.661  -9.861   3.935  1.00  0.00     0.169 HD
HETATM    6  O   UNL     1      42.372 -11.063   2.062  1.00  0.00    -0.273 OA
BRANCH   4   7
HETATM    7  C   UNL     1      43.603 -10.921   5.424  1.00  0.00     0.052 A 
HETATM    8  C   UNL     1      44.824 -11.493   5.762  1.00  0.00     0.149 A 
HETATM    9  N   UNL     1      45.324 -11.550   7.025  1.00  0.00    -0.235 NA
HETATM   10  C   UNL     1      44.569 -11.018   8.006  1.00  0.00     0.163 A 
HETATM   11  C   UNL     1      43.316 -10.478   7.793  1.00  0.00     0.060 A 
HETATM   12  C   UNL     1      42.834 -10.430   6.486  1.00  0.00     0.035 A 
BRANCH  10  13
HETATM   13  O   UNL     1      45.029 -11.007   9.307  1.00  0.00    -0.339 OA
HETATM   14  C   UNL     1      45.284  -9.690   9.786  1.00  0.00     0.211 C 
ENDBRANCH  10  13
ENDBRANCH   4   7
ENDBRANCH   2   3
ENDBRANCH   1   2
BRANCH   1  15
HETATM   15  N   UNL     1      41.554 -13.855   1.580  1.00  0.00    -0.348 N 
HETATM   16  C   UNL     1      40.183 -13.745   1.497  1.00  0.00     0.252 C 
HETATM   17  O   UNL     1      39.434 -13.727   2.467  1.00  0.00    -0.268 OA
HETATM   18  H   UNL     1      42.096 -13.645   0.755  1.00  0.00     0.163 HD
BRANCH  16  19
HETATM   19  C   UNL     1      39.595 -13.632   0.131  1.00  0.00     0.032 A 
HETATM   20  C   UNL     1      39.036 -12.442  -0.350  1.00  0.00     0.017 A 
HETATM   21  C   UNL     1      38.533 -12.383  -1.653  1.00  0.00     0.001 A 
HETATM   22  C   UNL     1      38.597 -13.504  -2.482  1.00  0.00     0.000 A 
HETATM   23  C   UNL     1      39.167 -14.686  -2.015  1.00  0.00     0.001 A 
HETATM   24  C   UNL     1      39.666 -14.750  -0.713  1.00  0.00     0.017 A 
ENDBRANCH  16  19
ENDBRANCH   1  15
BRANCH   1  25
HETATM   25  C   UNL     1      42.811 -15.420   3.046  1.00  0.00    -0.035 A 
HETATM   26  C   UNL     1      42.837 -16.317   1.962  1.00  0.00     0.009 A 
HETATM   27  C   UNL     1      43.242 -17.641   2.134  1.00  0.00     0.001 A 
HETATM   28  C   UNL     1      43.630 -18.090   3.393  1.00  0.00     0.000 A 
HETATM   29  C   UNL     1      43.601 -17.219   4.479  1.00  0.00     0.001 A 
HETATM   30  C   UNL     1      43.189 -15.895   4.309  1.00  0.00     0.009 A 
ENDBRANCH   1  25
TORSDOF 7
ENDMDL
MODEL 8
REMARK VINA RESULT:      -7.5      4.287      6.897
REMARK  7 active torsions:
REMARK  status: ('A' for Active; 'I' for Inactive)
REMARK    1  A    between atoms: O_2  and  C_3 
REMARK    2  A    between atoms: C_6  and  N_7 
REMARK       I    between atoms: N_7  and  C_8 
REMARK    3  A    between atoms: C_8  and  C_9 
REMARK    4  A    between atoms: C_9  and  C_10 
REMARK    5  A    between atoms: C_10  and  N_11 
REMARK    6  A    between atoms: C_10  and  C_20 
REMARK       I    between atoms: N_11  and  C_12 
REMARK    7  A    between atoms: C_12  and  C_13 
ROOT
HETATM    1  C   UNL     1      42.599 -15.344   2.484  1.00  0.00     0.126 C 
ENDROOT
BRANCH   1   2
HETATM    2  C   UNL     1      41.767 -15.735   1.247  1.00  0.00     0.133 C 
BRANCH   2   3
HETATM    3  C   UNL     1      40.321 -15.336   1.407  1.00  0.00     0.224 C 
HETATM    4  N   UNL     1      39.703 -14.454   0.573  1.00  0.00    -0.326 N 
HETATM    5  H   UNL     1      38.732 -14.358   0.851  1.00  0.00     0.169 HD
HETATM    6  O   UNL     1      39.640 -15.759   2.350  1.00  0.00    -0.273 OA
BRANCH   4   7
HETATM    7  C   UNL     1      40.075 -13.742  -0.579  1.00  0.00     0.052 A 
HETATM    8  C   UNL     1      39.894 -14.117  -1.905  1.00  0.00     0.149 A 
HETATM    9  N   UNL     1      40.230 -13.349  -2.976  1.00  0.00    -0.235 NA
HETATM   10  C   UNL     1      40.783 -12.148  -2.717  1.00  0.00     0.163 A 
HETATM   11  C   UNL     1      41.064 -11.700  -1.441  1.00  0.00     0.060 A 
HETATM   12  C   UNL     1      40.702 -12.508  -0.365  1.00  0.00     0.035 A 
BRANCH  10  13
HETATM   13  O   UNL     1      41.116 -11.300  -3.753  1.00  0.00    -0.339 OA
HETATM   14  C   UNL     1      40.731  -9.952  -3.502  1.00  0.00     0.211 C 
ENDBRANCH  10  13
ENDBRANCH   4   7
ENDBRANCH   2   3
ENDBRANCH   1   2
BRANCH   1  15
HETATM   15  N   UNL     1      41.931 -14.446   3.435  1.00  0.00    -0.348 N 
HETATM   16  C   UNL     1      42.156 -13.094   3.571  1.00  0.00     0.252 C 
HETATM   17  O   UNL     1      42.945 -12.455   2.885  1.00  0.00    -0.268 OA
HETATM   18  H   UNL     1      41.119 -14.839   3.888  1.00  0.00     0.163 HD
BRANCH  16  19
HETATM   19  C   UNL     1      41.370 -12.379   4.619  1.00  0.00     0.032 A 
HETATM   20  C   UNL     1      41.913 -11.345   5.391  1.00  0.00     0.017 A 
HETATM   21  C   UNL     1      41.118 -10.686   6.333  1.00  0.00     0.001 A 
HETATM   22  C   UNL     1      39.780 -11.045   6.498  1.00  0.00     0.000 A 
HETATM   23  C   UNL     1      39.229 -12.062   5.721  1.00  0.00     0.001 A 
HETATM   24  C   UNL     1      40.021 -12.726   4.783  1.00  0.00     0.017 A 
ENDBRANCH  16  19
ENDBRANCH   1  15
BRANCH   1  25
HETATM   25  C   UNL     1      43.208 -16.562   3.165  1.00  0.00    -0.035 A 
HETATM   26  C   UNL     1      43.327 -17.762   2.442  1.00  0.00     0.009 A 
HETATM   27  C   UNL     1      43.860 -18.909   3.034  1.00  0.00     0.001 A 
HETATM   28  C   UNL     1      44.283 -18.872   4.359  1.00  0.00     0.000 A 
HETATM   29  C   UNL     1      44.164 -17.694   5.093  1.00  0.00     0.001 A 
HETATM   30  C   UNL     1      43.624 -16.549   4.503  1.00  0.00     0.009 A 
ENDBRANCH   1  25
TORSDOF 7
ENDMDL
MODEL 9
REMARK VINA RESULT:      -7.5      3.279      7.121
REMARK  7 active torsions:
REMARK  status: ('A' for Active; 'I' for Inactive)
REMARK    1  A    between atoms: O_2  and  C_3 
REMARK    2  A    between atoms: C_6  and  N_7 
REMARK       I    between atoms: N_7  and  C_8 
REMARK    3  A    between atoms: C_8  and  C_9 
REMARK    4  A    between atoms: C_9  and  C_10 
REMARK    5  A    between atoms: C_10  and  N_11 
REMARK    6  A    between atoms: C_10  and  C_20 
REMARK       I    between atoms: N_11  and  C_12 
REMARK    7  A    between atoms: C_12  and  C_13 
ROOT
HETATM    1  C   UNL     1      41.157 -13.088   1.121  1.00  0.00     0.126 C 
ENDROOT
BRANCH   1   2
HETATM    2  C   UNL     1      40.671 -12.055   2.157  1.00  0.00     0.133 C 
BRANCH   2   3
HETATM    3  C   UNL     1      39.843 -12.707   3.237  1.00  0.00     0.224 C 
HETATM    4  N   UNL     1      40.267 -12.814   4.527  1.00  0.00    -0.326 N 
HETATM    5  H   UNL     1      39.542 -13.259   5.080  1.00  0.00     0.169 HD
HETATM    6  O   UNL     1      38.750 -13.226   2.980  1.00  0.00    -0.273 OA
BRANCH   4   7
HETATM    7  C   UNL     1      41.401 -12.395   5.243  1.00  0.00     0.052 A 
HETATM    8  C   UNL     1      41.849 -11.095   5.439  1.00  0.00     0.149 A 
HETATM    9  N   UNL     1      42.929 -10.757   6.194  1.00  0.00    -0.235 NA
HETATM   10  C   UNL     1      43.605 -11.766   6.778  1.00  0.00     0.163 A 
HETATM   11  C   UNL     1      43.285 -13.098   6.601  1.00  0.00     0.060 A 
HETATM   12  C   UNL     1      42.170 -13.410   5.827  1.00  0.00     0.035 A 
BRANCH  10  13
HETATM   13  O   UNL     1      44.689 -11.497   7.587  1.00  0.00    -0.339 OA
HETATM   14  C   UNL     1      45.855 -11.153   6.846  1.00  0.00     0.211 C 
ENDBRANCH  10  13
ENDBRANCH   4   7
ENDBRANCH   2   3
ENDBRANCH   1   2
BRANCH   1  15
HETATM   15  N   UNL     1      41.617 -14.368   1.674  1.00  0.00    -0.348 N 
HETATM   16  C   UNL     1      42.818 -14.592   2.312  1.00  0.00     0.252 C 
HETATM   17  O   UNL     1      43.660 -13.727   2.519  1.00  0.00    -0.268 OA
HETATM   18  H   UNL     1      40.905 -15.080   1.741  1.00  0.00     0.163 HD
BRANCH  16  19
HETATM   19  C   UNL     1      43.084 -15.982   2.782  1.00  0.00     0.032 A 
HETATM   20  C   UNL     1      42.952 -17.098   1.946  1.00  0.00     0.017 A 
HETATM   21  C   UNL     1      43.253 -18.374   2.430  1.00  0.00     0.001 A 
HETATM   22  C   UNL     1      43.697 -18.541   3.742  1.00  0.00     0.000 A 
HETATM   23  C   UNL     1      43.847 -17.433   4.575  1.00  0.00     0.001 A 
HETATM   24  C   UNL     1      43.543 -16.158   4.096  1.00  0.00     0.017 A 
ENDBRANCH  16  19
ENDBRANCH   1  15
BRANCH   1  25
HETATM   25  C   UNL     1      40.152 -13.272  -0.009  1.00  0.00    -0.035 A 
HETATM   26  C   UNL     1      39.315 -12.198  -0.362  1.00  0.00     0.009 A 
HETATM   27  C   UNL     1      38.366 -12.329  -1.377  1.00  0.00     0.001 A 
HETATM   28  C   UNL     1      38.240 -13.538  -2.056  1.00  0.00     0.000 A 
HETATM   29  C   UNL     1      39.054 -14.615  -1.713  1.00  0.00     0.001 A 
HETATM   30  C   UNL     1      39.999 -14.486  -0.692  1.00  0.00     0.009 A 
ENDBRANCH   1  25
TORSDOF 7
ENDMDL
MODEL 10
REMARK VINA RESULT:      -7.5      2.826      4.807
REMARK  7 active torsions:
REMARK  status: ('A' for Active; 'I' for Inactive)
REMARK    1  A    between atoms: O_2  and  C_3 
REMARK    2  A    between atoms: C_6  and  N_7 
REMARK       I    between atoms: N_7  and  C_8 
REMARK    3  A    between atoms: C_8  and  C_9 
REMARK    4  A    between atoms: C_9  and  C_10 
REMARK    5  A    between atoms: C_10  and  N_11 
REMARK    6  A    between atoms: C_10  and  C_20 
REMARK       I    between atoms: N_11  and  C_12 
REMARK    7  A    between atoms: C_12  and  C_13 
ROOT
HETATM    1  C   UNL     1      42.283 -14.737   4.877  1.00  0.00     0.126 C 
ENDROOT
BRANCH   1   2
HETATM    2  C   UNL     1      40.884 -15.026   5.456  1.00  0.00     0.133 C 
BRANCH   2   3
HETATM    3  C   UNL     1      39.983 -13.821   5.345  1.00  0.00     0.224 C 
HETATM    4  N   UNL     1      39.582 -13.309   4.148  1.00  0.00    -0.326 N 
HETATM    5  H   UNL     1      38.962 -12.524   4.313  1.00  0.00     0.169 HD
HETATM    6  O   UNL     1      39.608 -13.207   6.351  1.00  0.00    -0.273 OA
BRANCH   4   7
HETATM    7  C   UNL     1      39.766 -13.660   2.800  1.00  0.00     0.052 A 
HETATM    8  C   UNL     1      39.774 -14.936   2.248  1.00  0.00     0.149 A 
HETATM    9  N   UNL     1      39.902 -15.200   0.920  1.00  0.00    -0.235 NA
HETATM   10  C   UNL     1      40.040 -14.141   0.098  1.00  0.00     0.163 A 
HETATM   11  C   UNL     1      40.107 -12.836   0.543  1.00  0.00     0.060 A 
HETATM   12  C   UNL     1      39.966 -12.598   1.909  1.00  0.00     0.035 A 
BRANCH  10  13
HETATM   13  O   UNL     1      40.139 -14.331  -1.266  1.00  0.00    -0.339 OA
HETATM   14  C   UNL     1      38.919 -14.055  -1.947  1.00  0.00     0.211 C 
ENDBRANCH  10  13
ENDBRANCH   4   7
ENDBRANCH   2   3
ENDBRANCH   1   2
BRANCH   1  15
HETATM   15  N   UNL     1      43.123 -13.835   5.675  1.00  0.00    -0.348 N 
HETATM   16  C   UNL     1      43.194 -12.465   5.547  1.00  0.00     0.252 C 
HETATM   17  O   UNL     1      42.535 -11.813   4.746  1.00  0.00    -0.268 OA
HETATM   18  H   UNL     1      43.534 -14.256   6.495  1.00  0.00     0.163 HD
BRANCH  16  19
HETATM   19  C   UNL     1      44.132 -11.748   6.459  1.00  0.00     0.032 A 
HETATM   20  C   UNL     1      43.755 -11.314   7.735  1.00  0.00     0.017 A 
HETATM   21  C   UNL     1      44.688 -10.680   8.561  1.00  0.00     0.001 A 
HETATM   22  C   UNL     1      46.000 -10.490   8.124  1.00  0.00     0.000 A 
HETATM   23  C   UNL     1      46.386 -10.935   6.861  1.00  0.00     0.001 A 
HETATM   24  C   UNL     1      45.456 -11.564   6.032  1.00  0.00     0.017 A 
ENDBRANCH  16  19
ENDBRANCH   1  15
BRANCH   1  25
HETATM   25  C   UNL     1      43.011 -16.017   4.489  1.00  0.00    -0.035 A 
HETATM   26  C   UNL     1      42.878 -16.510   3.178  1.00  0.00     0.009 A 
HETATM   27  C   UNL     1      43.511 -17.690   2.786  1.00  0.00     0.001 A 
HETATM   28  C   UNL     1      44.289 -18.397   3.699  1.00  0.00     0.000 A 
HETATM   29  C   UNL     1      44.424 -17.928   5.004  1.00  0.00     0.001 A 
HETATM   30  C   UNL     1      43.784 -16.750   5.399  1.00  0.00     0.009 A 
ENDBRANCH   1  25
TORSDOF 7
ENDMDL
