MODEL 1
REMARK VINA RESULT:      -9.1      0.000      0.000
REMARK  11 active torsions:
REMARK  status: ('A' for Active; 'I' for Inactive)
REMARK       I    between atoms: N_6  and  C_7 
REMARK    1  A    between atoms: C_7  and  C_8 
REMARK    2  A    between atoms: C_10  and  S_11 
REMARK    3  A    between atoms: S_11  and  N_12 
REMARK    4  A    between atoms: N_12  and  C_13 
REMARK    5  A    between atoms: C_15  and  O_16 
REMARK    6  A    between atoms: C_23  and  N_24 
REMARK    7  A    between atoms: N_24  and  C_25 
REMARK    8  A    between atoms: C_25  and  C_26 
REMARK    9  A    between atoms: C_26  and  C_27 
REMARK   10  A    between atoms: C_29  and  O_30 
REMARK   11  A    between atoms: C_32  and  O_33 
ROOT
HETATM    1  C   UNL     1      42.517 -12.394   5.816  1.00  0.00     0.033 A 
HETATM    2  C   UNL     1      42.396 -11.921   4.511  1.00  0.00     0.044 A 
HETATM    3  C   UNL     1      41.522 -12.556   3.606  1.00  0.00     0.102 A 
HETATM    4  C   UNL     1      40.762 -13.689   3.971  1.00  0.00     0.031 A 
HETATM    5  C   UNL     1      40.989 -14.196   5.261  1.00  0.00     0.026 A 
HETATM    6  C   UNL     1      41.835 -13.554   6.177  1.00  0.00     0.019 A 
ENDROOT
BRANCH   4   7
HETATM    7  N   UNL     1      39.967 -14.386   3.051  1.00  0.00    -0.291 NA
HETATM    8  H   UNL     1      38.962 -14.214   3.203  1.00  0.00     0.127 HD
BRANCH   7   9
HETATM    9  C   UNL     1      40.165 -15.824   2.804  1.00  0.00     0.097 C 
BRANCH   9  10
HETATM   10  C   UNL     1      41.491 -16.070   2.068  1.00  0.00     0.053 C 
BRANCH  10  11
HETATM   11  C   UNL     1      42.374 -17.064   2.783  1.00  0.00    -0.054 A 
HETATM   12  C   UNL     1      42.790 -16.833   4.104  1.00  0.00     0.046 A 
HETATM   13  C   UNL     1      43.603 -17.758   4.774  1.00  0.00     0.102 A 
HETATM   14  C   UNL     1      44.013 -18.931   4.111  1.00  0.00     0.101 A 
HETATM   15  C   UNL     1      43.600 -19.159   2.795  1.00  0.00     0.040 A 
HETATM   16  C   UNL     1      42.785 -18.233   2.137  1.00  0.00     0.010 A 
BRANCH  13  17
HETATM   17  O   UNL     1      44.046 -17.611   6.064  1.00  0.00    -0.353 OA
HETATM   18  C   UNL     1      44.526 -16.336   6.465  1.00  0.00     0.210 C 
ENDBRANCH  13  17
BRANCH  14  19
HETATM   19  O   UNL     1      44.805 -19.788   4.834  1.00  0.00    -0.353 OA
HETATM   20  C   UNL     1      44.211 -20.979   5.328  1.00  0.00     0.210 C 
ENDBRANCH  14  19
ENDBRANCH  10  11
ENDBRANCH   9  10
ENDBRANCH   7   9
ENDBRANCH   4   7
BRANCH   3  21
HETATM   21  S   UNL     1      41.307 -11.761   2.018  1.00  0.00     0.265 S 
HETATM   22  O   UNL     1      39.898 -11.448   1.882  1.00  0.00    -0.200 OA
HETATM   23  O   UNL     1      42.306 -10.715   1.931  1.00  0.00    -0.200 OA
BRANCH  21  24
HETATM   24  N   UNL     1      41.641 -12.993   0.916  1.00  0.00    -0.280 N 
HETATM   25  H   UNL     1      42.625 -13.264   0.934  1.00  0.00     0.179 HD
BRANCH  24  26
HETATM   26  C   UNL     1      41.006 -12.960  -0.356  1.00  0.00     0.045 A 
HETATM   27  C   UNL     1      40.279 -14.069  -0.799  1.00  0.00     0.066 A 
HETATM   28  C   UNL     1      39.693 -14.048  -2.065  1.00  0.00     0.070 A 
HETATM   29  C   UNL     1      39.836 -12.915  -2.872  1.00  0.00     0.037 A 
HETATM   30  C   UNL     1      40.564 -11.811  -2.428  1.00  0.00     0.005 A 
HETATM   31  C   UNL     1      41.158 -11.839  -1.170  1.00  0.00     0.030 A 
BRANCH  28  32
HETATM   32  O   UNL     1      38.969 -15.059  -2.633  1.00  0.00    -0.356 OA
HETATM   33  C   UNL     1      38.034 -14.700  -3.644  1.00  0.00     0.210 C 
ENDBRANCH  28  32
ENDBRANCH  24  26
ENDBRANCH  21  24
ENDBRANCH   3  21
BRANCH   1  34
HETATM   34  C   UNL     1      43.400 -11.741   6.825  1.00  0.00     0.253 C 
HETATM   35  N   UNL     1      43.415 -10.344   6.944  1.00  0.00    -0.345 N 
HETATM   36  C   UNL     1      44.462  -9.794   7.813  1.00  0.00     0.154 C 
HETATM   37  C   UNL     1      42.165  -9.569   6.974  1.00  0.00     0.154 C 
HETATM   38  C   UNL     1      43.987  -9.736   9.274  1.00  0.00     0.254 C 
HETATM   39  N   UNL     1      42.694  -8.911   9.352  1.00  0.00    -0.072 N 
HETATM   40  C   UNL     1      42.193  -8.792  10.761  1.00  0.00     0.269 C 
HETATM   41  H   UNL     1      42.925  -7.962   9.031  1.00  0.00     0.279 HD
HETATM   42  C   UNL     1      41.621  -9.460   8.413  1.00  0.00     0.254 C 
HETATM   43  O   UNL     1      44.091 -12.443   7.561  1.00  0.00    -0.267 OA
ENDBRANCH   1  34
TORSDOF 11
ENDMDL
MODEL 2
REMARK VINA RESULT:      -8.8      2.918      4.248
REMARK  11 active torsions:
REMARK  status: ('A' for Active; 'I' for Inactive)
REMARK       I    between atoms: N_6  and  C_7 
REMARK    1  A    between atoms: C_7  and  C_8 
REMARK    2  A    between atoms: C_10  and  S_11 
REMARK    3  A    between atoms: S_11  and  N_12 
REMARK    4  A    between atoms: N_12  and  C_13 
REMARK    5  A    between atoms: C_15  and  O_16 
REMARK    6  A    between atoms: C_23  and  N_24 
REMARK    7  A    between atoms: N_24  and  C_25 
REMARK    8  A    between atoms: C_25  and  C_26 
REMARK    9  A    between atoms: C_26  and  C_27 
REMARK   10  A    between atoms: C_29  and  O_30 
REMARK   11  A    between atoms: C_32  and  O_33 
ROOT
HETATM    1  C   UNL     1      43.487 -11.504   6.326  1.00  0.00     0.033 A 
HETATM    2  C   UNL     1      42.261 -12.161   6.265  1.00  0.00     0.044 A 
HETATM    3  C   UNL     1      41.870 -12.826   5.086  1.00  0.00     0.102 A 
HETATM    4  C   UNL     1      42.681 -12.837   3.930  1.00  0.00     0.031 A 
HETATM    5  C   UNL     1      43.861 -12.078   3.997  1.00  0.00     0.026 A 
HETATM    6  C   UNL     1      44.271 -11.437   5.175  1.00  0.00     0.019 A 
ENDROOT
BRANCH   4   7
HETATM    7  N   UNL     1      42.259 -13.409   2.723  1.00  0.00    -0.291 NA
HETATM    8  H   UNL     1      41.359 -13.901   2.824  1.00  0.00     0.127 HD
BRANCH   7   9
HETATM    9  C   UNL     1      43.163 -14.246   1.916  1.00  0.00     0.097 C 
BRANCH   9  10
HETATM   10  C   UNL     1      42.524 -15.614   1.631  1.00  0.00     0.053 C 
BRANCH  10  11
HETATM   11  C   UNL     1      43.047 -16.698   2.542  1.00  0.00    -0.054 A 
HETATM   12  C   UNL     1      43.487 -16.393   3.839  1.00  0.00     0.046 A 
HETATM   13  C   UNL     1      43.965 -17.399   4.691  1.00  0.00     0.102 A 
HETATM   14  C   UNL     1      44.011 -18.731   4.236  1.00  0.00     0.101 A 
HETATM   15  C   UNL     1      43.575 -19.033   2.943  1.00  0.00     0.040 A 
HETATM   16  C   UNL     1      43.095 -18.025   2.103  1.00  0.00     0.010 A 
BRANCH  13  17
HETATM   17  O   UNL     1      44.406 -17.186   5.973  1.00  0.00    -0.353 OA
HETATM   18  C   UNL     1      44.149 -15.923   6.567  1.00  0.00     0.210 C 
ENDBRANCH  13  17
BRANCH  14  19
HETATM   19  O   UNL     1      44.490 -19.658   5.128  1.00  0.00    -0.353 OA
HETATM   20  C   UNL     1      43.976 -20.980   5.048  1.00  0.00     0.210 C 
ENDBRANCH  14  19
ENDBRANCH  10  11
ENDBRANCH   9  10
ENDBRANCH   7   9
ENDBRANCH   4   7
BRANCH   3  21
HETATM   21  S   UNL     1      40.364 -13.787   5.175  1.00  0.00     0.265 S 
HETATM   22  O   UNL     1      40.630 -15.063   4.540  1.00  0.00    -0.200 OA
HETATM   23  O   UNL     1      39.908 -13.730   6.550  1.00  0.00    -0.200 OA
BRANCH  21  24
HETATM   24  N   UNL     1      39.305 -12.950   4.165  1.00  0.00    -0.280 N 
HETATM   25  H   UNL     1      39.236 -13.382   3.243  1.00  0.00     0.179 HD
BRANCH  24  26
HETATM   26  C   UNL     1      39.299 -11.528   4.212  1.00  0.00     0.045 A 
HETATM   27  C   UNL     1      38.842 -10.873   5.358  1.00  0.00     0.066 A 
HETATM   28  C   UNL     1      38.799  -9.478   5.383  1.00  0.00     0.070 A 
HETATM   29  C   UNL     1      39.220  -8.756   4.262  1.00  0.00     0.037 A 
HETATM   30  C   UNL     1      39.674  -9.414   3.119  1.00  0.00     0.005 A 
HETATM   31  C   UNL     1      39.704 -10.804   3.091  1.00  0.00     0.030 A 
BRANCH  28  32
HETATM   32  O   UNL     1      38.364  -8.705   6.423  1.00  0.00    -0.356 OA
HETATM   33  C   UNL     1      38.967  -7.425   6.578  1.00  0.00     0.210 C 
ENDBRANCH  28  32
ENDBRANCH  24  26
ENDBRANCH  21  24
ENDBRANCH   3  21
BRANCH   1  34
HETATM   34  C   UNL     1      43.966 -10.814   7.558  1.00  0.00     0.253 C 
HETATM   35  N   UNL     1      43.694  -9.451   7.748  1.00  0.00    -0.345 N 
HETATM   36  C   UNL     1      44.382  -8.821   8.881  1.00  0.00     0.154 C 
HETATM   37  C   UNL     1      42.353  -8.900   7.500  1.00  0.00     0.154 C 
HETATM   38  C   UNL     1      43.567  -8.983  10.175  1.00  0.00     0.254 C 
HETATM   39  N   UNL     1      42.165  -8.394   9.965  1.00  0.00    -0.072 N 
HETATM   40  C   UNL     1      41.326  -8.496  11.205  1.00  0.00     0.269 C 
HETATM   41  H   UNL     1      42.287  -7.394   9.762  1.00  0.00     0.279 HD
HETATM   42  C   UNL     1      41.468  -9.022   8.758  1.00  0.00     0.254 C 
HETATM   43  O   UNL     1      44.577 -11.459   8.407  1.00  0.00    -0.267 OA
ENDBRANCH   1  34
TORSDOF 11
ENDMDL
MODEL 3
REMARK VINA RESULT:      -8.7      2.139      8.042
REMARK  11 active torsions:
REMARK  status: ('A' for Active; 'I' for Inactive)
REMARK       I    between atoms: N_6  and  C_7 
REMARK    1  A    between atoms: C_7  and  C_8 
REMARK    2  A    between atoms: C_10  and  S_11 
REMARK    3  A    between atoms: S_11  and  N_12 
REMARK    4  A    between atoms: N_12  and  C_13 
REMARK    5  A    between atoms: C_15  and  O_16 
REMARK    6  A    between atoms: C_23  and  N_24 
REMARK    7  A    between atoms: N_24  and  C_25 
REMARK    8  A    between atoms: C_25  and  C_26 
REMARK    9  A    between atoms: C_26  and  C_27 
REMARK   10  A    between atoms: C_29  and  O_30 
REMARK   11  A    between atoms: C_32  and  O_33 
ROOT
HETATM    1  C   UNL     1      40.555 -12.318   3.765  1.00  0.00     0.033 A 
HETATM    2  C   UNL     1      41.708 -11.731   4.283  1.00  0.00     0.044 A 
HETATM    3  C   UNL     1      42.381 -12.328   5.368  1.00  0.00     0.102 A 
HETATM    4  C   UNL     1      41.913 -13.512   5.978  1.00  0.00     0.031 A 
HETATM    5  C   UNL     1      40.694 -14.015   5.495  1.00  0.00     0.026 A 
HETATM    6  C   UNL     1      40.033 -13.444   4.398  1.00  0.00     0.019 A 
ENDROOT
BRANCH   4   7
HETATM    7  N   UNL     1      42.518 -14.057   7.118  1.00  0.00    -0.291 NA
HETATM    8  H   UNL     1      43.365 -13.538   7.391  1.00  0.00     0.127 HD
BRANCH   7   9
HETATM    9  C   UNL     1      42.799 -15.499   7.219  1.00  0.00     0.097 C 
BRANCH   9  10
HETATM   10  C   UNL     1      44.099 -15.850   6.481  1.00  0.00     0.053 C 
BRANCH  10  11
HETATM   11  C   UNL     1      43.864 -16.744   5.288  1.00  0.00    -0.054 A 
HETATM   12  C   UNL     1      43.126 -16.287   4.184  1.00  0.00     0.046 A 
HETATM   13  C   UNL     1      42.913 -17.111   3.071  1.00  0.00     0.102 A 
HETATM   14  C   UNL     1      43.439 -18.418   3.062  1.00  0.00     0.101 A 
HETATM   15  C   UNL     1      44.171 -18.873   4.162  1.00  0.00     0.040 A 
HETATM   16  C   UNL     1      44.383 -18.042   5.266  1.00  0.00     0.010 A 
BRANCH  13  17
HETATM   17  O   UNL     1      42.211 -16.739   1.952  1.00  0.00    -0.353 OA
HETATM   18  C   UNL     1      40.860 -16.335   2.114  1.00  0.00     0.210 C 
ENDBRANCH  13  17
BRANCH  14  19
HETATM   19  O   UNL     1      43.189 -19.162   1.936  1.00  0.00    -0.353 OA
HETATM   20  C   UNL     1      43.674 -20.496   1.904  1.00  0.00     0.210 C 
ENDBRANCH  14  19
ENDBRANCH  10  11
ENDBRANCH   9  10
ENDBRANCH   7   9
ENDBRANCH   4   7
BRANCH   3  21
HETATM   21  S   UNL     1      43.945 -11.595   5.834  1.00  0.00     0.265 S 
HETATM   22  O   UNL     1      44.623 -12.541   6.698  1.00  0.00    -0.200 OA
HETATM   23  O   UNL     1      44.573 -11.129   4.613  1.00  0.00    -0.200 OA
BRANCH  21  24
HETATM   24  N   UNL     1      43.492 -10.290   6.801  1.00  0.00    -0.280 N 
HETATM   25  H   UNL     1      43.353  -9.439   6.254  1.00  0.00     0.179 HD
BRANCH  24  26
HETATM   26  C   UNL     1      44.105 -10.142   8.077  1.00  0.00     0.045 A 
HETATM   27  C   UNL     1      43.454 -10.615   9.219  1.00  0.00     0.066 A 
HETATM   28  C   UNL     1      44.040 -10.431  10.473  1.00  0.00     0.070 A 
HETATM   29  C   UNL     1      45.273  -9.779  10.567  1.00  0.00     0.037 A 
HETATM   30  C   UNL     1      45.918  -9.305   9.424  1.00  0.00     0.005 A 
HETATM   31  C   UNL     1      45.327  -9.479   8.177  1.00  0.00     0.030 A 
BRANCH  28  32
HETATM   32  O   UNL     1      43.516 -10.826  11.671  1.00  0.00    -0.356 OA
HETATM   33  C   UNL     1      42.714  -9.882  12.373  1.00  0.00     0.210 C 
ENDBRANCH  28  32
ENDBRANCH  24  26
ENDBRANCH  21  24
ENDBRANCH   3  21
BRANCH   1  34
HETATM   34  C   UNL     1      39.822 -11.749   2.597  1.00  0.00     0.253 C 
HETATM   35  N   UNL     1      40.461 -11.644   1.353  1.00  0.00    -0.345 N 
HETATM   36  C   UNL     1      39.732 -10.885   0.331  1.00  0.00     0.154 C 
HETATM   37  C   UNL     1      41.247 -12.759   0.803  1.00  0.00     0.154 C 
HETATM   38  C   UNL     1      38.764 -11.797  -0.442  1.00  0.00     0.254 C 
HETATM   39  N   UNL     1      39.552 -12.964  -1.055  1.00  0.00    -0.072 N 
HETATM   40  C   UNL     1      38.666 -13.878  -1.850  1.00  0.00     0.269 C 
HETATM   41  H   UNL     1      40.231 -12.555  -1.710  1.00  0.00     0.279 HD
HETATM   42  C   UNL     1      40.345 -13.725   0.006  1.00  0.00     0.254 C 
HETATM   43  O   UNL     1      38.652 -11.400   2.736  1.00  0.00    -0.267 OA
ENDBRANCH   1  34
TORSDOF 11
ENDMDL
MODEL 4
REMARK VINA RESULT:      -8.7      1.183      1.717
REMARK  11 active torsions:
REMARK  status: ('A' for Active; 'I' for Inactive)
REMARK       I    between atoms: N_6  and  C_7 
REMARK    1  A    between atoms: C_7  and  C_8 
REMARK    2  A    between atoms: C_10  and  S_11 
REMARK    3  A    between atoms: S_11  and  N_12 
REMARK    4  A    between atoms: N_12  and  C_13 
REMARK    5  A    between atoms: C_15  and  O_16 
REMARK    6  A    between atoms: C_23  and  N_24 
REMARK    7  A    between atoms: N_24  and  C_25 
REMARK    8  A    between atoms: C_25  and  C_26 
REMARK    9  A    between atoms: C_26  and  C_27 
REMARK   10  A    between atoms: C_29  and  O_30 
REMARK   11  A    between atoms: C_32  and  O_33 
ROOT
HETATM    1  C   UNL     1      41.554 -11.658   5.682  1.00  0.00     0.033 A 
HETATM    2  C   UNL     1      41.440 -11.237   4.359  1.00  0.00     0.044 A 
HETATM    3  C   UNL     1      40.799 -12.055   3.407  1.00  0.00     0.102 A 
HETATM    4  C   UNL     1      40.272 -13.321   3.744  1.00  0.00     0.031 A 
HETATM    5  C   UNL     1      40.497 -13.753   5.061  1.00  0.00     0.026 A 
HETATM    6  C   UNL     1      41.109 -12.935   6.021  1.00  0.00     0.019 A 
ENDROOT
BRANCH   4   7
HETATM    7  N   UNL     1      39.722 -14.183   2.786  1.00  0.00    -0.291 NA
HETATM    8  H   UNL     1      38.694 -14.118   2.754  1.00  0.00     0.127 HD
BRANCH   7   9
HETATM    9  C   UNL     1      40.104 -15.604   2.725  1.00  0.00     0.097 C 
BRANCH   9  10
HETATM   10  C   UNL     1      41.463 -15.770   2.030  1.00  0.00     0.053 C 
BRANCH  10  11
HETATM   11  C   UNL     1      42.356 -16.764   2.735  1.00  0.00    -0.054 A 
HETATM   12  C   UNL     1      42.893 -16.474   3.999  1.00  0.00     0.046 A 
HETATM   13  C   UNL     1      43.715 -17.398   4.659  1.00  0.00     0.102 A 
HETATM   14  C   UNL     1      44.011 -18.630   4.043  1.00  0.00     0.101 A 
HETATM   15  C   UNL     1      43.477 -18.916   2.784  1.00  0.00     0.040 A 
HETATM   16  C   UNL     1      42.654 -17.991   2.135  1.00  0.00     0.010 A 
BRANCH  13  17
HETATM   17  O   UNL     1      44.272 -17.196   5.897  1.00  0.00    -0.353 OA
HETATM   18  C   UNL     1      43.402 -17.097   7.013  1.00  0.00     0.210 C 
ENDBRANCH  13  17
BRANCH  14  19
HETATM   19  O   UNL     1      44.820 -19.481   4.754  1.00  0.00    -0.353 OA
HETATM   20  C   UNL     1      44.262 -20.712   5.191  1.00  0.00     0.210 C 
ENDBRANCH  14  19
ENDBRANCH  10  11
ENDBRANCH   9  10
ENDBRANCH   7   9
ENDBRANCH   4   7
BRANCH   3  21
HETATM   21  S   UNL     1      40.548 -11.343   1.786  1.00  0.00     0.265 S 
HETATM   22  O   UNL     1      39.138 -11.473   1.473  1.00  0.00    -0.200 OA
HETATM   23  O   UNL     1      41.185 -10.041   1.794  1.00  0.00    -0.200 OA
BRANCH  21  24
HETATM   24  N   UNL     1      41.374 -12.399   0.763  1.00  0.00    -0.280 N 
HETATM   25  H   UNL     1      42.386 -12.326   0.875  1.00  0.00     0.179 HD
BRANCH  24  26
HETATM   26  C   UNL     1      40.885 -12.588  -0.560  1.00  0.00     0.045 A 
HETATM   27  C   UNL     1      40.180 -13.751  -0.880  1.00  0.00     0.066 A 
HETATM   28  C   UNL     1      39.739 -13.950  -2.190  1.00  0.00     0.070 A 
HETATM   29  C   UNL     1      40.005 -12.981  -3.162  1.00  0.00     0.037 A 
HETATM   30  C   UNL     1      40.712 -11.823  -2.839  1.00  0.00     0.005 A 
HETATM   31  C   UNL     1      41.162 -11.631  -1.536  1.00  0.00     0.030 A 
BRANCH  28  32
HETATM   32  O   UNL     1      39.053 -15.039  -2.650  1.00  0.00    -0.356 OA
HETATM   33  C   UNL     1      38.071 -14.812  -3.655  1.00  0.00     0.210 C 
ENDBRANCH  28  32
ENDBRANCH  24  26
ENDBRANCH  21  24
ENDBRANCH   3  21
BRANCH   1  34
HETATM   34  C   UNL     1      42.192 -10.820   6.737  1.00  0.00     0.253 C 
HETATM   35  N   UNL     1      43.132 -11.387   7.609  1.00  0.00    -0.345 N 
HETATM   36  C   UNL     1      43.542 -10.540   8.736  1.00  0.00     0.154 C 
HETATM   37  C   UNL     1      44.209 -12.254   7.109  1.00  0.00     0.154 C 
HETATM   38  C   UNL     1      44.720  -9.634   8.339  1.00  0.00     0.254 C 
HETATM   39  N   UNL     1      45.878 -10.506   7.834  1.00  0.00    -0.072 N 
HETATM   40  C   UNL     1      47.074  -9.680   7.457  1.00  0.00     0.269 C 
HETATM   41  H   UNL     1      46.161 -11.110   8.616  1.00  0.00     0.279 HD
HETATM   42  C   UNL     1      45.437 -11.419   6.691  1.00  0.00     0.254 C 
HETATM   43  O   UNL     1      41.901  -9.628   6.813  1.00  0.00    -0.267 OA
ENDBRANCH   1  34
TORSDOF 11
ENDMDL
MODEL 5
REMARK VINA RESULT:      -8.5      1.906      2.852
REMARK  11 active torsions:
REMARK  status: ('A' for Active; 'I' for Inactive)
REMARK       I    between atoms: N_6  and  C_7 
REMARK    1  A    between atoms: C_7  and  C_8 
REMARK    2  A    between atoms: C_10  and  S_11 
REMARK    3  A    between atoms: S_11  and  N_12 
REMARK    4  A    between atoms: N_12  and  C_13 
REMARK    5  A    between atoms: C_15  and  O_16 
REMARK    6  A    between atoms: C_23  and  N_24 
REMARK    7  A    between atoms: N_24  and  C_25 
REMARK    8  A    between atoms: C_25  and  C_26 
REMARK    9  A    between atoms: C_26  and  C_27 
REMARK   10  A    between atoms: C_29  and  O_30 
REMARK   11  A    between atoms: C_32  and  O_33 
ROOT
HETATM    1  C   UNL     1      43.497 -11.596   6.328  1.00  0.00     0.033 A 
HETATM    2  C   UNL     1      42.310 -12.320   6.249  1.00  0.00     0.044 A 
HETATM    3  C   UNL     1      41.971 -12.998   5.061  1.00  0.00     0.102 A 
HETATM    4  C   UNL     1      42.794 -12.956   3.915  1.00  0.00     0.031 A 
HETATM    5  C   UNL     1      43.930 -12.133   4.001  1.00  0.00     0.026 A 
HETATM    6  C   UNL     1      44.289 -11.478   5.188  1.00  0.00     0.019 A 
ENDROOT
BRANCH   4   7
HETATM    7  N   UNL     1      42.419 -13.543   2.700  1.00  0.00    -0.291 NA
HETATM    8  H   UNL     1      41.535 -14.066   2.781  1.00  0.00     0.127 HD
BRANCH   7   9
HETATM    9  C   UNL     1      43.369 -14.348   1.913  1.00  0.00     0.097 C 
BRANCH   9  10
HETATM   10  C   UNL     1      42.765 -15.719   1.573  1.00  0.00     0.053 C 
BRANCH  10  11
HETATM   11  C   UNL     1      43.192 -16.796   2.541  1.00  0.00    -0.054 A 
HETATM   12  C   UNL     1      43.520 -16.477   3.869  1.00  0.00     0.046 A 
HETATM   13  C   UNL     1      43.909 -17.476   4.772  1.00  0.00     0.102 A 
HETATM   14  C   UNL     1      43.979 -18.815   4.341  1.00  0.00     0.101 A 
HETATM   15  C   UNL     1      43.655 -19.130   3.018  1.00  0.00     0.040 A 
HETATM   16  C   UNL     1      43.263 -18.128   2.126  1.00  0.00     0.010 A 
BRANCH  13  17
HETATM   17  O   UNL     1      44.237 -17.250   6.086  1.00  0.00    -0.353 OA
HETATM   18  C   UNL     1      44.306 -15.905   6.535  1.00  0.00     0.210 C 
ENDBRANCH  13  17
BRANCH  14  19
HETATM   19  O   UNL     1      44.366 -19.734   5.284  1.00  0.00    -0.353 OA
HETATM   20  C   UNL     1      43.933 -21.076   5.116  1.00  0.00     0.210 C 
ENDBRANCH  14  19
ENDBRANCH  10  11
ENDBRANCH   9  10
ENDBRANCH   7   9
ENDBRANCH   4   7
BRANCH   3  21
HETATM   21  S   UNL     1      40.519 -14.042   5.127  1.00  0.00     0.265 S 
HETATM   22  O   UNL     1      40.580 -14.934   3.986  1.00  0.00    -0.200 OA
HETATM   23  O   UNL     1      40.442 -14.571   6.474  1.00  0.00    -0.200 OA
BRANCH  21  24
HETATM   24  N   UNL     1      39.252 -12.968   4.839  1.00  0.00    -0.280 N 
HETATM   25  H   UNL     1      38.348 -13.367   5.095  1.00  0.00     0.179 HD
BRANCH  24  26
HETATM   26  C   UNL     1      39.292 -12.165   3.666  1.00  0.00     0.045 A 
HETATM   27  C   UNL     1      39.075 -12.751   2.416  1.00  0.00     0.066 A 
HETATM   28  C   UNL     1      39.157 -11.966   1.264  1.00  0.00     0.070 A 
HETATM   29  C   UNL     1      39.449 -10.603   1.378  1.00  0.00     0.037 A 
HETATM   30  C   UNL     1      39.668 -10.023   2.627  1.00  0.00     0.005 A 
HETATM   31  C   UNL     1      39.598 -10.809   3.773  1.00  0.00     0.030 A 
BRANCH  28  32
HETATM   32  O   UNL     1      38.984 -12.402  -0.020  1.00  0.00    -0.356 OA
HETATM   33  C   UNL     1      39.629 -13.616  -0.386  1.00  0.00     0.210 C 
ENDBRANCH  28  32
ENDBRANCH  24  26
ENDBRANCH  21  24
ENDBRANCH   3  21
BRANCH   1  34
HETATM   34  C   UNL     1      43.922 -10.888   7.570  1.00  0.00     0.253 C 
HETATM   35  N   UNL     1      43.675  -9.515   7.714  1.00  0.00    -0.345 N 
HETATM   36  C   UNL     1      44.313  -8.875   8.870  1.00  0.00     0.154 C 
HETATM   37  C   UNL     1      42.365  -8.938   7.376  1.00  0.00     0.154 C 
HETATM   38  C   UNL     1      43.422  -8.986  10.118  1.00  0.00     0.254 C 
HETATM   39  N   UNL     1      42.049  -8.369   9.814  1.00  0.00    -0.072 N 
HETATM   40  C   UNL     1      41.138  -8.420  11.006  1.00  0.00     0.269 C 
HETATM   41  H   UNL     1      42.208  -7.377   9.596  1.00  0.00     0.279 HD
HETATM   42  C   UNL     1      41.407  -9.008   8.583  1.00  0.00     0.254 C 
HETATM   43  O   UNL     1      44.467 -11.527   8.468  1.00  0.00    -0.267 OA
ENDBRANCH   1  34
TORSDOF 11
ENDMDL
MODEL 6
REMARK VINA RESULT:      -8.4      2.482      8.830
REMARK  11 active torsions:
REMARK  status: ('A' for Active; 'I' for Inactive)
REMARK       I    between atoms: N_6  and  C_7 
REMARK    1  A    between atoms: C_7  and  C_8 
REMARK    2  A    between atoms: C_10  and  S_11 
REMARK    3  A    between atoms: S_11  and  N_12 
REMARK    4  A    between atoms: N_12  and  C_13 
REMARK    5  A    between atoms: C_15  and  O_16 
REMARK    6  A    between atoms: C_23  and  N_24 
REMARK    7  A    between atoms: N_24  and  C_25 
REMARK    8  A    between atoms: C_25  and  C_26 
REMARK    9  A    between atoms: C_26  and  C_27 
REMARK   10  A    between atoms: C_29  and  O_30 
REMARK   11  A    between atoms: C_32  and  O_33 
ROOT
HETATM    1  C   UNL     1      41.263 -11.797   4.266  1.00  0.00     0.033 A 
HETATM    2  C   UNL     1      41.552 -13.027   4.853  1.00  0.00     0.044 A 
HETATM    3  C   UNL     1      42.622 -13.146   5.762  1.00  0.00     0.102 A 
HETATM    4  C   UNL     1      43.444 -12.048   6.096  1.00  0.00     0.031 A 
HETATM    5  C   UNL     1      43.186 -10.851   5.407  1.00  0.00     0.026 A 
HETATM    6  C   UNL     1      42.106 -10.718   4.522  1.00  0.00     0.019 A 
ENDROOT
BRANCH   4   7
HETATM    7  N   UNL     1      44.569 -12.177   6.921  1.00  0.00    -0.291 NA
HETATM    8  H   UNL     1      44.314 -12.460   7.878  1.00  0.00     0.127 HD
BRANCH   7   9
HETATM    9  C   UNL     1      45.585 -11.114   7.001  1.00  0.00     0.097 C 
BRANCH   9  10
HETATM   10  C   UNL     1      45.953 -10.825   8.464  1.00  0.00     0.053 C 
BRANCH  10  11
HETATM   11  C   UNL     1      45.056  -9.785   9.092  1.00  0.00    -0.054 A 
HETATM   12  C   UNL     1      44.645  -9.905  10.429  1.00  0.00     0.046 A 
HETATM   13  C   UNL     1      43.820  -8.937  11.016  1.00  0.00     0.102 A 
HETATM   14  C   UNL     1      43.391  -7.832  10.254  1.00  0.00     0.101 A 
HETATM   15  C   UNL     1      43.799  -7.716   8.922  1.00  0.00     0.040 A 
HETATM   16  C   UNL     1      44.626  -8.683   8.346  1.00  0.00     0.010 A 
BRANCH  13  17
HETATM   17  O   UNL     1      43.381  -8.975  12.316  1.00  0.00    -0.353 OA
HETATM   18  C   UNL     1      42.461  -9.994  12.680  1.00  0.00     0.210 C 
ENDBRANCH  13  17
BRANCH  14  19
HETATM   19  O   UNL     1      42.587  -6.927  10.900  1.00  0.00    -0.353 OA
HETATM   20  C   UNL     1      41.237  -6.819  10.474  1.00  0.00     0.210 C 
ENDBRANCH  14  19
ENDBRANCH  10  11
ENDBRANCH   9  10
ENDBRANCH   7   9
ENDBRANCH   4   7
BRANCH   3  21
HETATM   21  S   UNL     1      42.790 -14.722   6.592  1.00  0.00     0.265 S 
HETATM   22  O   UNL     1      43.238 -14.450   7.944  1.00  0.00    -0.200 OA
HETATM   23  O   UNL     1      41.563 -15.456   6.356  1.00  0.00    -0.200 OA
BRANCH  21  24
HETATM   24  N   UNL     1      44.081 -15.451   5.789  1.00  0.00    -0.280 N 
HETATM   25  H   UNL     1      44.842 -14.794   5.615  1.00  0.00     0.179 HD
BRANCH  24  26
HETATM   26  C   UNL     1      43.799 -16.395   4.763  1.00  0.00     0.045 A 
HETATM   27  C   UNL     1      44.056 -17.751   4.977  1.00  0.00     0.066 A 
HETATM   28  C   UNL     1      43.817 -18.669   3.952  1.00  0.00     0.070 A 
HETATM   29  C   UNL     1      43.318 -18.217   2.726  1.00  0.00     0.037 A 
HETATM   30  C   UNL     1      43.065 -16.862   2.515  1.00  0.00     0.005 A 
HETATM   31  C   UNL     1      43.315 -15.948   3.534  1.00  0.00     0.030 A 
BRANCH  28  32
HETATM   32  O   UNL     1      44.034 -20.017   4.012  1.00  0.00    -0.356 OA
HETATM   33  C   UNL     1      44.171 -20.595   5.305  1.00  0.00     0.210 C 
ENDBRANCH  28  32
ENDBRANCH  24  26
ENDBRANCH  21  24
ENDBRANCH   3  21
BRANCH   1  34
HETATM   34  C   UNL     1      40.123 -11.607   3.324  1.00  0.00     0.253 C 
HETATM   35  N   UNL     1      40.355 -11.102   2.037  1.00  0.00    -0.345 N 
HETATM   36  C   UNL     1      39.154 -10.757   1.267  1.00  0.00     0.154 C 
HETATM   37  C   UNL     1      41.455 -11.612   1.205  1.00  0.00     0.154 C 
HETATM   38  C   UNL     1      38.626 -11.980   0.499  1.00  0.00     0.254 C 
HETATM   39  N   UNL     1      39.741 -12.529  -0.403  1.00  0.00    -0.072 N 
HETATM   40  C   UNL     1      39.277 -13.711  -1.204  1.00  0.00     0.269 C 
HETATM   41  H   UNL     1      39.979 -11.785  -1.071  1.00  0.00     0.279 HD
HETATM   42  C   UNL     1      41.004 -12.846   0.395  1.00  0.00     0.254 C 
HETATM   43  O   UNL     1      38.990 -11.920   3.683  1.00  0.00    -0.267 OA
ENDBRANCH   1  34
TORSDOF 11
ENDMDL
MODEL 7
REMARK VINA RESULT:      -8.3      1.953      8.082
REMARK  11 active torsions:
REMARK  status: ('A' for Active; 'I' for Inactive)
REMARK       I    between atoms: N_6  and  C_7 
REMARK    1  A    between atoms: C_7  and  C_8 
REMARK    2  A    between atoms: C_10  and  S_11 
REMARK    3  A    between atoms: S_11  and  N_12 
REMARK    4  A    between atoms: N_12  and  C_13 
REMARK    5  A    between atoms: C_15  and  O_16 
REMARK    6  A    between atoms: C_23  and  N_24 
REMARK    7  A    between atoms: N_24  and  C_25 
REMARK    8  A    between atoms: C_25  and  C_26 
REMARK    9  A    between atoms: C_26  and  C_27 
REMARK   10  A    between atoms: C_29  and  O_30 
REMARK   11  A    between atoms: C_32  and  O_33 
ROOT
HETATM    1  C   UNL     1      39.513 -12.180   1.917  1.00  0.00     0.033 A 
HETATM    2  C   UNL     1      40.225 -11.206   2.614  1.00  0.00     0.044 A 
HETATM    3  C   UNL     1      40.964 -11.554   3.762  1.00  0.00     0.102 A 
HETATM    4  C   UNL     1      40.999 -12.876   4.256  1.00  0.00     0.031 A 
HETATM    5  C   UNL     1      40.187 -13.807   3.587  1.00  0.00     0.026 A 
HETATM    6  C   UNL     1      39.471 -13.475   2.428  1.00  0.00     0.019 A 
ENDROOT
BRANCH   4   7
HETATM    7  N   UNL     1      41.649 -13.213   5.451  1.00  0.00    -0.291 NA
HETATM    8  H   UNL     1      41.773 -12.396   6.066  1.00  0.00     0.127 HD
BRANCH   7   9
HETATM    9  C   UNL     1      42.899 -13.991   5.448  1.00  0.00     0.097 C 
BRANCH   9  10
HETATM   10  C   UNL     1      42.658 -15.406   5.996  1.00  0.00     0.053 C 
BRANCH  10  11
HETATM   11  C   UNL     1      43.079 -16.483   5.025  1.00  0.00    -0.054 A 
HETATM   12  C   UNL     1      43.704 -17.654   5.481  1.00  0.00     0.046 A 
HETATM   13  C   UNL     1      44.087 -18.660   4.583  1.00  0.00     0.102 A 
HETATM   14  C   UNL     1      43.849 -18.489   3.205  1.00  0.00     0.101 A 
HETATM   15  C   UNL     1      43.229 -17.321   2.753  1.00  0.00     0.040 A 
HETATM   16  C   UNL     1      42.845 -16.326   3.656  1.00  0.00     0.010 A 
BRANCH  13  17
HETATM   17  O   UNL     1      44.695 -19.835   4.946  1.00  0.00    -0.353 OA
HETATM   18  C   UNL     1      43.880 -20.874   5.468  1.00  0.00     0.210 C 
ENDBRANCH  13  17
BRANCH  14  19
HETATM   19  O   UNL     1      44.251 -19.518   2.390  1.00  0.00    -0.353 OA
HETATM   20  C   UNL     1      43.244 -20.309   1.777  1.00  0.00     0.210 C 
ENDBRANCH  14  19
ENDBRANCH  10  11
ENDBRANCH   9  10
ENDBRANCH   7   9
ENDBRANCH   4   7
BRANCH   3  21
HETATM   21  S   UNL     1      41.984 -10.267   4.472  1.00  0.00     0.265 S 
HETATM   22  O   UNL     1      43.362 -10.704   4.368  1.00  0.00    -0.200 OA
HETATM   23  O   UNL     1      41.560  -9.016   3.875  1.00  0.00    -0.200 OA
BRANCH  21  24
HETATM   24  N   UNL     1      41.581 -10.308   6.109  1.00  0.00    -0.280 N 
HETATM   25  H   UNL     1      40.583 -10.162   6.260  1.00  0.00     0.179 HD
BRANCH  24  26
HETATM   26  C   UNL     1      42.469  -9.708   7.044  1.00  0.00     0.045 A 
HETATM   27  C   UNL     1      43.408 -10.495   7.716  1.00  0.00     0.066 A 
HETATM   28  C   UNL     1      44.248  -9.908   8.663  1.00  0.00     0.070 A 
HETATM   29  C   UNL     1      44.142  -8.538   8.924  1.00  0.00     0.037 A 
HETATM   30  C   UNL     1      43.201  -7.756   8.254  1.00  0.00     0.005 A 
HETATM   31  C   UNL     1      42.356  -8.345   7.319  1.00  0.00     0.030 A 
BRANCH  28  32
HETATM   32  O   UNL     1      45.200 -10.553   9.403  1.00  0.00    -0.356 OA
HETATM   33  C   UNL     1      45.182 -10.341  10.810  1.00  0.00     0.210 C 
ENDBRANCH  28  32
ENDBRANCH  24  26
ENDBRANCH  21  24
ENDBRANCH   3  21
BRANCH   1  34
HETATM   34  C   UNL     1      38.741 -11.874   0.678  1.00  0.00     0.253 C 
HETATM   35  N   UNL     1      39.403 -11.786  -0.555  1.00  0.00    -0.345 N 
HETATM   36  C   UNL     1      38.595 -11.278  -1.671  1.00  0.00     0.154 C 
HETATM   37  C   UNL     1      40.393 -12.793  -0.963  1.00  0.00     0.154 C 
HETATM   38  C   UNL     1      37.835 -12.423  -2.362  1.00  0.00     0.254 C 
HETATM   39  N   UNL     1      38.840 -13.487  -2.826  1.00  0.00    -0.072 N 
HETATM   40  C   UNL     1      38.161 -14.622  -3.536  1.00  0.00     0.269 C 
HETATM   41  H   UNL     1      39.464 -13.034  -3.506  1.00  0.00     0.279 HD
HETATM   42  C   UNL     1      39.709 -13.981  -1.670  1.00  0.00     0.254 C 
HETATM   43  O   UNL     1      37.523 -11.727   0.751  1.00  0.00    -0.267 OA
ENDBRANCH   1  34
TORSDOF 11
ENDMDL
MODEL 8
REMARK VINA RESULT:      -8.3      3.795      9.803
REMARK  11 active torsions:
REMARK  status: ('A' for Active; 'I' for Inactive)
REMARK       I    between atoms: N_6  and  C_7 
REMARK    1  A    between atoms: C_7  and  C_8 
REMARK    2  A    between atoms: C_10  and  S_11 
REMARK    3  A    between atoms: S_11  and  N_12 
REMARK    4  A    between atoms: N_12  and  C_13 
REMARK    5  A    between atoms: C_15  and  O_16 
REMARK    6  A    between atoms: C_23  and  N_24 
REMARK    7  A    between atoms: N_24  and  C_25 
REMARK    8  A    between atoms: C_25  and  C_26 
REMARK    9  A    between atoms: C_26  and  C_27 
REMARK   10  A    between atoms: C_29  and  O_30 
REMARK   11  A    between atoms: C_32  and  O_33 
ROOT
HETATM    1  C   UNL     1      42.035 -15.166   4.301  1.00  0.00     0.033 A 
HETATM    2  C   UNL     1      42.803 -14.005   4.240  1.00  0.00     0.044 A 
HETATM    3  C   UNL     1      42.449 -12.880   5.010  1.00  0.00     0.102 A 
HETATM    4  C   UNL     1      41.311 -12.873   5.845  1.00  0.00     0.031 A 
HETATM    5  C   UNL     1      40.507 -14.024   5.801  1.00  0.00     0.026 A 
HETATM    6  C   UNL     1      40.866 -15.158   5.060  1.00  0.00     0.019 A 
ENDROOT
BRANCH   4   7
HETATM    7  N   UNL     1      40.895 -11.728   6.537  1.00  0.00    -0.291 NA
HETATM    8  H   UNL     1      41.154 -11.764   7.534  1.00  0.00     0.127 HD
BRANCH   7   9
HETATM    9  C   UNL     1      39.514 -11.229   6.430  1.00  0.00     0.097 C 
BRANCH   9  10
HETATM   10  C   UNL     1      39.473  -9.705   6.619  1.00  0.00     0.053 C 
BRANCH  10  11
HETATM   11  C   UNL     1      39.679  -9.293   8.057  1.00  0.00    -0.054 A 
HETATM   12  C   UNL     1      40.412  -8.138   8.373  1.00  0.00     0.046 A 
HETATM   13  C   UNL     1      40.598  -7.749   9.707  1.00  0.00     0.102 A 
HETATM   14  C   UNL     1      40.050  -8.531  10.743  1.00  0.00     0.101 A 
HETATM   15  C   UNL     1      39.324  -9.682  10.426  1.00  0.00     0.040 A 
HETATM   16  C   UNL     1      39.139 -10.059   9.093  1.00  0.00     0.010 A 
BRANCH  13  17
HETATM   17  O   UNL     1      41.293  -6.632  10.100  1.00  0.00    -0.353 OA
HETATM   18  C   UNL     1      42.681  -6.573   9.810  1.00  0.00     0.210 C 
ENDBRANCH  13  17
BRANCH  14  19
HETATM   19  O   UNL     1      40.275  -8.083  12.021  1.00  0.00    -0.353 OA
HETATM   20  C   UNL     1      40.218  -9.034  13.074  1.00  0.00     0.210 C 
ENDBRANCH  14  19
ENDBRANCH  10  11
ENDBRANCH   9  10
ENDBRANCH   7   9
ENDBRANCH   4   7
BRANCH   3  21
HETATM   21  S   UNL     1      43.601 -11.511   4.995  1.00  0.00     0.265 S 
HETATM   22  O   UNL     1      44.305 -11.555   3.728  1.00  0.00    -0.200 OA
HETATM   23  O   UNL     1      42.857 -10.329   5.384  1.00  0.00    -0.200 OA
BRANCH  21  24
HETATM   24  N   UNL     1      44.718 -11.927   6.187  1.00  0.00    -0.280 N 
HETATM   25  H   UNL     1      44.754 -12.935   6.342  1.00  0.00     0.179 HD
BRANCH  24  26
HETATM   26  C   UNL     1      44.828 -11.096   7.337  1.00  0.00     0.045 A 
HETATM   27  C   UNL     1      43.824 -11.116   8.308  1.00  0.00     0.066 A 
HETATM   28  C   UNL     1      43.917 -10.268   9.413  1.00  0.00     0.070 A 
HETATM   29  C   UNL     1      45.017  -9.414   9.535  1.00  0.00     0.037 A 
HETATM   30  C   UNL     1      46.016  -9.395   8.562  1.00  0.00     0.005 A 
HETATM   31  C   UNL     1      45.916 -10.232   7.455  1.00  0.00     0.030 A 
BRANCH  28  32
HETATM   32  O   UNL     1      43.008 -10.169  10.429  1.00  0.00    -0.356 OA
HETATM   33  C   UNL     1      43.507 -10.266  11.758  1.00  0.00     0.210 C 
ENDBRANCH  28  32
ENDBRANCH  24  26
ENDBRANCH  21  24
ENDBRANCH   3  21
BRANCH   1  34
HETATM   34  C   UNL     1      42.382 -16.397   3.535  1.00  0.00     0.253 C 
HETATM   35  N   UNL     1      43.658 -16.965   3.662  1.00  0.00    -0.345 N 
HETATM   36  C   UNL     1      43.967 -18.044   2.715  1.00  0.00     0.154 C 
HETATM   37  C   UNL     1      44.283 -17.149   4.980  1.00  0.00     0.154 C 
HETATM   38  C   UNL     1      43.502 -19.403   3.263  1.00  0.00     0.254 C 
HETATM   39  N   UNL     1      44.154 -19.645   4.632  1.00  0.00    -0.072 N 
HETATM   40  C   UNL     1      43.761 -20.973   5.210  1.00  0.00     0.269 C 
HETATM   41  H   UNL     1      45.170 -19.669   4.479  1.00  0.00     0.279 HD
HETATM   42  C   UNL     1      43.867 -18.499   5.601  1.00  0.00     0.254 C 
HETATM   43  O   UNL     1      41.530 -16.916   2.816  1.00  0.00    -0.267 OA
ENDBRANCH   1  34
TORSDOF 11
ENDMDL
MODEL 9
REMARK VINA RESULT:      -8.2      1.725      2.077
REMARK  11 active torsions:
REMARK  status: ('A' for Active; 'I' for Inactive)
REMARK       I    between atoms: N_6  and  C_7 
REMARK    1  A    between atoms: C_7  and  C_8 
REMARK    2  A    between atoms: C_10  and  S_11 
REMARK    3  A    between atoms: S_11  and  N_12 
REMARK    4  A    between atoms: N_12  and  C_13 
REMARK    5  A    between atoms: C_15  and  O_16 
REMARK    6  A    between atoms: C_23  and  N_24 
REMARK    7  A    between atoms: N_24  and  C_25 
REMARK    8  A    between atoms: C_25  and  C_26 
REMARK    9  A    between atoms: C_26  and  C_27 
REMARK   10  A    between atoms: C_29  and  O_30 
REMARK   11  A    between atoms: C_32  and  O_33 
ROOT
HETATM    1  C   UNL     1      43.806 -11.366   6.694  1.00  0.00     0.033 A 
HETATM    2  C   UNL     1      43.225 -10.709   5.612  1.00  0.00     0.044 A 
HETATM    3  C   UNL     1      42.629 -11.448   4.570  1.00  0.00     0.102 A 
HETATM    4  C   UNL     1      42.615 -12.860   4.569  1.00  0.00     0.031 A 
HETATM    5  C   UNL     1      43.300 -13.485   5.624  1.00  0.00     0.026 A 
HETATM    6  C   UNL     1      43.871 -12.758   6.678  1.00  0.00     0.019 A 
ENDROOT
BRANCH   4   7
HETATM    7  N   UNL     1      42.114 -13.604   3.493  1.00  0.00    -0.291 NA
HETATM    8  H   UNL     1      41.418 -14.301   3.797  1.00  0.00     0.127 HD
BRANCH   7   9
HETATM    9  C   UNL     1      43.015 -14.237   2.515  1.00  0.00     0.097 C 
BRANCH   9  10
HETATM   10  C   UNL     1      42.452 -15.590   2.056  1.00  0.00     0.053 C 
BRANCH  10  11
HETATM   11  C   UNL     1      42.980 -16.744   2.875  1.00  0.00    -0.054 A 
HETATM   12  C   UNL     1      42.965 -16.694   4.278  1.00  0.00     0.046 A 
HETATM   13  C   UNL     1      43.447 -17.767   5.040  1.00  0.00     0.102 A 
HETATM   14  C   UNL     1      43.959 -18.907   4.391  1.00  0.00     0.101 A 
HETATM   15  C   UNL     1      43.976 -18.954   2.994  1.00  0.00     0.040 A 
HETATM   16  C   UNL     1      43.489 -17.882   2.242  1.00  0.00     0.010 A 
BRANCH  13  17
HETATM   17  O   UNL     1      43.460 -17.800   6.412  1.00  0.00    -0.353 OA
HETATM   18  C   UNL     1      44.123 -16.750   7.099  1.00  0.00     0.210 C 
ENDBRANCH  13  17
BRANCH  14  19
HETATM   19  O   UNL     1      44.410 -19.915   5.206  1.00  0.00    -0.353 OA
HETATM   20  C   UNL     1      43.890 -21.219   4.994  1.00  0.00     0.210 C 
ENDBRANCH  14  19
ENDBRANCH  10  11
ENDBRANCH   9  10
ENDBRANCH   7   9
ENDBRANCH   4   7
BRANCH   3  21
HETATM   21  S   UNL     1      41.755 -10.507   3.325  1.00  0.00     0.265 S 
HETATM   22  O   UNL     1      41.486  -9.197   3.886  1.00  0.00    -0.200 OA
HETATM   23  O   UNL     1      42.504 -10.641   2.091  1.00  0.00    -0.200 OA
BRANCH  21  24
HETATM   24  N   UNL     1      40.271 -11.300   3.206  1.00  0.00    -0.280 N 
HETATM   25  H   UNL     1      40.248 -12.152   3.767  1.00  0.00     0.179 HD
BRANCH  24  26
HETATM   26  C   UNL     1      39.622 -11.345   1.941  1.00  0.00     0.045 A 
HETATM   27  C   UNL     1      39.734 -12.486   1.143  1.00  0.00     0.066 A 
HETATM   28  C   UNL     1      39.130 -12.509  -0.116  1.00  0.00     0.070 A 
HETATM   29  C   UNL     1      38.417 -11.390  -0.558  1.00  0.00     0.037 A 
HETATM   30  C   UNL     1      38.311 -10.251   0.240  1.00  0.00     0.005 A 
HETATM   31  C   UNL     1      38.924 -10.226   1.489  1.00  0.00     0.030 A 
BRANCH  28  32
HETATM   32  O   UNL     1      39.166 -13.546  -1.006  1.00  0.00    -0.356 OA
HETATM   33  C   UNL     1      40.074 -13.435  -2.096  1.00  0.00     0.210 C 
ENDBRANCH  28  32
ENDBRANCH  24  26
ENDBRANCH  21  24
ENDBRANCH   3  21
BRANCH   1  34
HETATM   34  C   UNL     1      44.420 -10.634   7.839  1.00  0.00     0.253 C 
HETATM   35  N   UNL     1      43.870  -9.419   8.270  1.00  0.00    -0.345 N 
HETATM   36  C   UNL     1      44.664  -8.679   9.258  1.00  0.00     0.154 C 
HETATM   37  C   UNL     1      42.419  -9.261   8.451  1.00  0.00     0.154 C 
HETATM   38  C   UNL     1      44.324  -9.136  10.686  1.00  0.00     0.254 C 
HETATM   39  N   UNL     1      42.817  -8.963  10.925  1.00  0.00    -0.072 N 
HETATM   40  C   UNL     1      42.423  -9.366  12.317  1.00  0.00     0.269 C 
HETATM   41  H   UNL     1      42.612  -7.960  10.830  1.00  0.00     0.279 HD
HETATM   42  C   UNL     1      41.993  -9.698   9.869  1.00  0.00     0.254 C 
HETATM   43  O   UNL     1      45.394 -11.122   8.409  1.00  0.00    -0.267 OA
ENDBRANCH   1  34
TORSDOF 11
ENDMDL
MODEL 10
REMARK VINA RESULT:      -7.9      2.419      7.543
REMARK  11 active torsions:
REMARK  status: ('A' for Active; 'I' for Inactive)
REMARK       I    between atoms: N_6  and  C_7 
REMARK    1  A    between atoms: C_7  and  C_8 
REMARK    2  A    between atoms: C_10  and  S_11 
REMARK    3  A    between atoms: S_11  and  N_12 
REMARK    4  A    between atoms: N_12  and  C_13 
REMARK    5  A    between atoms: C_15  and  O_16 
REMARK    6  A    between atoms: C_23  and  N_24 
REMARK    7  A    between atoms: N_24  and  C_25 
REMARK    8  A    between atoms: C_25  and  C_26 
REMARK    9  A    between atoms: C_26  and  C_27 
REMARK   10  A    between atoms: C_29  and  O_30 
REMARK   11  A    between atoms: C_32  and  O_33 
ROOT
HETATM    1  C   UNL     1      40.666 -11.577  -1.135  1.00  0.00     0.033 A 
HETATM    2  C   UNL     1      40.435 -11.314   0.213  1.00  0.00     0.044 A 
HETATM    3  C   UNL     1      40.142 -12.368   1.102  1.00  0.00     0.102 A 
HETATM    4  C   UNL     1      40.053 -13.709   0.667  1.00  0.00     0.031 A 
HETATM    5  C   UNL     1      40.190 -13.920  -0.714  1.00  0.00     0.026 A 
HETATM    6  C   UNL     1      40.509 -12.882  -1.601  1.00  0.00     0.019 A 
ENDROOT
BRANCH   4   7
HETATM    7  N   UNL     1      39.666 -14.749   1.522  1.00  0.00    -0.291 NA
HETATM    8  H   UNL     1      39.461 -14.411   2.473  1.00  0.00     0.127 HD
BRANCH   7   9
HETATM    9  C   UNL     1      40.455 -15.988   1.625  1.00  0.00     0.097 C 
BRANCH   9  10
HETATM   10  C   UNL     1      41.947 -15.667   1.803  1.00  0.00     0.053 C 
BRANCH  10  11
HETATM   11  C   UNL     1      42.671 -16.713   2.615  1.00  0.00    -0.054 A 
HETATM   12  C   UNL     1      43.120 -16.428   3.915  1.00  0.00     0.046 A 
HETATM   13  C   UNL     1      43.785 -17.400   4.675  1.00  0.00     0.102 A 
HETATM   14  C   UNL     1      44.012 -18.677   4.125  1.00  0.00     0.101 A 
HETATM   15  C   UNL     1      43.567 -18.959   2.831  1.00  0.00     0.040 A 
HETATM   16  C   UNL     1      42.900 -17.985   2.083  1.00  0.00     0.010 A 
BRANCH  13  17
HETATM   17  O   UNL     1      44.248 -17.204   5.952  1.00  0.00    -0.353 OA
HETATM   18  C   UNL     1      43.340 -16.705   6.922  1.00  0.00     0.210 C 
ENDBRANCH  13  17
BRANCH  14  19
HETATM   19  O   UNL     1      44.668 -19.573   4.932  1.00  0.00    -0.353 OA
HETATM   20  C   UNL     1      44.059 -20.838   5.146  1.00  0.00     0.210 C 
ENDBRANCH  14  19
ENDBRANCH  10  11
ENDBRANCH   9  10
ENDBRANCH   7   9
ENDBRANCH   4   7
BRANCH   3  21
HETATM   21  S   UNL     1      40.043 -11.942   2.836  1.00  0.00     0.265 S 
HETATM   22  O   UNL     1      40.275 -10.515   2.943  1.00  0.00    -0.200 OA
HETATM   23  O   UNL     1      38.821 -12.531   3.346  1.00  0.00    -0.200 OA
BRANCH  21  24
HETATM   24  N   UNL     1      41.391 -12.706   3.504  1.00  0.00    -0.280 N 
HETATM   25  H   UNL     1      41.254 -13.714   3.591  1.00  0.00     0.179 HD
BRANCH  24  26
HETATM   26  C   UNL     1      42.087 -12.057   4.561  1.00  0.00     0.045 A 
HETATM   27  C   UNL     1      43.479 -11.947   4.511  1.00  0.00     0.066 A 
HETATM   28  C   UNL     1      44.162 -11.347   5.570  1.00  0.00     0.070 A 
HETATM   29  C   UNL     1      43.442 -10.859   6.665  1.00  0.00     0.037 A 
HETATM   30  C   UNL     1      42.053 -10.974   6.713  1.00  0.00     0.005 A 
HETATM   31  C   UNL     1      41.375 -11.583   5.662  1.00  0.00     0.030 A 
BRANCH  28  32
HETATM   32  O   UNL     1      45.515 -11.182   5.665  1.00  0.00    -0.356 OA
HETATM   33  C   UNL     1      46.057 -10.984   6.966  1.00  0.00     0.210 C 
ENDBRANCH  28  32
ENDBRANCH  24  26
ENDBRANCH  21  24
ENDBRANCH   3  21
BRANCH   1  34
HETATM   34  C   UNL     1      41.012 -10.506  -2.112  1.00  0.00     0.253 C 
HETATM   35  N   UNL     1      40.245 -10.343  -3.275  1.00  0.00    -0.345 N 
HETATM   36  C   UNL     1      40.788  -9.407  -4.266  1.00  0.00     0.154 C 
HETATM   37  C   UNL     1      38.775 -10.352  -3.225  1.00  0.00     0.154 C 
HETATM   38  C   UNL     1      40.326  -7.970  -3.972  1.00  0.00     0.254 C 
HETATM   39  N   UNL     1      38.791  -7.931  -3.937  1.00  0.00    -0.072 N 
HETATM   40  C   UNL     1      38.275  -6.545  -3.682  1.00  0.00     0.269 C 
HETATM   41  H   UNL     1      38.463  -8.210  -4.870  1.00  0.00     0.279 HD
HETATM   42  C   UNL     1      38.227  -8.938  -2.936  1.00  0.00     0.254 C 
HETATM   43  O   UNL     1      41.958  -9.759  -1.873  1.00  0.00    -0.267 OA
ENDBRANCH   1  34
TORSDOF 11
ENDMDL
