MODEL 1
REMARK VINA RESULT:      -9.0      0.000      0.000
REMARK  5 active torsions:
REMARK  status: ('A' for Active; 'I' for Inactive)
REMARK    1  A    between atoms: C_7  and  C_8 
REMARK    2  A    between atoms: N_9  and  N_10 
REMARK       I    between atoms: N_10  and  C_11 
REMARK    3  A    between atoms: C_11  and  C_12 
REMARK    4  A    between atoms: C_12  and  O_13 
REMARK    5  A    between atoms: O_13  and  C_14 
ROOT
HETATM    1  N   UNL     1      40.968 -14.247   2.353  1.00  0.00    -0.246 N 
HETATM    2  C   UNL     1      40.202 -13.272   2.983  1.00  0.00     0.261 C 
HETATM    3  O   UNL     1      39.910 -13.246   4.179  1.00  0.00    -0.269 OA
HETATM    4  H   UNL     1      40.894 -14.295   1.339  1.00  0.00     0.192 HD
ENDROOT
BRANCH   1   5
HETATM    5  N   UNL     1      41.419 -15.407   2.946  1.00  0.00    -0.184 NA
HETATM    6  C   UNL     1      42.682 -15.488   3.226  1.00  0.00     0.153 C 
BRANCH   6   7
HETATM    7  C   UNL     1      43.227 -16.651   3.907  1.00  0.00     0.018 A 
HETATM    8  C   UNL     1      43.732 -16.607   5.202  1.00  0.00     0.018 A 
HETATM    9  C   UNL     1      43.832 -15.482   6.169  1.00  0.00     0.069 C 
HETATM   10  N   UNL     1      44.163 -17.868   5.527  1.00  0.00    -0.358 N 
HETATM   11  H   UNL     1      44.574 -18.134   6.411  1.00  0.00     0.166 HD
HETATM   12  C   UNL     1      43.952 -18.736   4.484  1.00  0.00     0.043 A 
HETATM   13  C   UNL     1      43.360 -18.005   3.452  1.00  0.00     0.004 A 
HETATM   14  C   UNL     1      44.240 -20.103   4.385  1.00  0.00     0.030 A 
HETATM   15  C   UNL     1      43.041 -18.688   2.259  1.00  0.00     0.014 A 
HETATM   16  C   UNL     1      43.321 -20.055   2.141  1.00  0.00     0.001 A 
HETATM   17  C   UNL     1      43.914 -20.750   3.192  1.00  0.00     0.002 A 
ENDBRANCH   6   7
ENDBRANCH   1   5
BRANCH   2  18
HETATM   18  C   UNL     1      39.776 -12.136   2.056  1.00  0.00     0.280 C 
BRANCH  18  19
HETATM   19  O   UNL     1      40.240 -12.312   0.713  1.00  0.00    -0.341 OA
BRANCH  19  20
HETATM   20  C   UNL     1      39.206 -12.046  -0.158  1.00  0.00     0.080 A 
HETATM   21  C   UNL     1      38.839 -12.959  -1.173  1.00  0.00     0.009 A 
HETATM   22  C   UNL     1      37.828 -12.586  -2.097  1.00  0.00    -0.006 A 
HETATM   23  C   UNL     1      39.449 -14.228  -1.296  1.00  0.00     0.015 A 
HETATM   24  C   UNL     1      37.510 -13.498  -3.134  1.00  0.00     0.014 A 
HETATM   25  C   UNL     1      37.198 -11.324  -1.929  1.00  0.00     0.022 A 
HETATM   26  C   UNL     1      38.145 -14.738  -3.248  1.00  0.00     0.001 A 
HETATM   27  C   UNL     1      39.108 -15.106  -2.323  1.00  0.00     0.001 A 
HETATM   28 BR   UNL     1      35.832 -10.697  -3.105  1.00  0.00    -0.050 Br
HETATM   29  C   UNL     1      37.544 -10.466  -0.881  1.00  0.00     0.023 A 
HETATM   30  C   UNL     1      38.546 -10.829   0.010  1.00  0.00     0.039 A 
ENDBRANCH  19  20
ENDBRANCH  18  19
ENDBRANCH   2  18
TORSDOF 5
ENDMDL
MODEL 2
REMARK VINA RESULT:      -9.0      3.450      8.381
REMARK  5 active torsions:
REMARK  status: ('A' for Active; 'I' for Inactive)
REMARK    1  A    between atoms: C_7  and  C_8 
REMARK    2  A    between atoms: N_9  and  N_10 
REMARK       I    between atoms: N_10  and  C_11 
REMARK    3  A    between atoms: C_11  and  C_12 
REMARK    4  A    between atoms: C_12  and  O_13 
REMARK    5  A    between atoms: O_13  and  C_14 
ROOT
HETATM    1  N   UNL     1      40.062 -14.044   4.047  1.00  0.00    -0.246 N 
HETATM    2  C   UNL     1      40.539 -13.308   5.127  1.00  0.00     0.261 C 
HETATM    3  O   UNL     1      40.362 -12.104   5.311  1.00  0.00    -0.269 OA
HETATM    4  H   UNL     1      40.510 -14.944   3.879  1.00  0.00     0.192 HD
ENDROOT
BRANCH   1   5
HETATM    5  N   UNL     1      39.421 -13.515   2.948  1.00  0.00    -0.184 NA
HETATM    6  C   UNL     1      40.150 -13.176   1.931  1.00  0.00     0.153 C 
BRANCH   6   7
HETATM    7  C   UNL     1      39.547 -12.668   0.710  1.00  0.00     0.018 A 
HETATM    8  C   UNL     1      39.118 -11.353   0.564  1.00  0.00     0.018 A 
HETATM    9  C   UNL     1      39.168 -10.203   1.507  1.00  0.00     0.069 C 
HETATM   10  N   UNL     1      38.600 -11.218  -0.698  1.00  0.00    -0.358 N 
HETATM   11  H   UNL     1      38.217 -10.366  -1.084  1.00  0.00     0.166 HD
HETATM   12  C   UNL     1      38.680 -12.406  -1.384  1.00  0.00     0.043 A 
HETATM   13  C   UNL     1      39.274 -13.336  -0.529  1.00  0.00     0.004 A 
HETATM   14  C   UNL     1      38.271 -12.717  -2.687  1.00  0.00     0.030 A 
HETATM   15  C   UNL     1      39.468 -14.648  -1.014  1.00  0.00     0.014 A 
HETATM   16  C   UNL     1      39.067 -14.977  -2.315  1.00  0.00     0.001 A 
HETATM   17  C   UNL     1      38.476 -14.022  -3.137  1.00  0.00     0.002 A 
ENDBRANCH   6   7
ENDBRANCH   1   5
BRANCH   2  18
HETATM   18  C   UNL     1      41.282 -14.150   6.160  1.00  0.00     0.280 C 
BRANCH  18  19
HETATM   19  O   UNL     1      42.684 -14.252   5.889  1.00  0.00    -0.341 OA
BRANCH  19  20
HETATM   20  C   UNL     1      43.013 -15.580   5.720  1.00  0.00     0.080 A 
HETATM   21  C   UNL     1      43.180 -16.143   4.435  1.00  0.00     0.009 A 
HETATM   22  C   UNL     1      43.426 -17.538   4.324  1.00  0.00    -0.006 A 
HETATM   23  C   UNL     1      43.106 -15.364   3.258  1.00  0.00     0.015 A 
HETATM   24  C   UNL     1      43.543 -18.088   3.024  1.00  0.00     0.014 A 
HETATM   25  C   UNL     1      43.539 -18.295   5.521  1.00  0.00     0.022 A 
HETATM   26  C   UNL     1      43.442 -17.299   1.876  1.00  0.00     0.001 A 
HETATM   27  C   UNL     1      43.233 -15.934   1.993  1.00  0.00     0.001 A 
HETATM   28 BR   UNL     1      43.859 -20.176   5.515  1.00  0.00    -0.050 Br
HETATM   29  C   UNL     1      43.425 -17.697   6.780  1.00  0.00     0.023 A 
HETATM   30  C   UNL     1      43.167 -16.337   6.881  1.00  0.00     0.039 A 
ENDBRANCH  19  20
ENDBRANCH  18  19
ENDBRANCH   2  18
TORSDOF 5
ENDMDL
MODEL 3
REMARK VINA RESULT:      -8.8      7.348     10.360
REMARK  5 active torsions:
REMARK  status: ('A' for Active; 'I' for Inactive)
REMARK    1  A    between atoms: C_7  and  C_8 
REMARK    2  A    between atoms: N_9  and  N_10 
REMARK       I    between atoms: N_10  and  C_11 
REMARK    3  A    between atoms: C_11  and  C_12 
REMARK    4  A    between atoms: C_12  and  O_13 
REMARK    5  A    between atoms: O_13  and  C_14 
ROOT
HETATM    1  N   UNL     1      43.371 -12.300   7.273  1.00  0.00    -0.246 N 
HETATM    2  C   UNL     1      44.203 -11.336   7.832  1.00  0.00     0.261 C 
HETATM    3  O   UNL     1      45.433 -11.385   7.877  1.00  0.00    -0.269 OA
HETATM    4  H   UNL     1      42.391 -12.268   7.551  1.00  0.00     0.192 HD
ENDROOT
BRANCH   1   5
HETATM    5  N   UNL     1      43.785 -13.524   6.793  1.00  0.00    -0.184 NA
HETATM    6  C   UNL     1      42.879 -14.329   6.333  1.00  0.00     0.153 C 
BRANCH   6   7
HETATM    7  C   UNL     1      43.238 -15.612   5.754  1.00  0.00     0.018 A 
HETATM    8  C   UNL     1      43.713 -16.681   6.507  1.00  0.00     0.018 A 
HETATM    9  C   UNL     1      43.943 -16.813   7.970  1.00  0.00     0.069 C 
HETATM   10  N   UNL     1      43.956 -17.723   5.650  1.00  0.00    -0.358 N 
HETATM   11  H   UNL     1      44.303 -18.633   5.921  1.00  0.00     0.166 HD
HETATM   12  C   UNL     1      43.652 -17.369   4.358  1.00  0.00     0.043 A 
HETATM   13  C   UNL     1      43.194 -16.050   4.389  1.00  0.00     0.004 A 
HETATM   14  C   UNL     1      43.749 -18.117   3.178  1.00  0.00     0.030 A 
HETATM   15  C   UNL     1      42.813 -15.455   3.167  1.00  0.00     0.014 A 
HETATM   16  C   UNL     1      42.903 -16.188   1.976  1.00  0.00     0.001 A 
HETATM   17  C   UNL     1      43.366 -17.501   1.986  1.00  0.00     0.002 A 
ENDBRANCH   6   7
ENDBRANCH   1   5
BRANCH   2  18
HETATM   18  C   UNL     1      43.456 -10.113   8.356  1.00  0.00     0.280 C 
BRANCH  18  19
HETATM   19  O   UNL     1      44.277  -9.268   9.170  1.00  0.00    -0.341 OA
BRANCH  19  20
HETATM   20  C   UNL     1      43.632  -9.033  10.366  1.00  0.00     0.080 A 
HETATM   21  C   UNL     1      43.131  -7.753  10.696  1.00  0.00     0.009 A 
HETATM   22  C   UNL     1      42.561  -7.553  11.982  1.00  0.00    -0.006 A 
HETATM   23  C   UNL     1      43.182  -6.670   9.791  1.00  0.00     0.015 A 
HETATM   24  C   UNL     1      42.107  -6.250  12.308  1.00  0.00     0.014 A 
HETATM   25  C   UNL     1      42.480  -8.665  12.861  1.00  0.00     0.022 A 
HETATM   26  C   UNL     1      42.190  -5.190  11.402  1.00  0.00     0.001 A 
HETATM   27  C   UNL     1      42.720  -5.403  10.139  1.00  0.00     0.001 A 
HETATM   28 BR   UNL     1      41.747  -8.531  14.618  1.00  0.00    -0.050 Br
HETATM   29  C   UNL     1      42.935  -9.933  12.483  1.00  0.00     0.023 A 
HETATM   30  C   UNL     1      43.507 -10.119  11.232  1.00  0.00     0.039 A 
ENDBRANCH  19  20
ENDBRANCH  18  19
ENDBRANCH   2  18
TORSDOF 5
ENDMDL
MODEL 4
REMARK VINA RESULT:      -8.8      5.482      7.544
REMARK  5 active torsions:
REMARK  status: ('A' for Active; 'I' for Inactive)
REMARK    1  A    between atoms: C_7  and  C_8 
REMARK    2  A    between atoms: N_9  and  N_10 
REMARK       I    between atoms: N_10  and  C_11 
REMARK    3  A    between atoms: C_11  and  C_12 
REMARK    4  A    between atoms: C_12  and  O_13 
REMARK    5  A    between atoms: O_13  and  C_14 
ROOT
HETATM    1  N   UNL     1      40.689 -13.411   6.619  1.00  0.00    -0.246 N 
HETATM    2  C   UNL     1      40.009 -12.548   5.765  1.00  0.00     0.261 C 
HETATM    3  O   UNL     1      39.620 -12.818   4.629  1.00  0.00    -0.269 OA
HETATM    4  H   UNL     1      41.187 -12.979   7.396  1.00  0.00     0.192 HD
ENDROOT
BRANCH   1   5
HETATM    5  N   UNL     1      41.145 -14.666   6.278  1.00  0.00    -0.184 NA
HETATM    6  C   UNL     1      42.367 -14.769   5.857  1.00  0.00     0.153 C 
BRANCH   6   7
HETATM    7  C   UNL     1      42.944 -16.063   5.536  1.00  0.00     0.018 A 
HETATM    8  C   UNL     1      43.620 -16.847   6.467  1.00  0.00     0.018 A 
HETATM    9  C   UNL     1      43.898 -16.620   7.910  1.00  0.00     0.069 C 
HETATM   10  N   UNL     1      44.033 -17.990   5.832  1.00  0.00    -0.358 N 
HETATM   11  H   UNL     1      44.545 -18.745   6.265  1.00  0.00     0.166 HD
HETATM   12  C   UNL     1      43.645 -17.979   4.514  1.00  0.00     0.043 A 
HETATM   13  C   UNL     1      42.955 -16.785   4.297  1.00  0.00     0.004 A 
HETATM   14  C   UNL     1      43.856 -18.933   3.511  1.00  0.00     0.030 A 
HETATM   15  C   UNL     1      42.450 -16.541   3.002  1.00  0.00     0.014 A 
HETATM   16  C   UNL     1      42.650 -17.485   1.986  1.00  0.00     0.001 A 
HETATM   17  C   UNL     1      43.345 -18.663   2.241  1.00  0.00     0.002 A 
ENDBRANCH   6   7
ENDBRANCH   1   5
BRANCH   2  18
HETATM   18  C   UNL     1      39.701 -11.189   6.389  1.00  0.00     0.280 C 
BRANCH  18  19
HETATM   19  O   UNL     1      40.637 -10.177   6.003  1.00  0.00    -0.341 OA
BRANCH  19  20
HETATM   20  C   UNL     1      41.529  -9.975   7.034  1.00  0.00     0.080 A 
HETATM   21  C   UNL     1      42.866 -10.428   6.955  1.00  0.00     0.009 A 
HETATM   22  C   UNL     1      43.710 -10.272   8.087  1.00  0.00    -0.006 A 
HETATM   23  C   UNL     1      43.386 -11.032   5.788  1.00  0.00     0.015 A 
HETATM   24  C   UNL     1      45.032 -10.776   8.001  1.00  0.00     0.014 A 
HETATM   25  C   UNL     1      43.180  -9.624   9.234  1.00  0.00     0.022 A 
HETATM   26  C   UNL     1      45.514 -11.391   6.842  1.00  0.00     0.001 A 
HETATM   27  C   UNL     1      44.693 -11.510   5.732  1.00  0.00     0.001 A 
HETATM   28 BR   UNL     1      44.203  -9.359  10.823  1.00  0.00    -0.050 Br
HETATM   29  C   UNL     1      41.870  -9.136   9.261  1.00  0.00     0.023 A 
HETATM   30  C   UNL     1      41.044  -9.307   8.158  1.00  0.00     0.039 A 
ENDBRANCH  19  20
ENDBRANCH  18  19
ENDBRANCH   2  18
TORSDOF 5
ENDMDL
MODEL 5
REMARK VINA RESULT:      -8.8      6.443      9.807
REMARK  5 active torsions:
REMARK  status: ('A' for Active; 'I' for Inactive)
REMARK    1  A    between atoms: C_7  and  C_8 
REMARK    2  A    between atoms: N_9  and  N_10 
REMARK       I    between atoms: N_10  and  C_11 
REMARK    3  A    between atoms: C_11  and  C_12 
REMARK    4  A    between atoms: C_12  and  O_13 
REMARK    5  A    between atoms: O_13  and  C_14 
ROOT
HETATM    1  N   UNL     1      44.300 -12.478   6.761  1.00  0.00    -0.246 N 
HETATM    2  C   UNL     1      45.261 -11.473   6.724  1.00  0.00     0.261 C 
HETATM    3  O   UNL     1      45.851 -11.077   5.719  1.00  0.00    -0.269 OA
HETATM    4  H   UNL     1      44.108 -12.888   7.673  1.00  0.00     0.192 HD
ENDROOT
BRANCH   1   5
HETATM    5  N   UNL     1      43.946 -13.276   5.694  1.00  0.00    -0.184 NA
HETATM    6  C   UNL     1      43.034 -14.176   5.891  1.00  0.00     0.153 C 
BRANCH   6   7
HETATM    7  C   UNL     1      42.561 -15.016   4.804  1.00  0.00     0.018 A 
HETATM    8  C   UNL     1      41.461 -14.693   4.016  1.00  0.00     0.018 A 
HETATM    9  C   UNL     1      40.561 -13.509   4.041  1.00  0.00     0.069 C 
HETATM   10  N   UNL     1      41.293 -15.698   3.098  1.00  0.00    -0.358 N 
HETATM   11  H   UNL     1      40.572 -15.727   2.391  1.00  0.00     0.166 HD
HETATM   12  C   UNL     1      42.252 -16.668   3.261  1.00  0.00     0.043 A 
HETATM   13  C   UNL     1      43.067 -16.268   4.321  1.00  0.00     0.004 A 
HETATM   14  C   UNL     1      42.451 -17.857   2.549  1.00  0.00     0.030 A 
HETATM   15  C   UNL     1      44.140 -17.112   4.682  1.00  0.00     0.014 A 
HETATM   16  C   UNL     1      44.355 -18.305   3.982  1.00  0.00     0.001 A 
HETATM   17  C   UNL     1      43.519 -18.671   2.930  1.00  0.00     0.002 A 
ENDBRANCH   6   7
ENDBRANCH   1   5
BRANCH   2  18
HETATM   18  C   UNL     1      45.504 -10.811   8.078  1.00  0.00     0.280 C 
BRANCH  18  19
HETATM   19  O   UNL     1      44.386 -10.934   8.964  1.00  0.00    -0.341 OA
BRANCH  19  20
HETATM   20  C   UNL     1      44.003  -9.677   9.381  1.00  0.00     0.080 A 
HETATM   21  C   UNL     1      43.463  -9.458  10.669  1.00  0.00     0.009 A 
HETATM   22  C   UNL     1      43.001  -8.157  11.005  1.00  0.00    -0.006 A 
HETATM   23  C   UNL     1      43.366 -10.490  11.628  1.00  0.00     0.015 A 
HETATM   24  C   UNL     1      42.420  -7.972  12.284  1.00  0.00     0.014 A 
HETATM   25  C   UNL     1      43.147  -7.123  10.042  1.00  0.00     0.022 A 
HETATM   26  C   UNL     1      42.315  -9.016  13.206  1.00  0.00     0.001 A 
HETATM   27  C   UNL     1      42.796 -10.274  12.881  1.00  0.00     0.001 A 
HETATM   28 BR   UNL     1      42.560  -5.336  10.361  1.00  0.00    -0.050 Br
HETATM   29  C   UNL     1      43.738  -7.361   8.796  1.00  0.00     0.023 A 
HETATM   30  C   UNL     1      44.171  -8.637   8.467  1.00  0.00     0.039 A 
ENDBRANCH  19  20
ENDBRANCH  18  19
ENDBRANCH   2  18
TORSDOF 5
ENDMDL
MODEL 6
REMARK VINA RESULT:      -8.8      1.887      2.057
REMARK  5 active torsions:
REMARK  status: ('A' for Active; 'I' for Inactive)
REMARK    1  A    between atoms: C_7  and  C_8 
REMARK    2  A    between atoms: N_9  and  N_10 
REMARK       I    between atoms: N_10  and  C_11 
REMARK    3  A    between atoms: C_11  and  C_12 
REMARK    4  A    between atoms: C_12  and  O_13 
REMARK    5  A    between atoms: O_13  and  C_14 
ROOT
HETATM    1  N   UNL     1      41.963 -13.727   2.817  1.00  0.00    -0.246 N 
HETATM    2  C   UNL     1      42.483 -12.485   3.166  1.00  0.00     0.261 C 
HETATM    3  O   UNL     1      43.286 -12.270   4.074  1.00  0.00    -0.269 OA
HETATM    4  H   UNL     1      41.117 -13.720   2.250  1.00  0.00     0.192 HD
ENDROOT
BRANCH   1   5
HETATM    5  N   UNL     1      42.170 -14.898   3.515  1.00  0.00    -0.184 NA
HETATM    6  C   UNL     1      43.228 -15.590   3.228  1.00  0.00     0.153 C 
BRANCH   6   7
HETATM    7  C   UNL     1      43.551 -16.804   3.960  1.00  0.00     0.018 A 
HETATM    8  C   UNL     1      43.915 -16.809   5.303  1.00  0.00     0.018 A 
HETATM    9  C   UNL     1      44.043 -15.695   6.280  1.00  0.00     0.069 C 
HETATM   10  N   UNL     1      44.153 -18.109   5.668  1.00  0.00    -0.358 N 
HETATM   11  H   UNL     1      44.430 -18.414   6.590  1.00  0.00     0.166 HD
HETATM   12  C   UNL     1      43.954 -18.955   4.604  1.00  0.00     0.043 A 
HETATM   13  C   UNL     1      43.570 -18.168   3.517  1.00  0.00     0.004 A 
HETATM   14  C   UNL     1      44.084 -20.347   4.531  1.00  0.00     0.030 A 
HETATM   15  C   UNL     1      43.303 -18.818   2.293  1.00  0.00     0.014 A 
HETATM   16  C   UNL     1      43.428 -20.211   2.201  1.00  0.00     0.001 A 
HETATM   17  C   UNL     1      43.814 -20.962   3.308  1.00  0.00     0.002 A 
ENDBRANCH   6   7
ENDBRANCH   1   5
BRANCH   2  18
HETATM   18  C   UNL     1      42.018 -11.350   2.257  1.00  0.00     0.280 C 
BRANCH  18  19
HETATM   19  O   UNL     1      40.686 -11.543   1.767  1.00  0.00    -0.341 OA
BRANCH  19  20
HETATM   20  C   UNL     1      40.638 -11.170   0.440  1.00  0.00     0.080 A 
HETATM   21  C   UNL     1      40.335 -12.101  -0.579  1.00  0.00     0.009 A 
HETATM   22  C   UNL     1      40.394 -11.676  -1.934  1.00  0.00    -0.006 A 
HETATM   23  C   UNL     1      39.980 -13.438  -0.294  1.00  0.00     0.015 A 
HETATM   24  C   UNL     1      40.132 -12.639  -2.941  1.00  0.00     0.014 A 
HETATM   25  C   UNL     1      40.711 -10.317  -2.198  1.00  0.00     0.022 A 
HETATM   26  C   UNL     1      39.805 -13.961  -2.631  1.00  0.00     0.001 A 
HETATM   27  C   UNL     1      39.721 -14.359  -1.307  1.00  0.00     0.001 A 
HETATM   28 BR   UNL     1      40.831  -9.619  -3.969  1.00  0.00    -0.050 Br
HETATM   29  C   UNL     1      40.951  -9.407  -1.163  1.00  0.00     0.023 A 
HETATM   30  C   UNL     1      40.909  -9.832   0.158  1.00  0.00     0.039 A 
ENDBRANCH  19  20
ENDBRANCH  18  19
ENDBRANCH   2  18
TORSDOF 5
ENDMDL
MODEL 7
REMARK VINA RESULT:      -8.8      1.882      2.568
REMARK  5 active torsions:
REMARK  status: ('A' for Active; 'I' for Inactive)
REMARK    1  A    between atoms: C_7  and  C_8 
REMARK    2  A    between atoms: N_9  and  N_10 
REMARK       I    between atoms: N_10  and  C_11 
REMARK    3  A    between atoms: C_11  and  C_12 
REMARK    4  A    between atoms: C_12  and  O_13 
REMARK    5  A    between atoms: O_13  and  C_14 
ROOT
HETATM    1  N   UNL     1      41.973 -14.699   1.136  1.00  0.00    -0.246 N 
HETATM    2  C   UNL     1      40.765 -14.552   0.461  1.00  0.00     0.261 C 
HETATM    3  O   UNL     1      39.828 -15.350   0.480  1.00  0.00    -0.269 OA
HETATM    4  H   UNL     1      42.745 -14.118   0.813  1.00  0.00     0.192 HD
ENDROOT
BRANCH   1   5
HETATM    5  N   UNL     1      42.360 -15.823   1.832  1.00  0.00    -0.184 NA
HETATM    6  C   UNL     1      43.009 -15.651   2.941  1.00  0.00     0.153 C 
BRANCH   6   7
HETATM    7  C   UNL     1      43.400 -16.782   3.766  1.00  0.00     0.018 A 
HETATM    8  C   UNL     1      43.759 -16.659   5.104  1.00  0.00     0.018 A 
HETATM    9  C   UNL     1      43.819 -15.466   5.990  1.00  0.00     0.069 C 
HETATM   10  N   UNL     1      44.071 -17.910   5.571  1.00  0.00    -0.358 N 
HETATM   11  H   UNL     1      44.363 -18.125   6.515  1.00  0.00     0.166 HD
HETATM   12  C   UNL     1      43.925 -18.848   4.578  1.00  0.00     0.043 A 
HETATM   13  C   UNL     1      43.500 -18.173   3.432  1.00  0.00     0.004 A 
HETATM   14  C   UNL     1      44.137 -20.232   4.616  1.00  0.00     0.030 A 
HETATM   15  C   UNL     1      43.275 -18.933   2.264  1.00  0.00     0.014 A 
HETATM   16  C   UNL     1      43.481 -20.318   2.283  1.00  0.00     0.001 A 
HETATM   17  C   UNL     1      43.908 -20.956   3.445  1.00  0.00     0.002 A 
ENDBRANCH   6   7
ENDBRANCH   1   5
BRANCH   2  18
HETATM   18  C   UNL     1      40.644 -13.230  -0.293  1.00  0.00     0.280 C 
BRANCH  18  19
HETATM   19  O   UNL     1      40.530 -13.409  -1.709  1.00  0.00    -0.341 OA
BRANCH  19  20
HETATM   20  C   UNL     1      39.420 -12.726  -2.160  1.00  0.00     0.080 A 
HETATM   21  C   UNL     1      39.536 -11.481  -2.820  1.00  0.00     0.009 A 
HETATM   22  C   UNL     1      38.352 -10.782  -3.177  1.00  0.00    -0.006 A 
HETATM   23  C   UNL     1      40.790 -10.911  -3.133  1.00  0.00     0.015 A 
HETATM   24  C   UNL     1      38.492  -9.515  -3.795  1.00  0.00     0.014 A 
HETATM   25  C   UNL     1      37.101 -11.393  -2.892  1.00  0.00     0.022 A 
HETATM   26  C   UNL     1      39.746  -8.963  -4.072  1.00  0.00     0.001 A 
HETATM   27  C   UNL     1      40.895  -9.666  -3.749  1.00  0.00     0.001 A 
HETATM   28 BR   UNL     1      35.437 -10.559  -3.310  1.00  0.00    -0.050 Br
HETATM   29  C   UNL     1      37.021 -12.652  -2.288  1.00  0.00     0.023 A 
HETATM   30  C   UNL     1      38.182 -13.322  -1.926  1.00  0.00     0.039 A 
ENDBRANCH  19  20
ENDBRANCH  18  19
ENDBRANCH   2  18
TORSDOF 5
ENDMDL
MODEL 8
REMARK VINA RESULT:      -8.7      5.169      7.558
REMARK  5 active torsions:
REMARK  status: ('A' for Active; 'I' for Inactive)
REMARK    1  A    between atoms: C_7  and  C_8 
REMARK    2  A    between atoms: N_9  and  N_10 
REMARK       I    between atoms: N_10  and  C_11 
REMARK    3  A    between atoms: C_11  and  C_12 
REMARK    4  A    between atoms: C_12  and  O_13 
REMARK    5  A    between atoms: O_13  and  C_14 
ROOT
HETATM    1  N   UNL     1      41.005 -13.748   5.684  1.00  0.00    -0.246 N 
HETATM    2  C   UNL     1      40.165 -12.801   5.108  1.00  0.00     0.261 C 
HETATM    3  O   UNL     1      39.532 -12.941   4.062  1.00  0.00    -0.269 OA
HETATM    4  H   UNL     1      41.668 -13.404   6.377  1.00  0.00     0.192 HD
ENDROOT
BRANCH   1   5
HETATM    5  N   UNL     1      41.360 -14.949   5.107  1.00  0.00    -0.184 NA
HETATM    6  C   UNL     1      42.577 -15.076   4.680  1.00  0.00     0.153 C 
BRANCH   6   7
HETATM    7  C   UNL     1      43.048 -16.329   4.115  1.00  0.00     0.018 A 
HETATM    8  C   UNL     1      43.329 -16.496   2.762  1.00  0.00     0.018 A 
HETATM    9  C   UNL     1      43.257 -15.536   1.628  1.00  0.00     0.069 C 
HETATM   10  N   UNL     1      43.742 -17.790   2.576  1.00  0.00    -0.358 N 
HETATM   11  H   UNL     1      44.017 -18.193   1.691  1.00  0.00     0.166 HD
HETATM   12  C   UNL     1      43.742 -18.475   3.767  1.00  0.00     0.043 A 
HETATM   13  C   UNL     1      43.316 -17.584   4.755  1.00  0.00     0.004 A 
HETATM   14  C   UNL     1      44.087 -19.805   4.035  1.00  0.00     0.030 A 
HETATM   15  C   UNL     1      43.235 -18.060   6.081  1.00  0.00     0.014 A 
HETATM   16  C   UNL     1      43.576 -19.388   6.368  1.00  0.00     0.001 A 
HETATM   17  C   UNL     1      43.996 -20.246   5.356  1.00  0.00     0.002 A 
ENDBRANCH   6   7
ENDBRANCH   1   5
BRANCH   2  18
HETATM   18  C   UNL     1      40.019 -11.529   5.939  1.00  0.00     0.280 C 
BRANCH  18  19
HETATM   19  O   UNL     1      40.973 -10.522   5.583  1.00  0.00    -0.341 OA
BRANCH  19  20
HETATM   20  C   UNL     1      41.688 -10.165   6.706  1.00  0.00     0.080 A 
HETATM   21  C   UNL     1      43.060 -10.477   6.839  1.00  0.00     0.009 A 
HETATM   22  C   UNL     1      43.719 -10.166   8.059  1.00  0.00    -0.006 A 
HETATM   23  C   UNL     1      43.795 -11.091   5.800  1.00  0.00     0.015 A 
HETATM   24  C   UNL     1      45.082 -10.531   8.187  1.00  0.00     0.014 A 
HETATM   25  C   UNL     1      42.973  -9.510   9.076  1.00  0.00     0.022 A 
HETATM   26  C   UNL     1      45.779 -11.158   7.152  1.00  0.00     0.001 A 
HETATM   27  C   UNL     1      45.137 -11.430   5.954  1.00  0.00     0.001 A 
HETATM   28 BR   UNL     1      43.732  -9.045  10.763  1.00  0.00    -0.050 Br
HETATM   29  C   UNL     1      41.630  -9.164   8.891  1.00  0.00     0.023 A 
HETATM   30  C   UNL     1      40.988  -9.487   7.704  1.00  0.00     0.039 A 
ENDBRANCH  19  20
ENDBRANCH  18  19
ENDBRANCH   2  18
TORSDOF 5
ENDMDL
MODEL 9
REMARK VINA RESULT:      -8.7      7.091     10.234
REMARK  5 active torsions:
REMARK  status: ('A' for Active; 'I' for Inactive)
REMARK    1  A    between atoms: C_7  and  C_8 
REMARK    2  A    between atoms: N_9  and  N_10 
REMARK       I    between atoms: N_10  and  C_11 
REMARK    3  A    between atoms: C_11  and  C_12 
REMARK    4  A    between atoms: C_12  and  O_13 
REMARK    5  A    between atoms: O_13  and  C_14 
ROOT
HETATM    1  N   UNL     1      43.915 -12.221   7.071  1.00  0.00    -0.246 N 
HETATM    2  C   UNL     1      45.032 -11.440   7.348  1.00  0.00     0.261 C 
HETATM    3  O   UNL     1      45.970 -11.227   6.580  1.00  0.00    -0.269 OA
HETATM    4  H   UNL     1      43.372 -12.535   7.874  1.00  0.00     0.192 HD
ENDROOT
BRANCH   1   5
HETATM    5  N   UNL     1      43.742 -12.984   5.936  1.00  0.00    -0.184 NA
HETATM    6  C   UNL     1      42.897 -13.965   5.992  1.00  0.00     0.153 C 
BRANCH   6   7
HETATM    7  C   UNL     1      42.612 -14.779   4.822  1.00  0.00     0.018 A 
HETATM    8  C   UNL     1      41.726 -14.389   3.822  1.00  0.00     0.018 A 
HETATM    9  C   UNL     1      40.918 -13.150   3.668  1.00  0.00     0.069 C 
HETATM   10  N   UNL     1      41.693 -15.385   2.880  1.00  0.00    -0.358 N 
HETATM   11  H   UNL     1      41.136 -15.371   2.037  1.00  0.00     0.166 HD
HETATM   12  C   UNL     1      42.532 -16.414   3.233  1.00  0.00     0.043 A 
HETATM   13  C   UNL     1      43.129 -16.062   4.445  1.00  0.00     0.004 A 
HETATM   14  C   UNL     1      42.801 -17.616   2.568  1.00  0.00     0.030 A 
HETATM   15  C   UNL     1      44.046 -16.970   5.016  1.00  0.00     0.014 A 
HETATM   16  C   UNL     1      44.329 -18.178   4.366  1.00  0.00     0.001 A 
HETATM   17  C   UNL     1      43.712 -18.494   3.159  1.00  0.00     0.002 A 
ENDBRANCH   6   7
ENDBRANCH   1   5
BRANCH   2  18
HETATM   18  C   UNL     1      44.985 -10.772   8.720  1.00  0.00     0.280 C 
BRANCH  18  19
HETATM   19  O   UNL     1      44.325  -9.502   8.696  1.00  0.00    -0.341 OA
BRANCH  19  20
HETATM   20  C   UNL     1      43.734  -9.280   9.922  1.00  0.00     0.080 A 
HETATM   21  C   UNL     1      43.247  -8.005  10.288  1.00  0.00     0.009 A 
HETATM   22  C   UNL     1      42.734  -7.819  11.600  1.00  0.00    -0.006 A 
HETATM   23  C   UNL     1      43.259  -6.911   9.394  1.00  0.00     0.015 A 
HETATM   24  C   UNL     1      42.296  -6.520  11.960  1.00  0.00     0.014 A 
HETATM   25  C   UNL     1      42.692  -8.941  12.469  1.00  0.00     0.022 A 
HETATM   26  C   UNL     1      42.340  -5.450  11.063  1.00  0.00     0.001 A 
HETATM   27  C   UNL     1      42.813  -5.648   9.776  1.00  0.00     0.001 A 
HETATM   28 BR   UNL     1      42.037  -8.827  14.258  1.00  0.00    -0.050 Br
HETATM   29  C   UNL     1      43.130 -10.204  12.057  1.00  0.00     0.023 A 
HETATM   30  C   UNL     1      43.646 -10.376  10.780  1.00  0.00     0.039 A 
ENDBRANCH  19  20
ENDBRANCH  18  19
ENDBRANCH   2  18
TORSDOF 5
ENDMDL
MODEL 10
REMARK VINA RESULT:      -8.7      4.163      6.174
REMARK  5 active torsions:
REMARK  status: ('A' for Active; 'I' for Inactive)
REMARK    1  A    between atoms: C_7  and  C_8 
REMARK    2  A    between atoms: N_9  and  N_10 
REMARK       I    between atoms: N_10  and  C_11 
REMARK    3  A    between atoms: C_11  and  C_12 
REMARK    4  A    between atoms: C_12  and  O_13 
REMARK    5  A    between atoms: O_13  and  C_14 
ROOT
HETATM    1  N   UNL     1      41.920 -13.866   3.541  1.00  0.00    -0.246 N 
HETATM    2  C   UNL     1      41.954 -13.369   2.243  1.00  0.00     0.261 C 
HETATM    3  O   UNL     1      42.013 -14.043   1.214  1.00  0.00    -0.269 OA
HETATM    4  H   UNL     1      42.154 -13.210   4.284  1.00  0.00     0.192 HD
ENDROOT
BRANCH   1   5
HETATM    5  N   UNL     1      42.073 -15.192   3.886  1.00  0.00    -0.184 NA
HETATM    6  C   UNL     1      43.251 -15.585   4.258  1.00  0.00     0.153 C 
BRANCH   6   7
HETATM    7  C   UNL     1      43.482 -16.952   4.696  1.00  0.00     0.018 A 
HETATM    8  C   UNL     1      43.683 -17.300   6.028  1.00  0.00     0.018 A 
HETATM    9  C   UNL     1      43.695 -16.466   7.260  1.00  0.00     0.069 C 
HETATM   10  N   UNL     1      43.873 -18.657   6.083  1.00  0.00    -0.358 N 
HETATM   11  H   UNL     1      44.038 -19.189   6.926  1.00  0.00     0.166 HD
HETATM   12  C   UNL     1      43.801 -19.207   4.827  1.00  0.00     0.043 A 
HETATM   13  C   UNL     1      43.551 -18.164   3.933  1.00  0.00     0.004 A 
HETATM   14  C   UNL     1      43.937 -20.542   4.425  1.00  0.00     0.030 A 
HETATM   15  C   UNL     1      43.432 -18.483   2.563  1.00  0.00     0.014 A 
HETATM   16  C   UNL     1      43.564 -19.813   2.143  1.00  0.00     0.001 A 
HETATM   17  C   UNL     1      43.815 -20.826   3.064  1.00  0.00     0.002 A 
ENDBRANCH   6   7
ENDBRANCH   1   5
BRANCH   2  18
HETATM   18  C   UNL     1      41.842 -11.848   2.168  1.00  0.00     0.280 C 
BRANCH  18  19
HETATM   19  O   UNL     1      42.957 -11.180   2.767  1.00  0.00    -0.341 OA
BRANCH  19  20
HETATM   20  C   UNL     1      42.543 -10.575   3.935  1.00  0.00     0.080 A 
HETATM   21  C   UNL     1      43.178 -10.838   5.170  1.00  0.00     0.009 A 
HETATM   22  C   UNL     1      42.645 -10.257   6.352  1.00  0.00    -0.006 A 
HETATM   23  C   UNL     1      44.320 -11.663   5.266  1.00  0.00     0.015 A 
HETATM   24  C   UNL     1      43.269 -10.573   7.584  1.00  0.00     0.014 A 
HETATM   25  C   UNL     1      41.521  -9.396   6.228  1.00  0.00     0.022 A 
HETATM   26  C   UNL     1      44.385 -11.411   7.653  1.00  0.00     0.001 A 
HETATM   27  C   UNL     1      44.916 -11.949   6.492  1.00  0.00     0.001 A 
HETATM   28 BR   UNL     1      40.704  -8.558   7.735  1.00  0.00    -0.050 Br
HETATM   29  C   UNL     1      40.951  -9.110   4.984  1.00  0.00     0.023 A 
HETATM   30  C   UNL     1      41.465  -9.696   3.835  1.00  0.00     0.039 A 
ENDBRANCH  19  20
ENDBRANCH  18  19
ENDBRANCH   2  18
TORSDOF 5
ENDMDL
