MODEL 1
REMARK VINA RESULT:      -9.9      0.000      0.000
REMARK  6 active torsions:
REMARK  status: ('A' for Active; 'I' for Inactive)
REMARK    1  A    between atoms: C_2  and  O_3 
REMARK    2  A    between atoms: C_2  and  C_4 
REMARK    3  A    between atoms: C_6  and  N_7 
REMARK       I    between atoms: N_7  and  C_8 
REMARK    4  A    between atoms: C_8  and  C_9 
REMARK    5  A    between atoms: C_14  and  C_15 
REMARK    6  A    between atoms: C_23  and  C_24 
ROOT
HETATM    1  C   UNL     1      42.789 -12.508   4.957  1.00  0.00     0.148 A 
HETATM    2  N   UNL     1      43.012 -12.482   3.620  1.00  0.00    -0.165 NA
HETATM    3  N   UNL     1      42.596 -13.698   3.217  1.00  0.00    -0.240 N 
HETATM    4  C   UNL     1      42.198 -14.518   4.235  1.00  0.00     0.123 A 
HETATM    5  N   UNL     1      41.879 -15.808   4.007  1.00  0.00    -0.366 N 
HETATM    6  C   UNL     1      42.218 -16.490   2.757  1.00  0.00     0.118 C 
HETATM    7  C   UNL     1      43.137 -15.632   1.860  1.00  0.00     0.066 C 
HETATM    8  C   UNL     1      42.724 -14.152   1.847  1.00  0.00     0.221 C 
HETATM    9  C   UNL     1      42.244 -13.756   5.370  1.00  0.00     0.089 A 
HETATM   10  H   UNL     1      41.570 -16.414   4.766  1.00  0.00     0.161 HD
ENDROOT
BRANCH   1  11
HETATM   11  C   UNL     1      43.133 -11.376   5.835  1.00  0.00     0.276 C 
HETATM   12  N   UNL     1      43.796 -11.787   6.975  1.00  0.00    -0.322 N 
HETATM   13  H   UNL     1      43.978 -12.788   6.997  1.00  0.00     0.169 HD
HETATM   14  O   UNL     1      42.829 -10.226   5.537  1.00  0.00    -0.266 OA
BRANCH  12  15
HETATM   15  C   UNL     1      44.226 -11.008   8.061  1.00  0.00     0.035 A 
HETATM   16  C   UNL     1      43.467 -10.800   9.215  1.00  0.00     0.039 A 
HETATM   17  C   UNL     1      43.953 -10.011  10.272  1.00  0.00    -0.028 A 
HETATM   18  C   UNL     1      45.213  -9.412  10.146  1.00  0.00     0.010 A 
HETATM   19  C   UNL     1      45.982  -9.623   9.003  1.00  0.00     0.003 A 
HETATM   20  C   UNL     1      45.492 -10.421   7.968  1.00  0.00     0.029 A 
BRANCH  17  21
HETATM   21  C   UNL     1      43.091  -9.795  11.499  1.00  0.00     0.147 C 
HETATM   22  C   UNL     1      43.527  -8.571  12.291  1.00  0.00     0.044 C 
BRANCH  21  23
HETATM   23  O   UNL     1      43.131 -10.938  12.351  1.00  0.00    -0.391 OA
HETATM   24  H   UNL     1      42.918 -10.623  13.246  1.00  0.00     0.210 HD
ENDBRANCH  21  23
ENDBRANCH  17  21
ENDBRANCH  12  15
ENDBRANCH   1  11
BRANCH   8  25
HETATM   25  C   UNL     1      41.437 -13.909   1.094  1.00  0.00     0.409 C 
HETATM   26  F   UNL     1      40.382 -13.737   1.922  1.00  0.00    -0.169 F 
HETATM   27  F   UNL     1      41.546 -12.765   0.366  1.00  0.00    -0.169 F 
HETATM   28  F   UNL     1      41.123 -14.889   0.224  1.00  0.00    -0.169 F 
ENDBRANCH   8  25
BRANCH   6  29
HETATM   29  C   UNL     1      42.883 -17.819   3.083  1.00  0.00    -0.035 A 
HETATM   30  C   UNL     1      43.519 -18.011   4.320  1.00  0.00     0.012 A 
HETATM   31  C   UNL     1      44.124 -19.234   4.621  1.00  0.00     0.043 A 
HETATM   32  C   UNL     1      44.095 -20.267   3.691  1.00  0.00     0.116 A 
HETATM   33  F   UNL     1      44.678 -21.436   3.984  1.00  0.00    -0.206 F 
HETATM   34  C   UNL     1      43.470 -20.103   2.462  1.00  0.00     0.043 A 
HETATM   35  C   UNL     1      42.863 -18.884   2.159  1.00  0.00     0.012 A 
ENDBRANCH   6  29
TORSDOF 6
ENDMDL
MODEL 2
REMARK VINA RESULT:      -9.8      2.488      4.958
REMARK  6 active torsions:
REMARK  status: ('A' for Active; 'I' for Inactive)
REMARK    1  A    between atoms: C_2  and  O_3 
REMARK    2  A    between atoms: C_2  and  C_4 
REMARK    3  A    between atoms: C_6  and  N_7 
REMARK       I    between atoms: N_7  and  C_8 
REMARK    4  A    between atoms: C_8  and  C_9 
REMARK    5  A    between atoms: C_14  and  C_15 
REMARK    6  A    between atoms: C_23  and  C_24 
ROOT
HETATM    1  C   UNL     1      42.518 -12.283   4.034  1.00  0.00     0.148 A 
HETATM    2  N   UNL     1      41.953 -13.472   4.357  1.00  0.00    -0.165 NA
HETATM    3  N   UNL     1      41.708 -14.029   3.156  1.00  0.00    -0.240 N 
HETATM    4  C   UNL     1      42.013 -13.225   2.094  1.00  0.00     0.123 A 
HETATM    5  N   UNL     1      41.704 -13.589   0.833  1.00  0.00    -0.366 N 
HETATM    6  C   UNL     1      40.775 -14.681   0.537  1.00  0.00     0.118 C 
HETATM    7  C   UNL     1      40.067 -15.199   1.808  1.00  0.00     0.066 C 
HETATM    8  C   UNL     1      41.021 -15.297   3.009  1.00  0.00     0.221 C 
HETATM    9  C   UNL     1      42.605 -12.113   2.624  1.00  0.00     0.089 A 
HETATM   10  H   UNL     1      41.944 -12.993   0.041  1.00  0.00     0.161 HD
ENDROOT
BRANCH   1  11
HETATM   11  C   UNL     1      42.928 -11.303   5.056  1.00  0.00     0.276 C 
HETATM   12  N   UNL     1      43.797 -11.851   5.979  1.00  0.00    -0.322 N 
HETATM   13  H   UNL     1      44.047 -12.816   5.775  1.00  0.00     0.169 HD
HETATM   14  O   UNL     1      42.502 -10.153   5.040  1.00  0.00    -0.266 OA
BRANCH  12  15
HETATM   15  C   UNL     1      44.349 -11.246   7.120  1.00  0.00     0.035 A 
HETATM   16  C   UNL     1      43.698 -11.181   8.355  1.00  0.00     0.039 A 
HETATM   17  C   UNL     1      44.304 -10.565   9.464  1.00  0.00    -0.028 A 
HETATM   18  C   UNL     1      45.574  -9.993   9.311  1.00  0.00     0.010 A 
HETATM   19  C   UNL     1      46.235 -10.062   8.086  1.00  0.00     0.003 A 
HETATM   20  C   UNL     1      45.627 -10.691   6.998  1.00  0.00     0.029 A 
BRANCH  17  21
HETATM   21  C   UNL     1      43.558 -10.500  10.780  1.00  0.00     0.147 C 
HETATM   22  C   UNL     1      43.842  -9.207  11.531  1.00  0.00     0.044 C 
BRANCH  21  23
HETATM   23  O   UNL     1      43.905 -11.605  11.612  1.00  0.00    -0.391 OA
HETATM   24  H   UNL     1      44.545 -11.270  12.264  1.00  0.00     0.210 HD
ENDBRANCH  21  23
ENDBRANCH  17  21
ENDBRANCH  12  15
ENDBRANCH   1  11
BRANCH   8  25
HETATM   25  C   UNL     1      42.021 -16.420   2.875  1.00  0.00     0.409 C 
HETATM   26  F   UNL     1      43.224 -15.986   2.436  1.00  0.00    -0.169 F 
HETATM   27  F   UNL     1      42.236 -16.986   4.092  1.00  0.00    -0.169 F 
HETATM   28  F   UNL     1      41.617 -17.413   2.057  1.00  0.00    -0.169 F 
ENDBRANCH   8  25
BRANCH   6  29
HETATM   29  C   UNL     1      39.754 -14.201  -0.483  1.00  0.00    -0.035 A 
HETATM   30  C   UNL     1      39.188 -12.921  -0.374  1.00  0.00     0.012 A 
HETATM   31  C   UNL     1      38.255 -12.478  -1.314  1.00  0.00     0.043 A 
HETATM   32  C   UNL     1      37.885 -13.310  -2.365  1.00  0.00     0.116 A 
HETATM   33  F   UNL     1      36.989 -12.881  -3.263  1.00  0.00    -0.206 F 
HETATM   34  C   UNL     1      38.432 -14.579  -2.497  1.00  0.00     0.043 A 
HETATM   35  C   UNL     1      39.366 -15.023  -1.561  1.00  0.00     0.012 A 
ENDBRANCH   6  29
TORSDOF 6
ENDMDL
MODEL 3
REMARK VINA RESULT:      -9.2      1.566      2.072
REMARK  6 active torsions:
REMARK  status: ('A' for Active; 'I' for Inactive)
REMARK    1  A    between atoms: C_2  and  O_3 
REMARK    2  A    between atoms: C_2  and  C_4 
REMARK    3  A    between atoms: C_6  and  N_7 
REMARK       I    between atoms: N_7  and  C_8 
REMARK    4  A    between atoms: C_8  and  C_9 
REMARK    5  A    between atoms: C_14  and  C_15 
REMARK    6  A    between atoms: C_23  and  C_24 
ROOT
HETATM    1  C   UNL     1      43.394 -12.061   5.961  1.00  0.00     0.148 A 
HETATM    2  N   UNL     1      43.601 -11.850   4.638  1.00  0.00    -0.165 NA
HETATM    3  N   UNL     1      43.050 -12.937   4.066  1.00  0.00    -0.240 N 
HETATM    4  C   UNL     1      42.578 -13.859   4.957  1.00  0.00     0.123 A 
HETATM    5  N   UNL     1      42.116 -15.056   4.543  1.00  0.00    -0.366 N 
HETATM    6  C   UNL     1      42.363 -15.567   3.194  1.00  0.00     0.118 C 
HETATM    7  C   UNL     1      43.359 -14.683   2.413  1.00  0.00     0.066 C 
HETATM    8  C   UNL     1      43.110 -13.184   2.640  1.00  0.00     0.221 C 
HETATM    9  C   UNL     1      42.721 -13.293   6.194  1.00  0.00     0.089 A 
HETATM   10  H   UNL     1      41.752 -15.738   5.209  1.00  0.00     0.161 HD
ENDROOT
BRANCH   1  11
HETATM   11  C   UNL     1      43.871 -11.122   6.992  1.00  0.00     0.276 C 
HETATM   12  N   UNL     1      42.836 -10.399   7.554  1.00  0.00    -0.322 N 
HETATM   13  H   UNL     1      41.919 -10.667   7.202  1.00  0.00     0.169 HD
HETATM   14  O   UNL     1      45.063 -11.031   7.265  1.00  0.00    -0.266 OA
BRANCH  12  15
HETATM   15  C   UNL     1      42.908  -9.380   8.516  1.00  0.00     0.035 A 
HETATM   16  C   UNL     1      42.883  -9.611   9.894  1.00  0.00     0.039 A 
HETATM   17  C   UNL     1      42.963  -8.548  10.811  1.00  0.00    -0.028 A 
HETATM   18  C   UNL     1      43.049  -7.238  10.322  1.00  0.00     0.010 A 
HETATM   19  C   UNL     1      43.085  -6.998   8.950  1.00  0.00     0.003 A 
HETATM   20  C   UNL     1      43.021  -8.065   8.052  1.00  0.00     0.029 A 
BRANCH  17  21
HETATM   21  C   UNL     1      42.914  -8.839  12.296  1.00  0.00     0.147 C 
HETATM   22  C   UNL     1      42.748 -10.326  12.578  1.00  0.00     0.044 C 
BRANCH  21  23
HETATM   23  O   UNL     1      41.843  -8.128  12.915  1.00  0.00    -0.391 OA
HETATM   24  H   UNL     1      41.243  -8.798  13.286  1.00  0.00     0.210 HD
ENDBRANCH  21  23
ENDBRANCH  17  21
ENDBRANCH  12  15
ENDBRANCH   1  11
BRANCH   8  25
HETATM   25  C   UNL     1      41.848 -12.690   1.971  1.00  0.00     0.409 C 
HETATM   26  F   UNL     1      41.970 -11.422   1.518  1.00  0.00    -0.169 F 
HETATM   27  F   UNL     1      41.577 -13.463   0.885  1.00  0.00    -0.169 F 
HETATM   28  F   UNL     1      40.758 -12.743   2.761  1.00  0.00    -0.169 F 
ENDBRANCH   8  25
BRANCH   6  29
HETATM   29  C   UNL     1      42.883 -16.994   3.292  1.00  0.00    -0.035 A 
HETATM   30  C   UNL     1      42.707 -17.889   2.225  1.00  0.00     0.012 A 
HETATM   31  C   UNL     1      43.190 -19.198   2.313  1.00  0.00     0.043 A 
HETATM   32  C   UNL     1      43.850 -19.614   3.464  1.00  0.00     0.116 A 
HETATM   33  F   UNL     1      44.308 -20.870   3.543  1.00  0.00    -0.206 F 
HETATM   34  C   UNL     1      44.039 -18.748   4.531  1.00  0.00     0.043 A 
HETATM   35  C   UNL     1      43.560 -17.440   4.445  1.00  0.00     0.012 A 
ENDBRANCH   6  29
TORSDOF 6
ENDMDL
MODEL 4
REMARK VINA RESULT:      -9.2      5.792      9.607
REMARK  6 active torsions:
REMARK  status: ('A' for Active; 'I' for Inactive)
REMARK    1  A    between atoms: C_2  and  O_3 
REMARK    2  A    between atoms: C_2  and  C_4 
REMARK    3  A    between atoms: C_6  and  N_7 
REMARK       I    between atoms: N_7  and  C_8 
REMARK    4  A    between atoms: C_8  and  C_9 
REMARK    5  A    between atoms: C_14  and  C_15 
REMARK    6  A    between atoms: C_23  and  C_24 
ROOT
HETATM    1  C   UNL     1      40.306 -14.512   1.487  1.00  0.00     0.148 A 
HETATM    2  N   UNL     1      40.094 -14.819   0.184  1.00  0.00    -0.165 NA
HETATM    3  N   UNL     1      39.685 -13.649  -0.343  1.00  0.00    -0.240 N 
HETATM    4  C   UNL     1      39.551 -12.642   0.570  1.00  0.00     0.123 A 
HETATM    5  N   UNL     1      39.027 -11.450   0.220  1.00  0.00    -0.366 N 
HETATM    6  C   UNL     1      38.301 -11.251  -1.035  1.00  0.00     0.118 C 
HETATM    7  C   UNL     1      38.045 -12.582  -1.773  1.00  0.00     0.066 C 
HETATM    8  C   UNL     1      39.260 -13.521  -1.722  1.00  0.00     0.221 C 
HETATM    9  C   UNL     1      40.011 -13.146   1.755  1.00  0.00     0.089 A 
HETATM   10  H   UNL     1      38.940 -10.695   0.901  1.00  0.00     0.161 HD
ENDROOT
BRANCH   1  11
HETATM   11  C   UNL     1      40.740 -15.518   2.473  1.00  0.00     0.276 C 
HETATM   12  N   UNL     1      42.072 -15.852   2.320  1.00  0.00    -0.322 N 
HETATM   13  H   UNL     1      42.541 -15.318   1.591  1.00  0.00     0.169 HD
HETATM   14  O   UNL     1      39.958 -15.976   3.299  1.00  0.00    -0.266 OA
BRANCH  12  15
HETATM   15  C   UNL     1      42.816 -16.808   3.029  1.00  0.00     0.035 A 
HETATM   16  C   UNL     1      43.129 -18.074   2.529  1.00  0.00     0.039 A 
HETATM   17  C   UNL     1      43.882 -18.989   3.285  1.00  0.00    -0.028 A 
HETATM   18  C   UNL     1      44.303 -18.620   4.570  1.00  0.00     0.010 A 
HETATM   19  C   UNL     1      44.006 -17.355   5.073  1.00  0.00     0.003 A 
HETATM   20  C   UNL     1      43.270 -16.452   4.303  1.00  0.00     0.029 A 
BRANCH  17  21
HETATM   21  C   UNL     1      44.184 -20.359   2.714  1.00  0.00     0.147 C 
HETATM   22  C   UNL     1      43.417 -20.618   1.425  1.00  0.00     0.044 C 
BRANCH  21  23
HETATM   23  O   UNL     1      43.865 -21.380   3.657  1.00  0.00    -0.391 OA
HETATM   24  H   UNL     1      44.673 -21.542   4.174  1.00  0.00     0.210 HD
ENDBRANCH  21  23
ENDBRANCH  17  21
ENDBRANCH  12  15
ENDBRANCH   1  11
BRANCH   8  25
HETATM   25  C   UNL     1      40.408 -13.043  -2.580  1.00  0.00     0.409 C 
HETATM   26  F   UNL     1      41.075 -14.065  -3.160  1.00  0.00    -0.169 F 
HETATM   27  F   UNL     1      39.929 -12.271  -3.592  1.00  0.00    -0.169 F 
HETATM   28  F   UNL     1      41.306 -12.289  -1.915  1.00  0.00    -0.169 F 
ENDBRANCH   8  25
BRANCH   6  29
HETATM   29  C   UNL     1      36.986 -10.544  -0.740  1.00  0.00    -0.035 A 
HETATM   30  C   UNL     1      36.185 -10.065  -1.790  1.00  0.00     0.012 A 
HETATM   31  C   UNL     1      34.975  -9.422  -1.519  1.00  0.00     0.043 A 
HETATM   32  C   UNL     1      34.560  -9.258  -0.202  1.00  0.00     0.116 A 
HETATM   33  F   UNL     1      33.400  -8.640   0.052  1.00  0.00    -0.206 F 
HETATM   34  C   UNL     1      35.331  -9.725   0.853  1.00  0.00     0.043 A 
HETATM   35  C   UNL     1      36.539 -10.370   0.585  1.00  0.00     0.012 A 
ENDBRANCH   6  29
TORSDOF 6
ENDMDL
MODEL 5
REMARK VINA RESULT:      -8.9      3.898      9.370
REMARK  6 active torsions:
REMARK  status: ('A' for Active; 'I' for Inactive)
REMARK    1  A    between atoms: C_2  and  O_3 
REMARK    2  A    between atoms: C_2  and  C_4 
REMARK    3  A    between atoms: C_6  and  N_7 
REMARK       I    between atoms: N_7  and  C_8 
REMARK    4  A    between atoms: C_8  and  C_9 
REMARK    5  A    between atoms: C_14  and  C_15 
REMARK    6  A    between atoms: C_23  and  C_24 
ROOT
HETATM    1  C   UNL     1      41.962 -12.956   5.665  1.00  0.00     0.148 A 
HETATM    2  N   UNL     1      40.962 -12.052   5.522  1.00  0.00    -0.165 NA
HETATM    3  N   UNL     1      41.483 -10.932   6.059  1.00  0.00    -0.240 N 
HETATM    4  C   UNL     1      42.724 -11.100   6.605  1.00  0.00     0.123 A 
HETATM    5  N   UNL     1      43.322 -10.108   7.294  1.00  0.00    -0.366 N 
HETATM    6  C   UNL     1      42.592  -8.929   7.763  1.00  0.00     0.118 C 
HETATM    7  C   UNL     1      41.069  -9.069   7.554  1.00  0.00     0.066 C 
HETATM    8  C   UNL     1      40.723  -9.707   6.199  1.00  0.00     0.221 C 
HETATM    9  C   UNL     1      43.095 -12.382   6.306  1.00  0.00     0.089 A 
HETATM   10  H   UNL     1      44.254 -10.231   7.690  1.00  0.00     0.161 HD
ENDROOT
BRANCH   1  11
HETATM   11  C   UNL     1      41.821 -14.359   5.237  1.00  0.00     0.276 C 
HETATM   12  N   UNL     1      42.984 -14.847   4.672  1.00  0.00    -0.322 N 
HETATM   13  H   UNL     1      43.752 -14.180   4.689  1.00  0.00     0.169 HD
HETATM   14  O   UNL     1      40.765 -14.965   5.383  1.00  0.00    -0.266 OA
BRANCH  12  15
HETATM   15  C   UNL     1      43.210 -16.110   4.102  1.00  0.00     0.035 A 
HETATM   16  C   UNL     1      43.573 -17.240   4.839  1.00  0.00     0.039 A 
HETATM   17  C   UNL     1      43.783 -18.480   4.211  1.00  0.00    -0.028 A 
HETATM   18  C   UNL     1      43.643 -18.567   2.820  1.00  0.00     0.010 A 
HETATM   19  C   UNL     1      43.271 -17.448   2.078  1.00  0.00     0.003 A 
HETATM   20  C   UNL     1      43.051 -16.227   2.717  1.00  0.00     0.029 A 
BRANCH  17  21
HETATM   21  C   UNL     1      44.193 -19.677   5.044  1.00  0.00     0.147 C 
HETATM   22  C   UNL     1      43.954 -20.989   4.310  1.00  0.00     0.044 C 
BRANCH  21  23
HETATM   23  O   UNL     1      43.478 -19.701   6.279  1.00  0.00    -0.391 OA
HETATM   24  H   UNL     1      43.714 -20.535   6.720  1.00  0.00     0.210 HD
ENDBRANCH  21  23
ENDBRANCH  17  21
ENDBRANCH  12  15
ENDBRANCH   1  11
BRANCH   8  25
HETATM   25  C   UNL     1      40.994  -8.788   5.031  1.00  0.00     0.409 C 
HETATM   26  F   UNL     1      42.091  -9.156   4.333  1.00  0.00    -0.169 F 
HETATM   27  F   UNL     1      39.949  -8.836   4.163  1.00  0.00    -0.169 F 
HETATM   28  F   UNL     1      41.142  -7.494   5.381  1.00  0.00    -0.169 F 
ENDBRANCH   8  25
BRANCH   6  29
HETATM   29  C   UNL     1      42.909  -8.703   9.234  1.00  0.00    -0.035 A 
HETATM   30  C   UNL     1      42.433  -7.559   9.896  1.00  0.00     0.012 A 
HETATM   31  C   UNL     1      42.718  -7.355  11.248  1.00  0.00     0.043 A 
HETATM   32  C   UNL     1      43.476  -8.291  11.943  1.00  0.00     0.116 A 
HETATM   33  F   UNL     1      43.748  -8.089  13.238  1.00  0.00    -0.206 F 
HETATM   34  C   UNL     1      43.956  -9.431  11.313  1.00  0.00     0.043 A 
HETATM   35  C   UNL     1      43.670  -9.639   9.963  1.00  0.00     0.012 A 
ENDBRANCH   6  29
TORSDOF 6
ENDMDL
MODEL 6
REMARK VINA RESULT:      -8.7      3.829      9.202
REMARK  6 active torsions:
REMARK  status: ('A' for Active; 'I' for Inactive)
REMARK    1  A    between atoms: C_2  and  O_3 
REMARK    2  A    between atoms: C_2  and  C_4 
REMARK    3  A    between atoms: C_6  and  N_7 
REMARK       I    between atoms: N_7  and  C_8 
REMARK    4  A    between atoms: C_8  and  C_9 
REMARK    5  A    between atoms: C_14  and  C_15 
REMARK    6  A    between atoms: C_23  and  C_24 
ROOT
HETATM    1  C   UNL     1      42.538 -13.772   5.233  1.00  0.00     0.148 A 
HETATM    2  N   UNL     1      41.542 -12.888   4.981  1.00  0.00    -0.165 NA
HETATM    3  N   UNL     1      42.015 -11.739   5.502  1.00  0.00    -0.240 N 
HETATM    4  C   UNL     1      43.217 -11.867   6.138  1.00  0.00     0.123 A 
HETATM    5  N   UNL     1      43.757 -10.837   6.820  1.00  0.00    -0.366 N 
HETATM    6  C   UNL     1      42.987  -9.648   7.184  1.00  0.00     0.118 C 
HETATM    7  C   UNL     1      41.482  -9.816   6.878  1.00  0.00     0.066 C 
HETATM    8  C   UNL     1      41.236 -10.518   5.534  1.00  0.00     0.221 C 
HETATM    9  C   UNL     1      43.619 -13.156   5.923  1.00  0.00     0.089 A 
HETATM   10  H   UNL     1      44.661 -10.932   7.283  1.00  0.00     0.161 HD
ENDROOT
BRANCH   1  11
HETATM   11  C   UNL     1      42.440 -15.195   4.861  1.00  0.00     0.276 C 
HETATM   12  N   UNL     1      43.205 -15.999   5.684  1.00  0.00    -0.322 N 
HETATM   13  H   UNL     1      43.666 -15.487   6.433  1.00  0.00     0.169 HD
HETATM   14  O   UNL     1      41.751 -15.558   3.914  1.00  0.00    -0.266 OA
BRANCH  12  15
HETATM   15  C   UNL     1      43.407 -17.386   5.602  1.00  0.00     0.035 A 
HETATM   16  C   UNL     1      43.680 -18.060   4.409  1.00  0.00     0.039 A 
HETATM   17  C   UNL     1      43.877 -19.452   4.390  1.00  0.00    -0.028 A 
HETATM   18  C   UNL     1      43.775 -20.167   5.590  1.00  0.00     0.010 A 
HETATM   19  C   UNL     1      43.513 -19.502   6.787  1.00  0.00     0.003 A 
HETATM   20  C   UNL     1      43.335 -18.117   6.792  1.00  0.00     0.029 A 
BRANCH  17  21
HETATM   21  C   UNL     1      44.154 -20.147   3.073  1.00  0.00     0.147 C 
HETATM   22  C   UNL     1      43.143 -19.760   2.003  1.00  0.00     0.044 C 
BRANCH  21  23
HETATM   23  O   UNL     1      44.135 -21.564   3.237  1.00  0.00    -0.391 OA
HETATM   24  H   UNL     1      45.062 -21.845   3.324  1.00  0.00     0.210 HD
ENDBRANCH  21  23
ENDBRANCH  17  21
ENDBRANCH  12  15
ENDBRANCH   1  11
BRANCH   8  25
HETATM   25  C   UNL     1      41.577  -9.649   4.346  1.00  0.00     0.409 C 
HETATM   26  F   UNL     1      41.774  -8.358   4.695  1.00  0.00    -0.169 F 
HETATM   27  F   UNL     1      42.740 -10.079   3.788  1.00  0.00    -0.169 F 
HETATM   28  F   UNL     1      40.650  -9.675   3.369  1.00  0.00    -0.169 F 
ENDBRANCH   8  25
BRANCH   6  29
HETATM   29  C   UNL     1      43.199  -9.352   8.662  1.00  0.00    -0.035 A 
HETATM   30  C   UNL     1      42.151  -8.835   9.441  1.00  0.00     0.012 A 
HETATM   31  C   UNL     1      42.345  -8.569  10.799  1.00  0.00     0.043 A 
HETATM   32  C   UNL     1      43.582  -8.821  11.382  1.00  0.00     0.116 A 
HETATM   33  F   UNL     1      43.762  -8.563  12.683  1.00  0.00    -0.206 F 
HETATM   34  C   UNL     1      44.633  -9.335  10.634  1.00  0.00     0.043 A 
HETATM   35  C   UNL     1      44.441  -9.604   9.278  1.00  0.00     0.012 A 
ENDBRANCH   6  29
TORSDOF 6
ENDMDL
MODEL 7
REMARK VINA RESULT:      -8.6      2.032      2.698
REMARK  6 active torsions:
REMARK  status: ('A' for Active; 'I' for Inactive)
REMARK    1  A    between atoms: C_2  and  O_3 
REMARK    2  A    between atoms: C_2  and  C_4 
REMARK    3  A    between atoms: C_6  and  N_7 
REMARK       I    between atoms: N_7  and  C_8 
REMARK    4  A    between atoms: C_8  and  C_9 
REMARK    5  A    between atoms: C_14  and  C_15 
REMARK    6  A    between atoms: C_23  and  C_24 
ROOT
HETATM    1  C   UNL     1      42.137 -10.604   6.066  1.00  0.00     0.148 A 
HETATM    2  N   UNL     1      42.646 -10.379   4.830  1.00  0.00    -0.165 NA
HETATM    3  N   UNL     1      42.370 -11.521   4.173  1.00  0.00    -0.240 N 
HETATM    4  C   UNL     1      41.787 -12.484   4.947  1.00  0.00     0.123 A 
HETATM    5  N   UNL     1      41.569 -13.726   4.469  1.00  0.00    -0.366 N 
HETATM    6  C   UNL     1      42.198 -14.214   3.240  1.00  0.00     0.118 C 
HETATM    7  C   UNL     1      43.261 -13.232   2.704  1.00  0.00     0.066 C 
HETATM    8  C   UNL     1      42.811 -11.767   2.814  1.00  0.00     0.221 C 
HETATM    9  C   UNL     1      41.557 -11.900   6.162  1.00  0.00     0.089 A 
HETATM   10  H   UNL     1      41.122 -14.439   5.045  1.00  0.00     0.161 HD
ENDROOT
BRANCH   1  11
HETATM   11  C   UNL     1      42.242  -9.614   7.153  1.00  0.00     0.276 C 
HETATM   12  N   UNL     1      42.352 -10.216   8.392  1.00  0.00    -0.322 N 
HETATM   13  H   UNL     1      42.391 -11.232   8.345  1.00  0.00     0.169 HD
HETATM   14  O   UNL     1      42.216  -8.410   6.920  1.00  0.00    -0.266 OA
BRANCH  12  15
HETATM   15  C   UNL     1      42.413  -9.604   9.654  1.00  0.00     0.035 A 
HETATM   16  C   UNL     1      41.287  -9.178  10.364  1.00  0.00     0.039 A 
HETATM   17  C   UNL     1      41.410  -8.574  11.627  1.00  0.00    -0.028 A 
HETATM   18  C   UNL     1      42.690  -8.383  12.164  1.00  0.00     0.010 A 
HETATM   19  C   UNL     1      43.818  -8.814  11.468  1.00  0.00     0.003 A 
HETATM   20  C   UNL     1      43.678  -9.426  10.221  1.00  0.00     0.029 A 
BRANCH  17  21
HETATM   21  C   UNL     1      40.166  -8.110  12.356  1.00  0.00     0.147 C 
HETATM   22  C   UNL     1      40.467  -7.704  13.791  1.00  0.00     0.044 C 
BRANCH  21  23
HETATM   23  O   UNL     1      39.174  -9.135  12.363  1.00  0.00    -0.391 OA
HETATM   24  H   UNL     1      39.640  -9.971  12.537  1.00  0.00     0.210 HD
ENDBRANCH  21  23
ENDBRANCH  17  21
ENDBRANCH  12  15
ENDBRANCH   1  11
BRANCH   8  25
HETATM   25  C   UNL     1      41.714 -11.414   1.838  1.00  0.00     0.409 C 
HETATM   26  F   UNL     1      40.511 -11.289   2.441  1.00  0.00    -0.169 F 
HETATM   27  F   UNL     1      41.984 -10.212   1.264  1.00  0.00    -0.169 F 
HETATM   28  F   UNL     1      41.580 -12.299   0.829  1.00  0.00    -0.169 F 
ENDBRANCH   8  25
BRANCH   6  29
HETATM   29  C   UNL     1      42.819 -15.576   3.509  1.00  0.00    -0.035 A 
HETATM   30  C   UNL     1      43.306 -15.896   4.787  1.00  0.00     0.012 A 
HETATM   31  C   UNL     1      43.872 -17.149   5.035  1.00  0.00     0.043 A 
HETATM   32  C   UNL     1      43.950 -18.086   4.011  1.00  0.00     0.116 A 
HETATM   33  F   UNL     1      44.494 -19.285   4.254  1.00  0.00    -0.206 F 
HETATM   34  C   UNL     1      43.473 -17.797   2.740  1.00  0.00     0.043 A 
HETATM   35  C   UNL     1      42.906 -16.546   2.490  1.00  0.00     0.012 A 
ENDBRANCH   6  29
TORSDOF 6
ENDMDL
MODEL 8
REMARK VINA RESULT:      -8.5      5.232      9.201
REMARK  6 active torsions:
REMARK  status: ('A' for Active; 'I' for Inactive)
REMARK    1  A    between atoms: C_2  and  O_3 
REMARK    2  A    between atoms: C_2  and  C_4 
REMARK    3  A    between atoms: C_6  and  N_7 
REMARK       I    between atoms: N_7  and  C_8 
REMARK    4  A    between atoms: C_8  and  C_9 
REMARK    5  A    between atoms: C_14  and  C_15 
REMARK    6  A    between atoms: C_23  and  C_24 
ROOT
HETATM    1  C   UNL     1      40.022 -14.113   0.958  1.00  0.00     0.148 A 
HETATM    2  N   UNL     1      40.177 -14.271  -0.379  1.00  0.00    -0.165 NA
HETATM    3  N   UNL     1      39.728 -13.104  -0.878  1.00  0.00    -0.240 N 
HETATM    4  C   UNL     1      39.224 -12.251   0.062  1.00  0.00     0.123 A 
HETATM    5  N   UNL     1      38.618 -11.100  -0.294  1.00  0.00    -0.366 N 
HETATM    6  C   UNL     1      38.190 -10.832  -1.667  1.00  0.00     0.118 C 
HETATM    7  C   UNL     1      38.329 -12.076  -2.571  1.00  0.00     0.066 C 
HETATM    8  C   UNL     1      39.629 -12.850  -2.302  1.00  0.00     0.221 C 
HETATM    9  C   UNL     1      39.462 -12.843   1.271  1.00  0.00     0.089 A 
HETATM   10  H   UNL     1      38.254 -10.459   0.411  1.00  0.00     0.161 HD
ENDROOT
BRANCH   1  11
HETATM   11  C   UNL     1      40.361 -15.177   1.921  1.00  0.00     0.276 C 
HETATM   12  N   UNL     1      41.727 -15.333   2.060  1.00  0.00    -0.322 N 
HETATM   13  H   UNL     1      42.267 -14.663   1.517  1.00  0.00     0.169 HD
HETATM   14  O   UNL     1      39.486 -15.820   2.491  1.00  0.00    -0.266 OA
BRANCH  12  15
HETATM   15  C   UNL     1      42.420 -16.277   2.834  1.00  0.00     0.035 A 
HETATM   16  C   UNL     1      42.532 -16.206   4.225  1.00  0.00     0.039 A 
HETATM   17  C   UNL     1      43.237 -17.184   4.948  1.00  0.00    -0.028 A 
HETATM   18  C   UNL     1      43.849 -18.233   4.249  1.00  0.00     0.010 A 
HETATM   19  C   UNL     1      43.734 -18.318   2.863  1.00  0.00     0.003 A 
HETATM   20  C   UNL     1      43.017 -17.347   2.160  1.00  0.00     0.029 A 
BRANCH  17  21
HETATM   21  C   UNL     1      43.351 -17.061   6.453  1.00  0.00     0.147 C 
HETATM   22  C   UNL     1      44.658 -16.403   6.872  1.00  0.00     0.044 C 
BRANCH  21  23
HETATM   23  O   UNL     1      43.258 -18.343   7.073  1.00  0.00    -0.391 OA
HETATM   24  H   UNL     1      42.310 -18.544   7.153  1.00  0.00     0.210 HD
ENDBRANCH  21  23
ENDBRANCH  17  21
ENDBRANCH  12  15
ENDBRANCH   1  11
BRANCH   8  25
HETATM   25  C   UNL     1      40.859 -12.120  -2.789  1.00  0.00     0.409 C 
HETATM   26  F   UNL     1      40.555 -11.116  -3.642  1.00  0.00    -0.169 F 
HETATM   27  F   UNL     1      41.496 -11.548  -1.732  1.00  0.00    -0.169 F 
HETATM   28  F   UNL     1      41.760 -12.918  -3.394  1.00  0.00    -0.169 F 
ENDBRANCH   8  25
BRANCH   6  29
HETATM   29  C   UNL     1      36.749 -10.345  -1.651  1.00  0.00    -0.035 A 
HETATM   30  C   UNL     1      36.209  -9.759  -0.494  1.00  0.00     0.012 A 
HETATM   31  C   UNL     1      34.887  -9.307  -0.482  1.00  0.00     0.043 A 
HETATM   32  C   UNL     1      34.103  -9.435  -1.623  1.00  0.00     0.116 A 
HETATM   33  F   UNL     1      32.836  -9.001  -1.605  1.00  0.00    -0.206 F 
HETATM   34  C   UNL     1      34.613 -10.007  -2.780  1.00  0.00     0.043 A 
HETATM   35  C   UNL     1      35.934 -10.458  -2.796  1.00  0.00     0.012 A 
ENDBRANCH   6  29
TORSDOF 6
ENDMDL
MODEL 9
REMARK VINA RESULT:      -8.4      8.742     12.132
REMARK  6 active torsions:
REMARK  status: ('A' for Active; 'I' for Inactive)
REMARK    1  A    between atoms: C_2  and  O_3 
REMARK    2  A    between atoms: C_2  and  C_4 
REMARK    3  A    between atoms: C_6  and  N_7 
REMARK       I    between atoms: N_7  and  C_8 
REMARK    4  A    between atoms: C_8  and  C_9 
REMARK    5  A    between atoms: C_14  and  C_15 
REMARK    6  A    between atoms: C_23  and  C_24 
ROOT
HETATM    1  C   UNL     1      41.438  -7.433  15.540  1.00  0.00     0.148 A 
HETATM    2  N   UNL     1      40.695  -6.755  14.632  1.00  0.00    -0.165 NA
HETATM    3  N   UNL     1      40.880  -7.459  13.499  1.00  0.00    -0.240 N 
HETATM    4  C   UNL     1      41.761  -8.495  13.623  1.00  0.00     0.123 A 
HETATM    5  N   UNL     1      42.150  -9.211  12.549  1.00  0.00    -0.366 N 
HETATM    6  C   UNL     1      41.914  -8.759  11.177  1.00  0.00     0.118 C 
HETATM    7  C   UNL     1      41.372  -7.314  11.130  1.00  0.00     0.066 C 
HETATM    8  C   UNL     1      40.327  -7.046  12.224  1.00  0.00     0.221 C 
HETATM    9  C   UNL     1      42.090  -8.551  14.949  1.00  0.00     0.089 A 
HETATM   10  H   UNL     1      42.799  -9.993  12.646  1.00  0.00     0.161 HD
ENDROOT
BRANCH   1  11
HETATM   11  C   UNL     1      41.562  -6.993  16.941  1.00  0.00     0.276 C 
HETATM   12  N   UNL     1      41.427  -8.045  17.827  1.00  0.00    -0.322 N 
HETATM   13  H   UNL     1      41.315  -8.946  17.369  1.00  0.00     0.169 HD
HETATM   14  O   UNL     1      41.750  -5.814  17.223  1.00  0.00    -0.266 OA
BRANCH  12  15
HETATM   15  C   UNL     1      41.428  -8.005  19.231  1.00  0.00     0.035 A 
HETATM   16  C   UNL     1      40.289  -7.752  20.000  1.00  0.00     0.039 A 
HETATM   17  C   UNL     1      40.350  -7.728  21.404  1.00  0.00    -0.028 A 
HETATM   18  C   UNL     1      41.584  -7.945  22.031  1.00  0.00     0.010 A 
HETATM   19  C   UNL     1      42.724  -8.209  21.273  1.00  0.00     0.003 A 
HETATM   20  C   UNL     1      42.643  -8.244  19.880  1.00  0.00     0.029 A 
BRANCH  17  21
HETATM   21  C   UNL     1      39.096  -7.432  22.200  1.00  0.00     0.147 C 
HETATM   22  C   UNL     1      39.258  -6.196  23.074  1.00  0.00     0.044 C 
BRANCH  21  23
HETATM   23  O   UNL     1      38.750  -8.542  23.027  1.00  0.00    -0.391 OA
HETATM   24  H   UNL     1      38.701  -9.318  22.442  1.00  0.00     0.210 HD
ENDBRANCH  21  23
ENDBRANCH  17  21
ENDBRANCH  12  15
ENDBRANCH   1  11
BRANCH   8  25
HETATM   25  C   UNL     1      39.016  -7.753  11.970  1.00  0.00     0.409 C 
HETATM   26  F   UNL     1      37.957  -6.919  12.070  1.00  0.00    -0.169 F 
HETATM   27  F   UNL     1      39.002  -8.244  10.702  1.00  0.00    -0.169 F 
HETATM   28  F   UNL     1      38.796  -8.800  12.790  1.00  0.00    -0.169 F 
ENDBRANCH   8  25
BRANCH   6  29
HETATM   29  C   UNL     1      43.211  -8.866  10.390  1.00  0.00    -0.035 A 
HETATM   30  C   UNL     1      43.458  -8.007   9.306  1.00  0.00     0.012 A 
HETATM   31  C   UNL     1      44.652  -8.102   8.587  1.00  0.00     0.043 A 
HETATM   32  C   UNL     1      45.602  -9.052   8.948  1.00  0.00     0.116 A 
HETATM   33  F   UNL     1      46.744  -9.139   8.254  1.00  0.00    -0.206 F 
HETATM   34  C   UNL     1      45.384  -9.910  10.017  1.00  0.00     0.043 A 
HETATM   35  C   UNL     1      44.193  -9.816  10.738  1.00  0.00     0.012 A 
ENDBRANCH   6  29
TORSDOF 6
ENDMDL
MODEL 10
REMARK VINA RESULT:      -8.2      2.144      2.768
REMARK  6 active torsions:
REMARK  status: ('A' for Active; 'I' for Inactive)
REMARK    1  A    between atoms: C_2  and  O_3 
REMARK    2  A    between atoms: C_2  and  C_4 
REMARK    3  A    between atoms: C_6  and  N_7 
REMARK       I    between atoms: N_7  and  C_8 
REMARK    4  A    between atoms: C_8  and  C_9 
REMARK    5  A    between atoms: C_14  and  C_15 
REMARK    6  A    between atoms: C_23  and  C_24 
ROOT
HETATM    1  C   UNL     1      41.882 -11.851   5.415  1.00  0.00     0.148 A 
HETATM    2  N   UNL     1      42.331 -11.793   4.137  1.00  0.00    -0.165 NA
HETATM    3  N   UNL     1      42.116 -13.041   3.681  1.00  0.00    -0.240 N 
HETATM    4  C   UNL     1      41.633 -13.905   4.622  1.00  0.00     0.123 A 
HETATM    5  N   UNL     1      41.491 -15.219   4.355  1.00  0.00    -0.366 N 
HETATM    6  C   UNL     1      42.110 -15.854   3.191  1.00  0.00     0.118 C 
HETATM    7  C   UNL     1      43.079 -14.900   2.459  1.00  0.00     0.066 C 
HETATM    8  C   UNL     1      42.526 -13.470   2.359  1.00  0.00     0.221 C 
HETATM    9  C   UNL     1      41.404 -13.151   5.740  1.00  0.00     0.089 A 
HETATM   10  H   UNL     1      41.117 -15.859   5.056  1.00  0.00     0.161 HD
ENDROOT
BRANCH   1  11
HETATM   11  C   UNL     1      41.952 -10.696   6.327  1.00  0.00     0.276 C 
HETATM   12  N   UNL     1      40.792 -10.546   7.062  1.00  0.00    -0.322 N 
HETATM   13  H   UNL     1      40.107 -11.278   6.889  1.00  0.00     0.169 HD
HETATM   14  O   UNL     1      42.949  -9.983   6.374  1.00  0.00    -0.266 OA
BRANCH  12  15
HETATM   15  C   UNL     1      40.469  -9.535   7.981  1.00  0.00     0.035 A 
HETATM   16  C   UNL     1      41.058  -9.418   9.243  1.00  0.00     0.039 A 
HETATM   17  C   UNL     1      40.696  -8.380  10.120  1.00  0.00    -0.028 A 
HETATM   18  C   UNL     1      39.712  -7.466   9.719  1.00  0.00     0.010 A 
HETATM   19  C   UNL     1      39.128  -7.569   8.458  1.00  0.00     0.003 A 
HETATM   20  C   UNL     1      39.509  -8.596   7.592  1.00  0.00     0.029 A 
BRANCH  17  21
HETATM   21  C   UNL     1      41.345  -8.299  11.487  1.00  0.00     0.147 C 
HETATM   22  C   UNL     1      42.849  -8.520  11.415  1.00  0.00     0.044 C 
BRANCH  21  23
HETATM   23  O   UNL     1      40.776  -9.261  12.373  1.00  0.00    -0.391 OA
HETATM   24  H   UNL     1      41.498  -9.859  12.633  1.00  0.00     0.210 HD
ENDBRANCH  21  23
ENDBRANCH  17  21
ENDBRANCH  12  15
ENDBRANCH   1  11
BRANCH   8  25
HETATM   25  C   UNL     1      41.373 -13.353   1.390  1.00  0.00     0.409 C 
HETATM   26  F   UNL     1      41.488 -12.275   0.583  1.00  0.00    -0.169 F 
HETATM   27  F   UNL     1      41.349 -14.442   0.577  1.00  0.00    -0.169 F 
HETATM   28  F   UNL     1      40.166 -13.294   1.988  1.00  0.00    -0.169 F 
ENDBRANCH   8  25
BRANCH   6  29
HETATM   29  C   UNL     1      42.839 -17.111   3.641  1.00  0.00    -0.035 A 
HETATM   30  C   UNL     1      43.197 -18.098   2.708  1.00  0.00     0.012 A 
HETATM   31  C   UNL     1      43.872 -19.249   3.121  1.00  0.00     0.043 A 
HETATM   32  C   UNL     1      44.193 -19.417   4.464  1.00  0.00     0.116 A 
HETATM   33  F   UNL     1      44.839 -20.523   4.854  1.00  0.00    -0.206 F 
HETATM   34  C   UNL     1      43.854 -18.455   5.405  1.00  0.00     0.043 A 
HETATM   35  C   UNL     1      43.182 -17.303   4.995  1.00  0.00     0.012 A 
ENDBRANCH   6  29
TORSDOF 6
ENDMDL
