MODEL 1
REMARK VINA RESULT:      -8.0      0.000      0.000
REMARK  5 active torsions:
REMARK  status: ('A' for Active; 'I' for Inactive)
REMARK    1  A    between atoms: C_9  and  C_10 
REMARK    2  A    between atoms: C_10  and  N_11 
REMARK    3  A    between atoms: N_11  and  C_14 
REMARK    4  A    between atoms: C_14  and  C_15 
REMARK    5  A    between atoms: C_16  and  C_17 
ROOT
HETATM    1  C   UNL     1      43.194 -15.372   3.669  1.00  0.00    -0.036 A 
HETATM    2  C   UNL     1      43.270 -16.429   4.586  1.00  0.00     0.013 A 
HETATM    3  C   UNL     1      43.365 -17.750   4.136  1.00  0.00     0.023 A 
HETATM    4  C   UNL     1      43.380 -18.026   2.764  1.00  0.00     0.044 A 
HETATM    5  C   UNL     1      43.485 -19.380   2.301  1.00  0.00     0.099 C 
HETATM    6  N   UNL     1      43.575 -20.473   1.926  1.00  0.00    -0.191 NA
HETATM    7  C   UNL     1      43.295 -16.974   1.848  1.00  0.00     0.023 A 
HETATM    8  C   UNL     1      43.196 -15.653   2.298  1.00  0.00     0.013 A 
ENDROOT
BRANCH   1   9
HETATM    9  C   UNL     1      43.089 -13.981   4.119  1.00  0.00     0.009 C 
HETATM   10  C   UNL     1      43.385 -12.952   3.309  1.00  0.00     0.001 C 
BRANCH  10  11
HETATM   11  C   UNL     1      43.303 -11.519   3.710  1.00  0.00     0.259 C 
BRANCH  11  12
HETATM   12  N   UNL     1      42.501 -10.750   2.719  1.00  0.00    -0.071 N 
HETATM   13  H   UNL     1      42.860 -10.974   1.780  1.00  0.00     0.277 HD
HETATM   14  H   UNL     1      42.701  -9.752   2.856  1.00  0.00     0.277 HD
BRANCH  12  15
HETATM   15  C   UNL     1      41.023 -11.005   2.783  1.00  0.00     0.242 C 
BRANCH  15  16
HETATM   16  C   UNL     1      40.481 -11.607   1.468  1.00  0.00     0.055 C 
HETATM   17  C   UNL     1      40.281 -13.113   1.481  1.00  0.00    -0.025 A 
HETATM   18  C   UNL     1      39.897 -13.822   2.631  1.00  0.00     0.010 A 
HETATM   19  C   UNL     1      40.349 -13.813   0.264  1.00  0.00     0.041 A 
HETATM   20  C   UNL     1      39.655 -15.197   2.573  1.00  0.00     0.001 A 
HETATM   21  C   UNL     1      39.762 -15.878   1.365  1.00  0.00     0.002 A 
HETATM   22  C   UNL     1      40.094 -15.184   0.204  1.00  0.00     0.030 A 
HETATM   23  N   UNL     1      40.616 -13.132  -0.925  1.00  0.00    -0.327 N 
HETATM   24  C   UNL     1      40.983 -11.821  -1.003  1.00  0.00     0.222 C 
HETATM   25  H   UNL     1      40.492 -13.603  -1.816  1.00  0.00     0.169 HD
HETATM   26  O   UNL     1      41.121 -11.249  -2.079  1.00  0.00    -0.273 OA
HETATM   27  C   UNL     1      41.368 -11.170   0.298  1.00  0.00     0.114 C 
ENDBRANCH  15  16
ENDBRANCH  12  15
ENDBRANCH  11  12
ENDBRANCH  10  11
ENDBRANCH   1   9
TORSDOF 5
ENDMDL
MODEL 2
REMARK VINA RESULT:      -7.8      3.097      6.095
REMARK  5 active torsions:
REMARK  status: ('A' for Active; 'I' for Inactive)
REMARK    1  A    between atoms: C_9  and  C_10 
REMARK    2  A    between atoms: C_10  and  N_11 
REMARK    3  A    between atoms: N_11  and  C_14 
REMARK    4  A    between atoms: C_14  and  C_15 
REMARK    5  A    between atoms: C_16  and  C_17 
ROOT
HETATM    1  C   UNL     1      39.857 -13.691   2.129  1.00  0.00    -0.036 A 
HETATM    2  C   UNL     1      40.093 -12.502   1.427  1.00  0.00     0.013 A 
HETATM    3  C   UNL     1      40.250 -12.519   0.038  1.00  0.00     0.023 A 
HETATM    4  C   UNL     1      40.175 -13.728  -0.663  1.00  0.00     0.044 A 
HETATM    5  C   UNL     1      40.328 -13.746  -2.089  1.00  0.00     0.099 C 
HETATM    6  N   UNL     1      40.446 -13.762  -3.243  1.00  0.00    -0.191 NA
HETATM    7  C   UNL     1      39.949 -14.917   0.036  1.00  0.00     0.023 A 
HETATM    8  C   UNL     1      39.797 -14.900   1.426  1.00  0.00     0.013 A 
ENDROOT
BRANCH   1   9
HETATM    9  C   UNL     1      39.696 -13.696   3.586  1.00  0.00     0.009 C 
HETATM   10  C   UNL     1      40.234 -12.739   4.360  1.00  0.00     0.001 C 
BRANCH  10  11
HETATM   11  C   UNL     1      40.110 -12.693   5.844  1.00  0.00     0.259 C 
BRANCH  11  12
HETATM   12  N   UNL     1      41.067 -13.643   6.473  1.00  0.00    -0.071 N 
HETATM   13  H   UNL     1      40.743 -14.600   6.268  1.00  0.00     0.277 HD
HETATM   14  H   UNL     1      40.990 -13.542   7.492  1.00  0.00     0.277 HD
BRANCH  12  15
HETATM   15  C   UNL     1      42.492 -13.474   6.032  1.00  0.00     0.242 C 
BRANCH  15  16
HETATM   16  C   UNL     1      43.163 -14.826   5.707  1.00  0.00     0.055 C 
HETATM   17  C   UNL     1      43.167 -15.209   4.236  1.00  0.00    -0.025 A 
HETATM   18  C   UNL     1      43.263 -14.263   3.202  1.00  0.00     0.010 A 
HETATM   19  C   UNL     1      43.213 -16.571   3.894  1.00  0.00     0.041 A 
HETATM   20  C   UNL     1      43.336 -14.671   1.867  1.00  0.00     0.001 A 
HETATM   21  C   UNL     1      43.345 -16.024   1.547  1.00  0.00     0.002 A 
HETATM   22  C   UNL     1      43.299 -16.978   2.561  1.00  0.00     0.030 A 
HETATM   23  N   UNL     1      43.234 -17.547   4.892  1.00  0.00    -0.327 N 
HETATM   24  C   UNL     1      43.052 -17.302   6.221  1.00  0.00     0.222 C 
HETATM   25  H   UNL     1      43.442 -18.511   4.651  1.00  0.00     0.169 HD
HETATM   26  O   UNL     1      43.168 -18.184   7.065  1.00  0.00    -0.273 OA
HETATM   27  C   UNL     1      42.544 -15.929   6.571  1.00  0.00     0.114 C 
ENDBRANCH  15  16
ENDBRANCH  12  15
ENDBRANCH  11  12
ENDBRANCH  10  11
ENDBRANCH   1   9
TORSDOF 5
ENDMDL
MODEL 3
REMARK VINA RESULT:      -7.6      1.289      1.806
REMARK  5 active torsions:
REMARK  status: ('A' for Active; 'I' for Inactive)
REMARK    1  A    between atoms: C_9  and  C_10 
REMARK    2  A    between atoms: C_10  and  N_11 
REMARK    3  A    between atoms: N_11  and  C_14 
REMARK    4  A    between atoms: C_14  and  C_15 
REMARK    5  A    between atoms: C_16  and  C_17 
ROOT
HETATM    1  C   UNL     1      43.233 -15.882   3.768  1.00  0.00    -0.036 A 
HETATM    2  C   UNL     1      43.089 -16.184   2.408  1.00  0.00     0.013 A 
HETATM    3  C   UNL     1      43.252 -17.497   1.954  1.00  0.00     0.023 A 
HETATM    4  C   UNL     1      43.565 -18.519   2.856  1.00  0.00     0.044 A 
HETATM    5  C   UNL     1      43.725 -19.867   2.392  1.00  0.00     0.099 C 
HETATM    6  N   UNL     1      43.849 -20.959   2.019  1.00  0.00    -0.191 NA
HETATM    7  C   UNL     1      43.719 -18.219   4.212  1.00  0.00     0.023 A 
HETATM    8  C   UNL     1      43.560 -16.905   4.665  1.00  0.00     0.013 A 
ENDROOT
BRANCH   1   9
HETATM    9  C   UNL     1      43.072 -14.513   4.265  1.00  0.00     0.009 C 
HETATM   10  C   UNL     1      42.500 -14.254   5.452  1.00  0.00     0.001 C 
BRANCH  10  11
HETATM   11  C   UNL     1      42.304 -12.885   6.007  1.00  0.00     0.259 C 
BRANCH  11  12
HETATM   12  N   UNL     1      42.125 -11.901   4.906  1.00  0.00    -0.071 N 
HETATM   13  H   UNL     1      42.656 -12.239   4.090  1.00  0.00     0.277 HD
HETATM   14  H   UNL     1      42.583 -11.025   5.185  1.00  0.00     0.277 HD
BRANCH  12  15
HETATM   15  C   UNL     1      40.695 -11.648   4.523  1.00  0.00     0.242 C 
BRANCH  15  16
HETATM   16  C   UNL     1      40.508 -11.583   2.992  1.00  0.00     0.055 C 
HETATM   17  C   UNL     1      40.382 -12.929   2.297  1.00  0.00    -0.025 A 
HETATM   18  C   UNL     1      39.771 -14.042   2.898  1.00  0.00     0.010 A 
HETATM   19  C   UNL     1      40.768 -13.031   0.950  1.00  0.00     0.041 A 
HETATM   20  C   UNL     1      39.616 -15.237   2.190  1.00  0.00     0.001 A 
HETATM   21  C   UNL     1      40.036 -15.329   0.868  1.00  0.00     0.002 A 
HETATM   22  C   UNL     1      40.599 -14.221   0.240  1.00  0.00     0.030 A 
HETATM   23  N   UNL     1      41.275 -11.918   0.277  1.00  0.00    -0.327 N 
HETATM   24  C   UNL     1      41.588 -10.730   0.867  1.00  0.00     0.222 C 
HETATM   25  H   UNL     1      41.387 -11.946  -0.732  1.00  0.00     0.169 HD
HETATM   26  O   UNL     1      41.948  -9.756   0.215  1.00  0.00    -0.273 OA
HETATM   27  C   UNL     1      41.624 -10.736   2.372  1.00  0.00     0.114 C 
ENDBRANCH  15  16
ENDBRANCH  12  15
ENDBRANCH  11  12
ENDBRANCH  10  11
ENDBRANCH   1   9
TORSDOF 5
ENDMDL
MODEL 4
REMARK VINA RESULT:      -7.4      2.908      4.937
REMARK  5 active torsions:
REMARK  status: ('A' for Active; 'I' for Inactive)
REMARK    1  A    between atoms: C_9  and  C_10 
REMARK    2  A    between atoms: C_10  and  N_11 
REMARK    3  A    between atoms: N_11  and  C_14 
REMARK    4  A    between atoms: C_14  and  C_15 
REMARK    5  A    between atoms: C_16  and  C_17 
ROOT
HETATM    1  C   UNL     1      43.205 -16.256   3.002  1.00  0.00    -0.036 A 
HETATM    2  C   UNL     1      43.228 -17.439   2.252  1.00  0.00     0.013 A 
HETATM    3  C   UNL     1      43.568 -18.653   2.856  1.00  0.00     0.023 A 
HETATM    4  C   UNL     1      43.893 -18.694   4.216  1.00  0.00     0.044 A 
HETATM    5  C   UNL     1      44.236 -19.940   4.839  1.00  0.00     0.099 C 
HETATM    6  N   UNL     1      44.507 -20.948   5.345  1.00  0.00    -0.191 NA
HETATM    7  C   UNL     1      43.881 -17.514   4.965  1.00  0.00     0.023 A 
HETATM    8  C   UNL     1      43.545 -16.299   4.359  1.00  0.00     0.013 A 
ENDROOT
BRANCH   1   9
HETATM    9  C   UNL     1      42.857 -14.972   2.387  1.00  0.00     0.009 C 
HETATM   10  C   UNL     1      41.695 -14.791   1.737  1.00  0.00     0.001 C 
BRANCH  10  11
HETATM   11  C   UNL     1      41.288 -13.513   1.088  1.00  0.00     0.259 C 
BRANCH  11  12
HETATM   12  N   UNL     1      40.506 -12.677   2.038  1.00  0.00    -0.071 N 
HETATM   13  H   UNL     1      39.981 -13.310   2.659  1.00  0.00     0.277 HD
HETATM   14  H   UNL     1      39.792 -12.169   1.501  1.00  0.00     0.277 HD
BRANCH  12  15
HETATM   15  C   UNL     1      41.331 -11.722   2.852  1.00  0.00     0.242 C 
BRANCH  15  16
HETATM   16  C   UNL     1      41.258 -12.035   4.363  1.00  0.00     0.055 C 
HETATM   17  C   UNL     1      42.600 -12.123   5.070  1.00  0.00    -0.025 A 
HETATM   18  C   UNL     1      43.708 -11.341   4.704  1.00  0.00     0.010 A 
HETATM   19  C   UNL     1      42.703 -12.918   6.224  1.00  0.00     0.041 A 
HETATM   20  C   UNL     1      44.899 -11.406   5.433  1.00  0.00     0.001 A 
HETATM   21  C   UNL     1      44.991 -12.227   6.552  1.00  0.00     0.002 A 
HETATM   22  C   UNL     1      43.888 -12.972   6.959  1.00  0.00     0.030 A 
HETATM   23  N   UNL     1      41.595 -13.626   6.692  1.00  0.00    -0.327 N 
HETATM   24  C   UNL     1      40.412 -13.747   6.024  1.00  0.00     0.222 C 
HETATM   25  H   UNL     1      41.621 -14.054   7.612  1.00  0.00     0.169 HD
HETATM   26  O   UNL     1      39.441 -14.306   6.520  1.00  0.00    -0.273 OA
HETATM   27  C   UNL     1      40.423 -13.299   4.587  1.00  0.00     0.114 C 
ENDBRANCH  15  16
ENDBRANCH  12  15
ENDBRANCH  11  12
ENDBRANCH  10  11
ENDBRANCH   1   9
TORSDOF 5
ENDMDL
MODEL 5
REMARK VINA RESULT:      -7.1      3.358      6.582
REMARK  5 active torsions:
REMARK  status: ('A' for Active; 'I' for Inactive)
REMARK    1  A    between atoms: C_9  and  C_10 
REMARK    2  A    between atoms: C_10  and  N_11 
REMARK    3  A    between atoms: N_11  and  C_14 
REMARK    4  A    between atoms: C_14  and  C_15 
REMARK    5  A    between atoms: C_16  and  C_17 
ROOT
HETATM    1  C   UNL     1      40.855 -13.327   0.602  1.00  0.00    -0.036 A 
HETATM    2  C   UNL     1      40.233 -14.577   0.494  1.00  0.00     0.013 A 
HETATM    3  C   UNL     1      39.588 -14.946  -0.691  1.00  0.00     0.023 A 
HETATM    4  C   UNL     1      39.557 -14.066  -1.778  1.00  0.00     0.044 A 
HETATM    5  C   UNL     1      38.902 -14.446  -2.996  1.00  0.00     0.099 C 
HETATM    6  N   UNL     1      38.378 -14.755  -3.984  1.00  0.00    -0.191 NA
HETATM    7  C   UNL     1      40.168 -12.814  -1.670  1.00  0.00     0.023 A 
HETATM    8  C   UNL     1      40.809 -12.443  -0.483  1.00  0.00     0.013 A 
ENDROOT
BRANCH   1   9
HETATM    9  C   UNL     1      41.531 -12.917   1.836  1.00  0.00     0.009 C 
HETATM   10  C   UNL     1      41.014 -13.182   3.047  1.00  0.00     0.001 C 
BRANCH  10  11
HETATM   11  C   UNL     1      41.651 -12.788   4.335  1.00  0.00     0.259 C 
BRANCH  11  12
HETATM   12  N   UNL     1      40.934 -13.415   5.479  1.00  0.00    -0.071 N 
HETATM   13  H   UNL     1      39.988 -13.008   5.521  1.00  0.00     0.277 HD
HETATM   14  H   UNL     1      41.397 -13.115   6.346  1.00  0.00     0.277 HD
BRANCH  12  15
HETATM   15  C   UNL     1      40.851 -14.913   5.416  1.00  0.00     0.242 C 
BRANCH  15  16
HETATM   16  C   UNL     1      42.231 -15.578   5.614  1.00  0.00     0.055 C 
HETATM   17  C   UNL     1      42.614 -16.599   4.555  1.00  0.00    -0.025 A 
HETATM   18  C   UNL     1      42.224 -16.486   3.210  1.00  0.00     0.010 A 
HETATM   19  C   UNL     1      43.506 -17.627   4.901  1.00  0.00     0.041 A 
HETATM   20  C   UNL     1      42.663 -17.413   2.261  1.00  0.00     0.001 A 
HETATM   21  C   UNL     1      43.519 -18.444   2.631  1.00  0.00     0.002 A 
HETATM   22  C   UNL     1      43.955 -18.544   3.950  1.00  0.00     0.030 A 
HETATM   23  N   UNL     1      44.011 -17.713   6.200  1.00  0.00    -0.327 N 
HETATM   24  C   UNL     1      43.585 -16.955   7.250  1.00  0.00     0.222 C 
HETATM   25  H   UNL     1      44.782 -18.342   6.402  1.00  0.00     0.169 HD
HETATM   26  O   UNL     1      44.123 -17.009   8.351  1.00  0.00    -0.273 OA
HETATM   27  C   UNL     1      42.319 -16.173   7.023  1.00  0.00     0.114 C 
ENDBRANCH  15  16
ENDBRANCH  12  15
ENDBRANCH  11  12
ENDBRANCH  10  11
ENDBRANCH   1   9
TORSDOF 5
ENDMDL
MODEL 6
REMARK VINA RESULT:      -7.1     15.129     16.566
REMARK  5 active torsions:
REMARK  status: ('A' for Active; 'I' for Inactive)
REMARK    1  A    between atoms: C_9  and  C_10 
REMARK    2  A    between atoms: C_10  and  N_11 
REMARK    3  A    between atoms: N_11  and  C_14 
REMARK    4  A    between atoms: C_14  and  C_15 
REMARK    5  A    between atoms: C_16  and  C_17 
ROOT
HETATM    1  C   UNL     1      47.095 -29.448   3.182  1.00  0.00    -0.036 A 
HETATM    2  C   UNL     1      47.195 -30.646   3.901  1.00  0.00     0.013 A 
HETATM    3  C   UNL     1      48.422 -31.052   4.432  1.00  0.00     0.023 A 
HETATM    4  C   UNL     1      49.564 -30.265   4.247  1.00  0.00     0.044 A 
HETATM    5  C   UNL     1      50.822 -30.676   4.798  1.00  0.00     0.099 C 
HETATM    6  N   UNL     1      51.840 -31.005   5.248  1.00  0.00    -0.191 NA
HETATM    7  C   UNL     1      49.469 -29.073   3.521  1.00  0.00     0.023 A 
HETATM    8  C   UNL     1      48.241 -28.670   2.986  1.00  0.00     0.013 A 
ENDROOT
BRANCH   1   9
HETATM    9  C   UNL     1      45.819 -29.007   2.611  1.00  0.00     0.009 C 
HETATM   10  C   UNL     1      44.727 -29.789   2.632  1.00  0.00     0.001 C 
BRANCH  10  11
HETATM   11  C   UNL     1      43.406 -29.399   2.065  1.00  0.00     0.259 C 
BRANCH  11  12
HETATM   12  N   UNL     1      43.521 -29.163   0.599  1.00  0.00    -0.071 N 
HETATM   13  H   UNL     1      44.189 -28.392   0.455  1.00  0.00     0.277 HD
HETATM   14  H   UNL     1      42.618 -28.808   0.263  1.00  0.00     0.277 HD
BRANCH  12  15
HETATM   15  C   UNL     1      43.942 -30.367  -0.193  1.00  0.00     0.242 C 
BRANCH  15  16
HETATM   16  C   UNL     1      44.917 -29.999  -1.333  1.00  0.00     0.055 C 
HETATM   17  C   UNL     1      46.391 -30.094  -0.979  1.00  0.00    -0.025 A 
HETATM   18  C   UNL     1      46.900 -31.047  -0.081  1.00  0.00     0.010 A 
HETATM   19  C   UNL     1      47.306 -29.287  -1.677  1.00  0.00     0.041 A 
HETATM   20  C   UNL     1      48.274 -31.141   0.156  1.00  0.00     0.001 A 
HETATM   21  C   UNL     1      49.161 -30.309  -0.520  1.00  0.00     0.002 A 
HETATM   22  C   UNL     1      48.679 -29.391  -1.450  1.00  0.00     0.030 A 
HETATM   23  N   UNL     1      46.857 -28.404  -2.661  1.00  0.00    -0.327 N 
HETATM   24  C   UNL     1      45.547 -28.126  -2.915  1.00  0.00     0.222 C 
HETATM   25  H   UNL     1      47.526 -27.956  -3.280  1.00  0.00     0.169 HD
HETATM   26  O   UNL     1      45.205 -27.409  -3.849  1.00  0.00    -0.273 OA
HETATM   27  C   UNL     1      44.562 -28.615  -1.887  1.00  0.00     0.114 C 
ENDBRANCH  15  16
ENDBRANCH  12  15
ENDBRANCH  11  12
ENDBRANCH  10  11
ENDBRANCH   1   9
TORSDOF 5
ENDMDL
MODEL 7
REMARK VINA RESULT:      -7.0      1.781      3.036
REMARK  5 active torsions:
REMARK  status: ('A' for Active; 'I' for Inactive)
REMARK    1  A    between atoms: C_9  and  C_10 
REMARK    2  A    between atoms: C_10  and  N_11 
REMARK    3  A    between atoms: N_11  and  C_14 
REMARK    4  A    between atoms: C_14  and  C_15 
REMARK    5  A    between atoms: C_16  and  C_17 
ROOT
HETATM    1  C   UNL     1      43.129 -16.033   3.647  1.00  0.00    -0.036 A 
HETATM    2  C   UNL     1      42.776 -16.628   2.429  1.00  0.00     0.013 A 
HETATM    3  C   UNL     1      43.014 -17.989   2.212  1.00  0.00     0.023 A 
HETATM    4  C   UNL     1      43.610 -18.766   3.211  1.00  0.00     0.044 A 
HETATM    5  C   UNL     1      43.847 -20.164   2.993  1.00  0.00     0.099 C 
HETATM    6  N   UNL     1      44.034 -21.296   2.820  1.00  0.00    -0.191 NA
HETATM    7  C   UNL     1      43.972 -18.173   4.424  1.00  0.00     0.023 A 
HETATM    8  C   UNL     1      43.738 -16.810   4.638  1.00  0.00     0.013 A 
ENDROOT
BRANCH   1   9
HETATM    9  C   UNL     1      42.894 -14.607   3.893  1.00  0.00     0.009 C 
HETATM   10  C   UNL     1      43.343 -13.661   3.052  1.00  0.00     0.001 C 
BRANCH  10  11
HETATM   11  C   UNL     1      43.141 -12.198   3.250  1.00  0.00     0.259 C 
BRANCH  11  12
HETATM   12  N   UNL     1      41.718 -11.835   3.010  1.00  0.00    -0.071 N 
HETATM   13  H   UNL     1      41.498 -11.016   3.595  1.00  0.00     0.277 HD
HETATM   14  H   UNL     1      41.131 -12.596   3.375  1.00  0.00     0.277 HD
BRANCH  12  15
HETATM   15  C   UNL     1      41.381 -11.551   1.575  1.00  0.00     0.242 C 
BRANCH  15  16
HETATM   16  C   UNL     1      41.155 -12.846   0.765  1.00  0.00     0.055 C 
HETATM   17  C   UNL     1      40.663 -12.642  -0.658  1.00  0.00    -0.025 A 
HETATM   18  C   UNL     1      41.037 -11.538  -1.443  1.00  0.00     0.010 A 
HETATM   19  C   UNL     1      39.913 -13.662  -1.266  1.00  0.00     0.041 A 
HETATM   20  C   UNL     1      40.616 -11.433  -2.771  1.00  0.00     0.001 A 
HETATM   21  C   UNL     1      39.844 -12.438  -3.344  1.00  0.00     0.002 A 
HETATM   22  C   UNL     1      39.505 -13.563  -2.597  1.00  0.00     0.030 A 
HETATM   23  N   UNL     1      39.614 -14.830  -0.561  1.00  0.00    -0.327 N 
HETATM   24  C   UNL     1      39.858 -15.019   0.767  1.00  0.00     0.222 C 
HETATM   25  H   UNL     1      39.228 -15.631  -1.052  1.00  0.00     0.169 HD
HETATM   26  O   UNL     1      39.655 -16.096   1.317  1.00  0.00    -0.273 OA
HETATM   27  C   UNL     1      40.233 -13.787   1.546  1.00  0.00     0.114 C 
ENDBRANCH  15  16
ENDBRANCH  12  15
ENDBRANCH  11  12
ENDBRANCH  10  11
ENDBRANCH   1   9
TORSDOF 5
ENDMDL
MODEL 8
REMARK VINA RESULT:      -6.8     10.171     12.959
REMARK  5 active torsions:
REMARK  status: ('A' for Active; 'I' for Inactive)
REMARK    1  A    between atoms: C_9  and  C_10 
REMARK    2  A    between atoms: C_10  and  N_11 
REMARK    3  A    between atoms: N_11  and  C_14 
REMARK    4  A    between atoms: C_14  and  C_15 
REMARK    5  A    between atoms: C_16  and  C_17 
ROOT
HETATM    1  C   UNL     1      42.730  -8.519  13.398  1.00  0.00    -0.036 A 
HETATM    2  C   UNL     1      43.405  -7.367  13.821  1.00  0.00     0.013 A 
HETATM    3  C   UNL     1      43.021  -6.714  14.996  1.00  0.00     0.023 A 
HETATM    4  C   UNL     1      41.956  -7.206  15.759  1.00  0.00     0.044 A 
HETATM    5  C   UNL     1      41.566  -6.542  16.969  1.00  0.00     0.099 C 
HETATM    6  N   UNL     1      41.254  -6.009  17.951  1.00  0.00    -0.191 NA
HETATM    7  C   UNL     1      41.275  -8.350  15.334  1.00  0.00     0.023 A 
HETATM    8  C   UNL     1      41.656  -9.000  14.155  1.00  0.00     0.013 A 
ENDROOT
BRANCH   1   9
HETATM    9  C   UNL     1      43.112  -9.215  12.166  1.00  0.00     0.009 C 
HETATM   10  C   UNL     1      43.825  -8.609  11.203  1.00  0.00     0.001 C 
BRANCH  10  11
HETATM   11  C   UNL     1      44.238  -9.261   9.929  1.00  0.00     0.259 C 
BRANCH  11  12
HETATM   12  N   UNL     1      43.284  -8.918   8.839  1.00  0.00    -0.071 N 
HETATM   13  H   UNL     1      42.602  -9.687   8.762  1.00  0.00     0.277 HD
HETATM   14  H   UNL     1      43.801  -8.922   7.951  1.00  0.00     0.277 HD
BRANCH  12  15
HETATM   15  C   UNL     1      42.569  -7.610   9.026  1.00  0.00     0.242 C 
BRANCH  15  16
HETATM   16  C   UNL     1      41.056  -7.805   9.262  1.00  0.00     0.055 C 
HETATM   17  C   UNL     1      40.531  -7.263  10.581  1.00  0.00    -0.025 A 
HETATM   18  C   UNL     1      41.060  -6.117  11.198  1.00  0.00     0.010 A 
HETATM   19  C   UNL     1      39.383  -7.847  11.142  1.00  0.00     0.041 A 
HETATM   20  C   UNL     1      40.495  -5.616  12.374  1.00  0.00     0.001 A 
HETATM   21  C   UNL     1      39.379  -6.230  12.933  1.00  0.00     0.002 A 
HETATM   22  C   UNL     1      38.811  -7.338  12.309  1.00  0.00     0.030 A 
HETATM   23  N   UNL     1      38.755  -8.918  10.503  1.00  0.00    -0.327 N 
HETATM   24  C   UNL     1      39.256  -9.579   9.421  1.00  0.00     0.222 C 
HETATM   25  H   UNL     1      37.837  -9.222  10.812  1.00  0.00     0.169 HD
HETATM   26  O   UNL     1      38.622 -10.456   8.845  1.00  0.00    -0.273 OA
HETATM   27  C   UNL     1      40.693  -9.283   9.081  1.00  0.00     0.114 C 
ENDBRANCH  15  16
ENDBRANCH  12  15
ENDBRANCH  11  12
ENDBRANCH  10  11
ENDBRANCH   1   9
TORSDOF 5
ENDMDL
MODEL 9
REMARK VINA RESULT:      -6.8     15.480     17.363
REMARK  5 active torsions:
REMARK  status: ('A' for Active; 'I' for Inactive)
REMARK    1  A    between atoms: C_9  and  C_10 
REMARK    2  A    between atoms: C_10  and  N_11 
REMARK    3  A    between atoms: N_11  and  C_14 
REMARK    4  A    between atoms: C_14  and  C_15 
REMARK    5  A    between atoms: C_16  and  C_17 
ROOT
HETATM    1  C   UNL     1      44.260 -29.930  -1.716  1.00  0.00    -0.036 A 
HETATM    2  C   UNL     1      43.937 -29.194  -2.864  1.00  0.00     0.013 A 
HETATM    3  C   UNL     1      44.388 -29.610  -4.120  1.00  0.00     0.023 A 
HETATM    4  C   UNL     1      45.168 -30.765  -4.240  1.00  0.00     0.044 A 
HETATM    5  C   UNL     1      45.624 -31.198  -5.530  1.00  0.00     0.099 C 
HETATM    6  N   UNL     1      45.989 -31.552  -6.572  1.00  0.00    -0.191 NA
HETATM    7  C   UNL     1      45.499 -31.496  -3.096  1.00  0.00     0.023 A 
HETATM    8  C   UNL     1      45.052 -31.077  -1.838  1.00  0.00     0.013 A 
ENDROOT
BRANCH   1   9
HETATM    9  C   UNL     1      43.803 -29.508  -0.389  1.00  0.00     0.009 C 
HETATM   10  C   UNL     1      44.096 -30.212   0.717  1.00  0.00     0.001 C 
BRANCH  10  11
HETATM   11  C   UNL     1      43.656 -29.838   2.090  1.00  0.00     0.259 C 
BRANCH  11  12
HETATM   12  N   UNL     1      44.831 -29.738   3.000  1.00  0.00    -0.071 N 
HETATM   13  H   UNL     1      45.294 -30.659   3.020  1.00  0.00     0.277 HD
HETATM   14  H   UNL     1      44.480 -29.588   3.954  1.00  0.00     0.277 HD
BRANCH  12  15
HETATM   15  C   UNL     1      45.818 -28.670   2.626  1.00  0.00     0.242 C 
BRANCH  15  16
HETATM   16  C   UNL     1      47.167 -29.263   2.167  1.00  0.00     0.055 C 
HETATM   17  C   UNL     1      47.451 -29.150   0.678  1.00  0.00    -0.025 A 
HETATM   18  C   UNL     1      47.010 -28.067  -0.101  1.00  0.00     0.010 A 
HETATM   19  C   UNL     1      48.302 -30.094   0.080  1.00  0.00     0.041 A 
HETATM   20  C   UNL     1      47.359 -27.973  -1.451  1.00  0.00     0.001 A 
HETATM   21  C   UNL     1      48.175 -28.937  -2.034  1.00  0.00     0.002 A 
HETATM   22  C   UNL     1      48.661 -29.992  -1.265  1.00  0.00     0.030 A 
HETATM   23  N   UNL     1      48.856 -31.124   0.842  1.00  0.00    -0.327 N 
HETATM   24  C   UNL     1      48.516 -31.405   2.132  1.00  0.00     0.222 C 
HETATM   25  H   UNL     1      49.601 -31.695   0.454  1.00  0.00     0.169 HD
HETATM   26  O   UNL     1      49.096 -32.266   2.783  1.00  0.00    -0.273 OA
HETATM   27  C   UNL     1      47.284 -30.712   2.650  1.00  0.00     0.114 C 
ENDBRANCH  15  16
ENDBRANCH  12  15
ENDBRANCH  11  12
ENDBRANCH  10  11
ENDBRANCH   1   9
TORSDOF 5
ENDMDL
MODEL 10
REMARK VINA RESULT:      -6.8      3.095      7.803
REMARK  5 active torsions:
REMARK  status: ('A' for Active; 'I' for Inactive)
REMARK    1  A    between atoms: C_9  and  C_10 
REMARK    2  A    between atoms: C_10  and  N_11 
REMARK    3  A    between atoms: N_11  and  C_14 
REMARK    4  A    between atoms: C_14  and  C_15 
REMARK    5  A    between atoms: C_16  and  C_17 
ROOT
HETATM    1  C   UNL     1      40.422 -12.821  -1.447  1.00  0.00    -0.036 A 
HETATM    2  C   UNL     1      41.019 -11.801  -0.695  1.00  0.00     0.013 A 
HETATM    3  C   UNL     1      41.213 -10.533  -1.251  1.00  0.00     0.023 A 
HETATM    4  C   UNL     1      40.813 -10.274  -2.567  1.00  0.00     0.044 A 
HETATM    5  C   UNL     1      41.004  -8.972  -3.136  1.00  0.00     0.099 C 
HETATM    6  N   UNL     1      41.153  -7.917  -3.596  1.00  0.00    -0.191 NA
HETATM    7  C   UNL     1      40.226 -11.293  -3.323  1.00  0.00     0.023 A 
HETATM    8  C   UNL     1      40.037 -12.563  -2.767  1.00  0.00     0.013 A 
ENDROOT
BRANCH   1   9
HETATM    9  C   UNL     1      40.215 -14.159  -0.885  1.00  0.00     0.009 C 
HETATM   10  C   UNL     1      40.238 -14.382   0.439  1.00  0.00     0.001 C 
BRANCH  10  11
HETATM   11  C   UNL     1      40.041 -15.717   1.069  1.00  0.00     0.259 C 
BRANCH  11  12
HETATM   12  N   UNL     1      41.037 -15.930   2.155  1.00  0.00    -0.071 N 
HETATM   13  H   UNL     1      40.691 -16.691   2.757  1.00  0.00     0.277 HD
HETATM   14  H   UNL     1      41.040 -15.092   2.750  1.00  0.00     0.277 HD
BRANCH  12  15
HETATM   15  C   UNL     1      42.425 -16.241   1.674  1.00  0.00     0.242 C 
BRANCH  15  16
HETATM   16  C   UNL     1      43.368 -16.623   2.835  1.00  0.00     0.055 C 
HETATM   17  C   UNL     1      43.482 -18.112   3.113  1.00  0.00    -0.025 A 
HETATM   18  C   UNL     1      43.401 -19.085   2.103  1.00  0.00     0.010 A 
HETATM   19  C   UNL     1      43.817 -18.533   4.411  1.00  0.00     0.041 A 
HETATM   20  C   UNL     1      43.584 -20.438   2.400  1.00  0.00     0.001 A 
HETATM   21  C   UNL     1      43.881 -20.837   3.699  1.00  0.00     0.002 A 
HETATM   22  C   UNL     1      44.013 -19.883   4.704  1.00  0.00     0.030 A 
HETATM   23  N   UNL     1      44.019 -17.594   5.424  1.00  0.00    -0.327 N 
HETATM   24  C   UNL     1      43.763 -16.260   5.309  1.00  0.00     0.222 C 
HETATM   25  H   UNL     1      44.428 -17.884   6.308  1.00  0.00     0.169 HD
HETATM   26  O   UNL     1      44.042 -15.466   6.201  1.00  0.00    -0.273 OA
HETATM   27  C   UNL     1      42.974 -15.847   4.096  1.00  0.00     0.114 C 
ENDBRANCH  15  16
ENDBRANCH  12  15
ENDBRANCH  11  12
ENDBRANCH  10  11
ENDBRANCH   1   9
TORSDOF 5
ENDMDL
