MODEL 1
REMARK VINA RESULT:      -8.0      0.000      0.000
REMARK  6 active torsions:
REMARK  status: ('A' for Active; 'I' for Inactive)
REMARK    1  A    between atoms: C_2  and  C_3 
REMARK    2  A    between atoms: C_7  and  C_8 
REMARK       I    between atoms: C_8  and  N_9 
REMARK    3  A    between atoms: N_9  and  C_10 
REMARK    4  A    between atoms: C_10  and  C_11 
REMARK    5  A    between atoms: C_11  and  N_12 
REMARK       I    between atoms: N_12  and  C_13 
REMARK    6  A    between atoms: C_13  and  C_14 
ROOT
HETATM    1  C   UNL     1      40.146 -13.225   5.222  1.00  0.00     0.142 C 
ENDROOT
BRANCH   1   2
HETATM    2  N   UNL     1      39.925 -13.605   3.846  1.00  0.00    -0.354 N 
HETATM    3  C   UNL     1      40.787 -13.259   2.829  1.00  0.00     0.272 C 
HETATM    4  O   UNL     1      41.777 -12.552   2.994  1.00  0.00    -0.266 OA
HETATM    5  H   UNL     1      39.179 -14.250   3.593  1.00  0.00     0.162 HD
BRANCH   3   6
HETATM    6  C   UNL     1      40.420 -13.841   1.529  1.00  0.00     0.146 A 
HETATM    7  N   UNL     1      39.839 -15.056   1.426  1.00  0.00    -0.169 NA
HETATM    8  N   UNL     1      39.675 -15.228   0.104  1.00  0.00    -0.281 N 
HETATM    9  C   UNL     1      40.128 -14.184  -0.655  1.00  0.00     0.033 A 
HETATM   10  H   UNL     1      39.244 -16.090  -0.216  1.00  0.00     0.189 HD
HETATM   11  C   UNL     1      40.615 -13.264   0.250  1.00  0.00     0.066 A 
BRANCH   9  12
HETATM   12  C   UNL     1      40.041 -14.182  -2.149  1.00  0.00     0.029 C 
HETATM   13  C   UNL     1      40.046 -12.755  -2.699  1.00  0.00     0.016 C 
HETATM   14  C   UNL     1      38.799 -14.939  -2.621  1.00  0.00     0.016 C 
ENDBRANCH   9  12
ENDBRANCH   3   6
ENDBRANCH   1   2
BRANCH   1  15
HETATM   15  C   UNL     1      40.579 -14.412   6.092  1.00  0.00     0.142 C 
BRANCH  15  16
HETATM   16  N   UNL     1      41.086 -15.527   5.312  1.00  0.00    -0.355 N 
HETATM   17  C   UNL     1      42.439 -15.730   5.149  1.00  0.00     0.251 C 
HETATM   18  O   UNL     1      43.292 -14.994   5.629  1.00  0.00    -0.268 OA
HETATM   19  H   UNL     1      40.420 -16.028   4.741  1.00  0.00     0.162 HD
BRANCH  17  20
HETATM   20  C   UNL     1      42.845 -16.896   4.313  1.00  0.00     0.033 A 
HETATM   21  C   UNL     1      43.450 -17.988   4.950  1.00  0.00     0.042 A 
HETATM   22  C   UNL     1      43.836 -19.111   4.212  1.00  0.00     0.056 A 
HETATM   23 CL   UNL     1      44.582 -20.417   5.064  1.00  0.00    -0.083 Cl
HETATM   24  C   UNL     1      43.612 -19.151   2.831  1.00  0.00     0.055 A 
HETATM   25 CL   UNL     1      44.061 -20.503   1.855  1.00  0.00    -0.083 Cl
HETATM   26  C   UNL     1      42.996 -18.068   2.197  1.00  0.00     0.026 A 
HETATM   27  C   UNL     1      42.608 -16.945   2.934  1.00  0.00     0.019 A 
ENDBRANCH  17  20
ENDBRANCH  15  16
ENDBRANCH   1  15
TORSDOF 6
ENDMDL
MODEL 2
REMARK VINA RESULT:      -8.0      5.265      8.285
REMARK  6 active torsions:
REMARK  status: ('A' for Active; 'I' for Inactive)
REMARK    1  A    between atoms: C_2  and  C_3 
REMARK    2  A    between atoms: C_7  and  C_8 
REMARK       I    between atoms: C_8  and  N_9 
REMARK    3  A    between atoms: N_9  and  C_10 
REMARK    4  A    between atoms: C_10  and  C_11 
REMARK    5  A    between atoms: C_11  and  N_12 
REMARK       I    between atoms: N_12  and  C_13 
REMARK    6  A    between atoms: C_13  and  C_14 
ROOT
HETATM    1  C   UNL     1      43.939 -12.581   6.459  1.00  0.00     0.142 C 
ENDROOT
BRANCH   1   2
HETATM    2  N   UNL     1      43.812 -11.989   7.771  1.00  0.00    -0.354 N 
HETATM    3  C   UNL     1      44.599 -10.941   8.196  1.00  0.00     0.272 C 
HETATM    4  O   UNL     1      45.509 -10.465   7.524  1.00  0.00    -0.266 OA
HETATM    5  H   UNL     1      43.050 -12.249   8.393  1.00  0.00     0.162 HD
BRANCH   3   6
HETATM    6  C   UNL     1      44.225 -10.433   9.525  1.00  0.00     0.146 A 
HETATM    7  N   UNL     1      44.013 -11.255  10.574  1.00  0.00    -0.169 NA
HETATM    8  N   UNL     1      43.689 -10.425  11.579  1.00  0.00    -0.281 N 
HETATM    9  C   UNL     1      43.676  -9.103  11.228  1.00  0.00     0.033 A 
HETATM   10  H   UNL     1      43.485 -10.830  12.487  1.00  0.00     0.189 HD
HETATM   11  C   UNL     1      44.026  -9.079   9.894  1.00  0.00     0.066 A 
BRANCH   9  12
HETATM   12  C   UNL     1      43.336  -8.019  12.202  1.00  0.00     0.029 C 
HETATM   13  C   UNL     1      42.608  -8.584  13.423  1.00  0.00     0.016 C 
HETATM   14  C   UNL     1      42.500  -6.928  11.532  1.00  0.00     0.016 C 
ENDBRANCH   9  12
ENDBRANCH   3   6
ENDBRANCH   1   2
BRANCH   1  15
HETATM   15  C   UNL     1      42.638 -13.243   5.990  1.00  0.00     0.142 C 
BRANCH  15  16
HETATM   16  N   UNL     1      42.869 -14.413   5.160  1.00  0.00    -0.355 N 
HETATM   17  C   UNL     1      43.122 -15.648   5.717  1.00  0.00     0.251 C 
HETATM   18  O   UNL     1      43.180 -15.841   6.925  1.00  0.00    -0.268 OA
HETATM   19  H   UNL     1      43.029 -14.253   4.176  1.00  0.00     0.162 HD
BRANCH  17  20
HETATM   20  C   UNL     1      43.362 -16.773   4.769  1.00  0.00     0.033 A 
HETATM   21  C   UNL     1      43.753 -18.011   5.296  1.00  0.00     0.042 A 
HETATM   22  C   UNL     1      43.976 -19.101   4.450  1.00  0.00     0.056 A 
HETATM   23 CL   UNL     1      44.463 -20.594   5.170  1.00  0.00    -0.083 Cl
HETATM   24  C   UNL     1      43.803 -18.959   3.068  1.00  0.00     0.055 A 
HETATM   25 CL   UNL     1      44.060 -20.260   1.961  1.00  0.00    -0.083 Cl
HETATM   26  C   UNL     1      43.399 -17.729   2.541  1.00  0.00     0.026 A 
HETATM   27  C   UNL     1      43.174 -16.639   3.387  1.00  0.00     0.019 A 
ENDBRANCH  17  20
ENDBRANCH  15  16
ENDBRANCH   1  15
TORSDOF 6
ENDMDL
MODEL 3
REMARK VINA RESULT:      -7.9      2.615      5.530
REMARK  6 active torsions:
REMARK  status: ('A' for Active; 'I' for Inactive)
REMARK    1  A    between atoms: C_2  and  C_3 
REMARK    2  A    between atoms: C_7  and  C_8 
REMARK       I    between atoms: C_8  and  N_9 
REMARK    3  A    between atoms: N_9  and  C_10 
REMARK    4  A    between atoms: C_10  and  C_11 
REMARK    5  A    between atoms: C_11  and  N_12 
REMARK       I    between atoms: N_12  and  C_13 
REMARK    6  A    between atoms: C_13  and  C_14 
ROOT
HETATM    1  C   UNL     1      40.117 -13.524   1.786  1.00  0.00     0.142 C 
ENDROOT
BRANCH   1   2
HETATM    2  N   UNL     1      40.776 -12.953   2.938  1.00  0.00    -0.354 N 
HETATM    3  C   UNL     1      40.831 -13.591   4.157  1.00  0.00     0.272 C 
HETATM    4  O   UNL     1      40.277 -14.663   4.384  1.00  0.00    -0.266 OA
HETATM    5  H   UNL     1      41.331 -12.104   2.859  1.00  0.00     0.162 HD
BRANCH   3   6
HETATM    6  C   UNL     1      41.641 -12.875   5.154  1.00  0.00     0.146 A 
HETATM    7  N   UNL     1      41.125 -11.897   5.929  1.00  0.00    -0.169 NA
HETATM    8  N   UNL     1      42.161 -11.497   6.683  1.00  0.00    -0.281 N 
HETATM    9  C   UNL     1      43.327 -12.166   6.429  1.00  0.00     0.033 A 
HETATM   10  H   UNL     1      42.004 -10.755   7.357  1.00  0.00     0.189 HD
HETATM   11  C   UNL     1      43.015 -13.074   5.438  1.00  0.00     0.066 A 
BRANCH   9  12
HETATM   12  C   UNL     1      44.599 -11.866   7.159  1.00  0.00     0.029 C 
HETATM   13  C   UNL     1      44.354 -10.892   8.314  1.00  0.00     0.016 C 
HETATM   14  C   UNL     1      45.658 -11.317   6.204  1.00  0.00     0.016 C 
ENDBRANCH   9  12
ENDBRANCH   3   6
ENDBRANCH   1   2
BRANCH   1  15
HETATM   15  C   UNL     1      41.060 -14.395   0.947  1.00  0.00     0.142 C 
BRANCH  15  16
HETATM   16  N   UNL     1      41.566 -15.543   1.679  1.00  0.00    -0.355 N 
HETATM   17  C   UNL     1      42.825 -15.539   2.237  1.00  0.00     0.251 C 
HETATM   18  O   UNL     1      43.596 -14.591   2.148  1.00  0.00    -0.268 OA
HETATM   19  H   UNL     1      41.045 -16.405   1.598  1.00  0.00     0.162 HD
BRANCH  17  20
HETATM   20  C   UNL     1      43.247 -16.778   2.949  1.00  0.00     0.033 A 
HETATM   21  C   UNL     1      43.321 -17.970   2.215  1.00  0.00     0.042 A 
HETATM   22  C   UNL     1      43.725 -19.157   2.835  1.00  0.00     0.056 A 
HETATM   23 CL   UNL     1      43.786 -20.589   1.870  1.00  0.00    -0.083 Cl
HETATM   24  C   UNL     1      44.063 -19.156   4.193  1.00  0.00     0.055 A 
HETATM   25 CL   UNL     1      44.571 -20.582   5.025  1.00  0.00    -0.083 Cl
HETATM   26  C   UNL     1      44.003 -17.965   4.923  1.00  0.00     0.026 A 
HETATM   27  C   UNL     1      43.601 -16.777   4.304  1.00  0.00     0.019 A 
ENDBRANCH  17  20
ENDBRANCH  15  16
ENDBRANCH   1  15
TORSDOF 6
ENDMDL
MODEL 4
REMARK VINA RESULT:      -7.8      3.751      6.618
REMARK  6 active torsions:
REMARK  status: ('A' for Active; 'I' for Inactive)
REMARK    1  A    between atoms: C_2  and  C_3 
REMARK    2  A    between atoms: C_7  and  C_8 
REMARK       I    between atoms: C_8  and  N_9 
REMARK    3  A    between atoms: N_9  and  C_10 
REMARK    4  A    between atoms: C_10  and  C_11 
REMARK    5  A    between atoms: C_11  and  N_12 
REMARK       I    between atoms: N_12  and  C_13 
REMARK    6  A    between atoms: C_13  and  C_14 
ROOT
HETATM    1  C   UNL     1      40.663 -12.660   4.252  1.00  0.00     0.142 C 
ENDROOT
BRANCH   1   2
HETATM    2  N   UNL     1      41.705 -12.073   5.062  1.00  0.00    -0.354 N 
HETATM    3  C   UNL     1      42.304 -12.742   6.107  1.00  0.00     0.272 C 
HETATM    4  O   UNL     1      41.965 -13.863   6.474  1.00  0.00    -0.266 OA
HETATM    5  H   UNL     1      42.122 -11.178   4.815  1.00  0.00     0.162 HD
BRANCH   3   6
HETATM    6  C   UNL     1      43.410 -11.993   6.723  1.00  0.00     0.146 A 
HETATM    7  N   UNL     1      44.691 -12.412   6.647  1.00  0.00    -0.169 NA
HETATM    8  N   UNL     1      45.380 -11.482   7.327  1.00  0.00    -0.281 N 
HETATM    9  C   UNL     1      44.604 -10.481   7.845  1.00  0.00     0.033 A 
HETATM   10  H   UNL     1      46.386 -11.591   7.402  1.00  0.00     0.189 HD
HETATM   11  C   UNL     1      43.315 -10.788   7.463  1.00  0.00     0.066 A 
BRANCH   9  12
HETATM   12  C   UNL     1      45.180  -9.350   8.639  1.00  0.00     0.029 C 
HETATM   13  C   UNL     1      45.465  -9.779  10.080  1.00  0.00     0.016 C 
HETATM   14  C   UNL     1      44.250  -8.137   8.611  1.00  0.00     0.016 C 
ENDBRANCH   9  12
ENDBRANCH   3   6
ENDBRANCH   1   2
BRANCH   1  15
HETATM   15  C   UNL     1      41.225 -13.497   3.096  1.00  0.00     0.142 C 
BRANCH  15  16
HETATM   16  N   UNL     1      41.725 -14.791   3.528  1.00  0.00    -0.355 N 
HETATM   17  C   UNL     1      42.892 -15.314   3.018  1.00  0.00     0.251 C 
HETATM   18  O   UNL     1      43.572 -14.743   2.174  1.00  0.00    -0.268 OA
HETATM   19  H   UNL     1      41.093 -15.372   4.062  1.00  0.00     0.162 HD
BRANCH  17  20
HETATM   20  C   UNL     1      43.299 -16.657   3.519  1.00  0.00     0.033 A 
HETATM   21  C   UNL     1      43.253 -17.738   2.628  1.00  0.00     0.042 A 
HETATM   22  C   UNL     1      43.638 -19.015   3.047  1.00  0.00     0.056 A 
HETATM   23 CL   UNL     1      43.548 -20.301   1.896  1.00  0.00    -0.083 Cl
HETATM   24  C   UNL     1      44.078 -19.217   4.360  1.00  0.00     0.055 A 
HETATM   25 CL   UNL     1      44.570 -20.765   4.948  1.00  0.00    -0.083 Cl
HETATM   26  C   UNL     1      44.138 -18.137   5.246  1.00  0.00     0.026 A 
HETATM   27  C   UNL     1      43.755 -16.859   4.828  1.00  0.00     0.019 A 
ENDBRANCH  17  20
ENDBRANCH  15  16
ENDBRANCH   1  15
TORSDOF 6
ENDMDL
MODEL 5
REMARK VINA RESULT:      -7.5      2.433      3.167
REMARK  6 active torsions:
REMARK  status: ('A' for Active; 'I' for Inactive)
REMARK    1  A    between atoms: C_2  and  C_3 
REMARK    2  A    between atoms: C_7  and  C_8 
REMARK       I    between atoms: C_8  and  N_9 
REMARK    3  A    between atoms: N_9  and  C_10 
REMARK    4  A    between atoms: C_10  and  C_11 
REMARK    5  A    between atoms: C_11  and  N_12 
REMARK       I    between atoms: N_12  and  C_13 
REMARK    6  A    between atoms: C_13  and  C_14 
ROOT
HETATM    1  C   UNL     1      43.528 -11.490   6.304  1.00  0.00     0.142 C 
ENDROOT
BRANCH   1   2
HETATM    2  N   UNL     1      42.777 -11.701   5.088  1.00  0.00    -0.354 N 
HETATM    3  C   UNL     1      43.350 -11.639   3.837  1.00  0.00     0.272 C 
HETATM    4  O   UNL     1      44.526 -11.342   3.647  1.00  0.00    -0.266 OA
HETATM    5  H   UNL     1      41.812 -12.023   5.116  1.00  0.00     0.162 HD
BRANCH   3   6
HETATM    6  C   UNL     1      42.422 -11.989   2.752  1.00  0.00     0.146 A 
HETATM    7  N   UNL     1      42.156 -11.144   1.733  1.00  0.00    -0.169 NA
HETATM    8  N   UNL     1      41.275 -11.813   0.973  1.00  0.00    -0.281 N 
HETATM    9  C   UNL     1      40.951 -13.052   1.456  1.00  0.00     0.033 A 
HETATM   10  H   UNL     1      40.928 -11.363   0.132  1.00  0.00     0.189 HD
HETATM   11  C   UNL     1      41.688 -13.194   2.613  1.00  0.00     0.066 A 
BRANCH   9  12
HETATM   12  C   UNL     1      39.982 -13.955   0.758  1.00  0.00     0.029 C 
HETATM   13  C   UNL     1      40.021 -15.366   1.349  1.00  0.00     0.016 C 
HETATM   14  C   UNL     1      40.259 -13.991  -0.745  1.00  0.00     0.016 C 
ENDBRANCH   9  12
ENDBRANCH   3   6
ENDBRANCH   1   2
BRANCH   1  15
HETATM   15  C   UNL     1      43.765 -12.794   7.076  1.00  0.00     0.142 C 
BRANCH  15  16
HETATM   16  N   UNL     1      43.825 -13.959   6.209  1.00  0.00    -0.355 N 
HETATM   17  C   UNL     1      43.334 -15.180   6.616  1.00  0.00     0.251 C 
HETATM   18  O   UNL     1      42.833 -15.369   7.718  1.00  0.00    -0.268 OA
HETATM   19  H   UNL     1      44.408 -13.889   5.387  1.00  0.00     0.162 HD
BRANCH  17  20
HETATM   20  C   UNL     1      43.465 -16.309   5.652  1.00  0.00     0.033 A 
HETATM   21  C   UNL     1      43.316 -16.034   4.286  1.00  0.00     0.042 A 
HETATM   22  C   UNL     1      43.444 -17.056   3.341  1.00  0.00     0.056 A 
HETATM   23 CL   UNL     1      43.241 -16.644   1.675  1.00  0.00    -0.083 Cl
HETATM   24  C   UNL     1      43.729 -18.362   3.759  1.00  0.00     0.055 A 
HETATM   25 CL   UNL     1      43.902 -19.675   2.651  1.00  0.00    -0.083 Cl
HETATM   26  C   UNL     1      43.892 -18.635   5.120  1.00  0.00     0.026 A 
HETATM   27  C   UNL     1      43.766 -17.613   6.066  1.00  0.00     0.019 A 
ENDBRANCH  17  20
ENDBRANCH  15  16
ENDBRANCH   1  15
TORSDOF 6
ENDMDL
MODEL 6
REMARK VINA RESULT:      -7.5      3.167      5.950
REMARK  6 active torsions:
REMARK  status: ('A' for Active; 'I' for Inactive)
REMARK    1  A    between atoms: C_2  and  C_3 
REMARK    2  A    between atoms: C_7  and  C_8 
REMARK       I    between atoms: C_8  and  N_9 
REMARK    3  A    between atoms: N_9  and  C_10 
REMARK    4  A    between atoms: C_10  and  C_11 
REMARK    5  A    between atoms: C_11  and  N_12 
REMARK       I    between atoms: N_12  and  C_13 
REMARK    6  A    between atoms: C_13  and  C_14 
ROOT
HETATM    1  C   UNL     1      40.608 -13.077   2.540  1.00  0.00     0.142 C 
ENDROOT
BRANCH   1   2
HETATM    2  N   UNL     1      41.371 -13.004   3.765  1.00  0.00    -0.354 N 
HETATM    3  C   UNL     1      42.581 -12.351   3.852  1.00  0.00     0.272 C 
HETATM    4  O   UNL     1      43.138 -11.831   2.891  1.00  0.00    -0.266 OA
HETATM    5  H   UNL     1      40.983 -13.334   4.645  1.00  0.00     0.162 HD
BRANCH   3   6
HETATM    6  C   UNL     1      43.126 -12.314   5.218  1.00  0.00     0.146 A 
HETATM    7  N   UNL     1      42.839 -13.267   6.130  1.00  0.00    -0.169 NA
HETATM    8  N   UNL     1      43.506 -12.878   7.229  1.00  0.00    -0.281 N 
HETATM    9  C   UNL     1      44.207 -11.713   7.073  1.00  0.00     0.033 A 
HETATM   10  H   UNL     1      43.438 -13.457   8.060  1.00  0.00     0.189 HD
HETATM   11  C   UNL     1      43.980 -11.327   5.769  1.00  0.00     0.066 A 
BRANCH   9  12
HETATM   12  C   UNL     1      45.012 -11.109   8.180  1.00  0.00     0.029 C 
HETATM   13  C   UNL     1      44.181 -10.105   8.981  1.00  0.00     0.016 C 
HETATM   14  C   UNL     1      46.278 -10.447   7.633  1.00  0.00     0.016 C 
ENDBRANCH   9  12
ENDBRANCH   3   6
ENDBRANCH   1   2
BRANCH   1  15
HETATM   15  C   UNL     1      41.101 -14.194   1.612  1.00  0.00     0.142 C 
BRANCH  15  16
HETATM   16  N   UNL     1      41.570 -15.362   2.336  1.00  0.00    -0.355 N 
HETATM   17  C   UNL     1      42.888 -15.758   2.281  1.00  0.00     0.251 C 
HETATM   18  O   UNL     1      43.739 -15.172   1.623  1.00  0.00    -0.268 OA
HETATM   19  H   UNL     1      40.866 -15.978   2.718  1.00  0.00     0.162 HD
BRANCH  17  20
HETATM   20  C   UNL     1      43.252 -16.983   3.050  1.00  0.00     0.033 A 
HETATM   21  C   UNL     1      43.218 -16.920   4.449  1.00  0.00     0.042 A 
HETATM   22  C   UNL     1      43.537 -18.046   5.214  1.00  0.00     0.056 A 
HETATM   23 CL   UNL     1      43.480 -17.894   6.935  1.00  0.00    -0.083 Cl
HETATM   24  C   UNL     1      43.888 -19.244   4.581  1.00  0.00     0.055 A 
HETATM   25 CL   UNL     1      44.294 -20.675   5.460  1.00  0.00    -0.083 Cl
HETATM   26  C   UNL     1      43.909 -19.312   3.185  1.00  0.00     0.026 A 
HETATM   27  C   UNL     1      43.588 -18.187   2.419  1.00  0.00     0.019 A 
ENDBRANCH  17  20
ENDBRANCH  15  16
ENDBRANCH   1  15
TORSDOF 6
ENDMDL
MODEL 7
REMARK VINA RESULT:      -7.4      6.077      9.276
REMARK  6 active torsions:
REMARK  status: ('A' for Active; 'I' for Inactive)
REMARK    1  A    between atoms: C_2  and  C_3 
REMARK    2  A    between atoms: C_7  and  C_8 
REMARK       I    between atoms: C_8  and  N_9 
REMARK    3  A    between atoms: N_9  and  C_10 
REMARK    4  A    between atoms: C_10  and  C_11 
REMARK    5  A    between atoms: C_11  and  N_12 
REMARK       I    between atoms: N_12  and  C_13 
REMARK    6  A    between atoms: C_13  and  C_14 
ROOT
HETATM    1  C   UNL     1      44.275 -11.458   7.658  1.00  0.00     0.142 C 
ENDROOT
BRANCH   1   2
HETATM    2  N   UNL     1      43.530 -10.823   8.720  1.00  0.00    -0.354 N 
HETATM    3  C   UNL     1      44.100 -10.469   9.923  1.00  0.00     0.272 C 
HETATM    4  O   UNL     1      45.266 -10.716  10.216  1.00  0.00    -0.266 OA
HETATM    5  H   UNL     1      42.575 -10.503   8.573  1.00  0.00     0.162 HD
BRANCH   3   6
HETATM    6  C   UNL     1      43.182  -9.742  10.812  1.00  0.00     0.146 A 
HETATM    7  N   UNL     1      41.866  -9.614  10.536  1.00  0.00    -0.169 NA
HETATM    8  N   UNL     1      41.385  -8.893  11.561  1.00  0.00    -0.281 N 
HETATM    9  C   UNL     1      42.330  -8.541  12.486  1.00  0.00     0.033 A 
HETATM   10  H   UNL     1      40.395  -8.671  11.567  1.00  0.00     0.189 HD
HETATM   11  C   UNL     1      43.510  -9.086  12.025  1.00  0.00     0.066 A 
BRANCH   9  12
HETATM   12  C   UNL     1      41.998  -7.732  13.702  1.00  0.00     0.029 C 
HETATM   13  C   UNL     1      43.235  -7.008  14.236  1.00  0.00     0.016 C 
HETATM   14  C   UNL     1      41.377  -8.612  14.787  1.00  0.00     0.016 C 
ENDBRANCH   9  12
ENDBRANCH   3   6
ENDBRANCH   1   2
BRANCH   1  15
HETATM   15  C   UNL     1      43.362 -12.120   6.619  1.00  0.00     0.142 C 
BRANCH  15  16
HETATM   16  N   UNL     1      43.508 -13.565   6.578  1.00  0.00    -0.355 N 
HETATM   17  C   UNL     1      43.059 -14.299   5.503  1.00  0.00     0.251 C 
HETATM   18  O   UNL     1      42.507 -13.799   4.531  1.00  0.00    -0.268 OA
HETATM   19  H   UNL     1      43.769 -14.024   7.439  1.00  0.00     0.162 HD
BRANCH  17  20
HETATM   20  C   UNL     1      43.245 -15.777   5.577  1.00  0.00     0.033 A 
HETATM   21  C   UNL     1      43.545 -16.466   4.395  1.00  0.00     0.042 A 
HETATM   22  C   UNL     1      43.742 -17.850   4.415  1.00  0.00     0.056 A 
HETATM   23 CL   UNL     1      44.102 -18.634   2.918  1.00  0.00    -0.083 Cl
HETATM   24  C   UNL     1      43.646 -18.552   5.622  1.00  0.00     0.055 A 
HETATM   25 CL   UNL     1      43.877 -20.261   5.724  1.00  0.00    -0.083 Cl
HETATM   26  C   UNL     1      43.361 -17.864   6.805  1.00  0.00     0.026 A 
HETATM   27  C   UNL     1      43.165 -16.480   6.786  1.00  0.00     0.019 A 
ENDBRANCH  17  20
ENDBRANCH  15  16
ENDBRANCH   1  15
TORSDOF 6
ENDMDL
MODEL 8
REMARK VINA RESULT:      -7.1      6.257      8.749
REMARK  6 active torsions:
REMARK  status: ('A' for Active; 'I' for Inactive)
REMARK    1  A    between atoms: C_2  and  C_3 
REMARK    2  A    between atoms: C_7  and  C_8 
REMARK       I    between atoms: C_8  and  N_9 
REMARK    3  A    between atoms: N_9  and  C_10 
REMARK    4  A    between atoms: C_10  and  C_11 
REMARK    5  A    between atoms: C_11  and  N_12 
REMARK       I    between atoms: N_12  and  C_13 
REMARK    6  A    between atoms: C_13  and  C_14 
ROOT
HETATM    1  C   UNL     1      42.460 -12.972   6.162  1.00  0.00     0.142 C 
ENDROOT
BRANCH   1   2
HETATM    2  N   UNL     1      42.535 -14.234   5.463  1.00  0.00    -0.354 N 
HETATM    3  C   UNL     1      42.165 -14.380   4.144  1.00  0.00     0.272 C 
HETATM    4  O   UNL     1      41.687 -13.470   3.473  1.00  0.00    -0.266 OA
HETATM    5  H   UNL     1      42.980 -15.045   5.888  1.00  0.00     0.162 HD
BRANCH   3   6
HETATM    6  C   UNL     1      42.424 -15.725   3.610  1.00  0.00     0.146 A 
HETATM    7  N   UNL     1      41.626 -16.296   2.683  1.00  0.00    -0.169 NA
HETATM    8  N   UNL     1      42.180 -17.499   2.469  1.00  0.00    -0.281 N 
HETATM    9  C   UNL     1      43.299 -17.739   3.219  1.00  0.00     0.033 A 
HETATM   10  H   UNL     1      41.741 -18.116   1.793  1.00  0.00     0.189 HD
HETATM   11  C   UNL     1      43.483 -16.596   3.970  1.00  0.00     0.066 A 
BRANCH   9  12
HETATM   12  C   UNL     1      44.063 -19.023   3.132  1.00  0.00     0.029 C 
HETATM   13  C   UNL     1      43.391 -19.998   2.162  1.00  0.00     0.016 C 
HETATM   14  C   UNL     1      44.219 -19.658   4.513  1.00  0.00     0.016 C 
ENDBRANCH   9  12
ENDBRANCH   3   6
ENDBRANCH   1   2
BRANCH   1  15
HETATM   15  C   UNL     1      43.833 -12.491   6.646  1.00  0.00     0.142 C 
BRANCH  15  16
HETATM   16  N   UNL     1      43.766 -11.771   7.906  1.00  0.00    -0.355 N 
HETATM   17  C   UNL     1      43.486 -10.423   7.946  1.00  0.00     0.251 C 
HETATM   18  O   UNL     1      43.289  -9.747   6.943  1.00  0.00    -0.268 OA
HETATM   19  H   UNL     1      44.120 -12.246   8.725  1.00  0.00     0.162 HD
BRANCH  17  20
HETATM   20  C   UNL     1      43.462  -9.784   9.293  1.00  0.00     0.033 A 
HETATM   21  C   UNL     1      43.146  -8.421   9.373  1.00  0.00     0.042 A 
HETATM   22  C   UNL     1      43.096  -7.780  10.614  1.00  0.00     0.056 A 
HETATM   23 CL   UNL     1      42.707  -6.096  10.636  1.00  0.00    -0.083 Cl
HETATM   24  C   UNL     1      43.356  -8.502  11.785  1.00  0.00     0.055 A 
HETATM   25 CL   UNL     1      43.313  -7.777  13.352  1.00  0.00    -0.083 Cl
HETATM   26  C   UNL     1      43.657  -9.865  11.708  1.00  0.00     0.026 A 
HETATM   27  C   UNL     1      43.706 -10.508  10.467  1.00  0.00     0.019 A 
ENDBRANCH  17  20
ENDBRANCH  15  16
ENDBRANCH   1  15
TORSDOF 6
ENDMDL
MODEL 9
REMARK VINA RESULT:      -7.1      6.743      9.079
REMARK  6 active torsions:
REMARK  status: ('A' for Active; 'I' for Inactive)
REMARK    1  A    between atoms: C_2  and  C_3 
REMARK    2  A    between atoms: C_7  and  C_8 
REMARK       I    between atoms: C_8  and  N_9 
REMARK    3  A    between atoms: N_9  and  C_10 
REMARK    4  A    between atoms: C_10  and  C_11 
REMARK    5  A    between atoms: C_11  and  N_12 
REMARK       I    between atoms: N_12  and  C_13 
REMARK    6  A    between atoms: C_13  and  C_14 
ROOT
HETATM    1  C   UNL     1      44.225 -12.031   7.386  1.00  0.00     0.142 C 
ENDROOT
BRANCH   1   2
HETATM    2  N   UNL     1      43.640 -12.989   6.477  1.00  0.00    -0.354 N 
HETATM    3  C   UNL     1      43.192 -14.227   6.884  1.00  0.00     0.272 C 
HETATM    4  O   UNL     1      43.306 -14.641   8.034  1.00  0.00    -0.266 OA
HETATM    5  H   UNL     1      43.427 -12.737   5.514  1.00  0.00     0.162 HD
BRANCH   3   6
HETATM    6  C   UNL     1      42.540 -14.993   5.811  1.00  0.00     0.146 A 
HETATM    7  N   UNL     1      41.416 -15.709   6.023  1.00  0.00    -0.169 NA
HETATM    8  N   UNL     1      41.147 -16.258   4.828  1.00  0.00    -0.281 N 
HETATM    9  C   UNL     1      42.050 -15.936   3.851  1.00  0.00     0.033 A 
HETATM   10  H   UNL     1      40.327 -16.850   4.746  1.00  0.00     0.189 HD
HETATM   11  C   UNL     1      42.967 -15.108   4.465  1.00  0.00     0.066 A 
BRANCH   9  12
HETATM   12  C   UNL     1      41.932 -16.449   2.450  1.00  0.00     0.029 C 
HETATM   13  C   UNL     1      43.101 -15.970   1.588  1.00  0.00     0.016 C 
HETATM   14  C   UNL     1      40.598 -16.034   1.830  1.00  0.00     0.016 C 
ENDBRANCH   9  12
ENDBRANCH   3   6
ENDBRANCH   1   2
BRANCH   1  15
HETATM   15  C   UNL     1      43.409 -10.735   7.471  1.00  0.00     0.142 C 
BRANCH  15  16
HETATM   16  N   UNL     1      42.984 -10.423   8.825  1.00  0.00    -0.355 N 
HETATM   17  C   UNL     1      43.534  -9.371   9.524  1.00  0.00     0.251 C 
HETATM   18  O   UNL     1      44.409  -8.646   9.068  1.00  0.00    -0.268 OA
HETATM   19  H   UNL     1      42.421 -11.115   9.300  1.00  0.00     0.162 HD
BRANCH  17  20
HETATM   20  C   UNL     1      43.036  -9.156  10.913  1.00  0.00     0.033 A 
HETATM   21  C   UNL     1      41.883  -9.844  11.316  1.00  0.00     0.042 A 
HETATM   22  C   UNL     1      41.384  -9.686  12.612  1.00  0.00     0.056 A 
HETATM   23 CL   UNL     1      39.955 -10.560  13.037  1.00  0.00    -0.083 Cl
HETATM   24  C   UNL     1      42.041  -8.843  13.516  1.00  0.00     0.055 A 
HETATM   25 CL   UNL     1      41.484  -8.600  15.133  1.00  0.00    -0.083 Cl
HETATM   26  C   UNL     1      43.199  -8.167  13.120  1.00  0.00     0.026 A 
HETATM   27  C   UNL     1      43.700  -8.325  11.824  1.00  0.00     0.019 A 
ENDBRANCH  17  20
ENDBRANCH  15  16
ENDBRANCH   1  15
TORSDOF 6
ENDMDL
MODEL 10
REMARK VINA RESULT:      -7.0      3.082      4.314
REMARK  6 active torsions:
REMARK  status: ('A' for Active; 'I' for Inactive)
REMARK    1  A    between atoms: C_2  and  C_3 
REMARK    2  A    between atoms: C_7  and  C_8 
REMARK       I    between atoms: C_8  and  N_9 
REMARK    3  A    between atoms: N_9  and  C_10 
REMARK    4  A    between atoms: C_10  and  C_11 
REMARK    5  A    between atoms: C_11  and  N_12 
REMARK       I    between atoms: N_12  and  C_13 
REMARK    6  A    between atoms: C_13  and  C_14 
ROOT
HETATM    1  C   UNL     1      40.600 -14.280   0.338  1.00  0.00     0.142 C 
ENDROOT
BRANCH   1   2
HETATM    2  N   UNL     1      40.931 -13.113  -0.447  1.00  0.00    -0.354 N 
HETATM    3  C   UNL     1      39.977 -12.334  -1.065  1.00  0.00     0.272 C 
HETATM    4  O   UNL     1      38.779 -12.598  -1.052  1.00  0.00    -0.266 OA
HETATM    5  H   UNL     1      41.882 -12.751  -0.474  1.00  0.00     0.162 HD
BRANCH   3   6
HETATM    6  C   UNL     1      40.533 -11.141  -1.720  1.00  0.00     0.146 A 
HETATM    7  N   UNL     1      41.467 -10.366  -1.127  1.00  0.00    -0.169 NA
HETATM    8  N   UNL     1      41.702  -9.394  -2.023  1.00  0.00    -0.281 N 
HETATM    9  C   UNL     1      40.959  -9.499  -3.167  1.00  0.00     0.033 A 
HETATM   10  H   UNL     1      42.387  -8.682  -1.788  1.00  0.00     0.189 HD
HETATM   11  C   UNL     1      40.191 -10.631  -2.997  1.00  0.00     0.066 A 
BRANCH   9  12
HETATM   12  C   UNL     1      41.070  -8.512  -4.287  1.00  0.00     0.029 C 
HETATM   13  C   UNL     1      42.232  -7.544  -4.055  1.00  0.00     0.016 C 
HETATM   14  C   UNL     1      39.759  -7.748  -4.471  1.00  0.00     0.016 C 
ENDBRANCH   9  12
ENDBRANCH   3   6
ENDBRANCH   1   2
BRANCH   1  15
HETATM   15  C   UNL     1      40.888 -14.079   1.831  1.00  0.00     0.142 C 
BRANCH  15  16
HETATM   16  N   UNL     1      41.430 -15.268   2.465  1.00  0.00    -0.355 N 
HETATM   17  C   UNL     1      42.782 -15.529   2.462  1.00  0.00     0.251 C 
HETATM   18  O   UNL     1      43.606 -14.798   1.925  1.00  0.00    -0.268 OA
HETATM   19  H   UNL     1      40.771 -15.985   2.735  1.00  0.00     0.162 HD
BRANCH  17  20
HETATM   20  C   UNL     1      43.224 -16.788   3.127  1.00  0.00     0.033 A 
HETATM   21  C   UNL     1      43.286 -17.957   2.356  1.00  0.00     0.042 A 
HETATM   22  C   UNL     1      43.708 -19.159   2.931  1.00  0.00     0.056 A 
HETATM   23 CL   UNL     1      43.754 -20.561   1.921  1.00  0.00    -0.083 Cl
HETATM   24  C   UNL     1      44.076 -19.198   4.280  1.00  0.00     0.055 A 
HETATM   25 CL   UNL     1      44.606 -20.646   5.058  1.00  0.00    -0.083 Cl
HETATM   26  C   UNL     1      44.027 -18.030   5.047  1.00  0.00     0.026 A 
HETATM   27  C   UNL     1      43.607 -16.826   4.474  1.00  0.00     0.019 A 
ENDBRANCH  17  20
ENDBRANCH  15  16
ENDBRANCH   1  15
TORSDOF 6
ENDMDL
