MODEL 1
REMARK VINA RESULT:      -7.9      0.000      0.000
REMARK  7 active torsions:
REMARK  status: ('A' for Active; 'I' for Inactive)
REMARK    1  A    between atoms: O_2  and  C_3 
REMARK    2  A    between atoms: C_4  and  O_5 
REMARK    3  A    between atoms: C_9  and  C_10 
REMARK    4  A    between atoms: C_10  and  N_11 
REMARK    5  A    between atoms: C_14  and  C_15 
REMARK    6  A    between atoms: C_15  and  N_16 
REMARK    7  A    between atoms: N_16  and  C_17 
ROOT
HETATM    1  N   UNL     1      41.186 -14.962   3.981  1.00  0.00    -0.067 N 
HETATM    2  H   UNL     1      40.829 -15.139   4.934  1.00  0.00     0.280 HD
HETATM    3  C   UNL     1      40.453 -15.915   3.059  1.00  0.00     0.241 C 
HETATM    4  C   UNL     1      39.935 -15.051   1.910  1.00  0.00     0.031 C 
HETATM    5  C   UNL     1      39.645 -13.728   2.614  1.00  0.00     0.035 C 
HETATM    6  C   UNL     1      40.781 -13.550   3.609  1.00  0.00     0.235 C 
ENDROOT
BRANCH   1   7
HETATM    7  C   UNL     1      42.685 -15.139   4.100  1.00  0.00     0.274 C 
BRANCH   7   8
HETATM    8  C   UNL     1      43.117 -16.538   4.454  1.00  0.00    -0.012 A 
HETATM    9  C   UNL     1      43.117 -17.014   5.777  1.00  0.00     0.021 A 
HETATM   10  C   UNL     1      43.522 -18.317   6.062  1.00  0.00     0.059 A 
HETATM   11 BR   UNL     1      42.553 -15.929   7.230  1.00  0.00    -0.050 Br
HETATM   12  C   UNL     1      43.913 -19.151   5.022  1.00  0.00     0.100 A 
HETATM   13  C   UNL     1      43.910 -18.720   3.694  1.00  0.00     0.101 A 
HETATM   14  C   UNL     1      43.529 -17.408   3.417  1.00  0.00     0.049 A 
BRANCH  12  15
HETATM   15  O   UNL     1      44.296 -20.424   5.338  1.00  0.00    -0.358 OA
HETATM   16  H   UNL     1      44.489 -20.430   6.296  1.00  0.00     0.218 HD
ENDBRANCH  12  15
BRANCH  13  17
HETATM   17  O   UNL     1      44.301 -19.657   2.778  1.00  0.00    -0.353 OA
HETATM   18  C   UNL     1      43.294 -20.234   1.956  1.00  0.00     0.210 C 
ENDBRANCH  13  17
ENDBRANCH   7   8
ENDBRANCH   1   7
BRANCH   4  19
HETATM   19  C   UNL     1      40.967 -14.953   0.770  1.00  0.00     0.127 C 
BRANCH  19  20
HETATM   20  N   UNL     1      40.747 -13.753  -0.042  1.00  0.00    -0.376 N 
HETATM   21  H   UNL     1      40.896 -12.876   0.450  1.00  0.00     0.161 HD
BRANCH  20  22
HETATM   22  C   UNL     1      39.740 -13.752  -1.002  1.00  0.00     0.100 A 
HETATM   23  N   UNL     1      38.689 -12.929  -0.831  1.00  0.00    -0.353 N 
HETATM   24  H   UNL     1      38.670 -12.334  -0.008  1.00  0.00     0.166 HD
HETATM   25  C   UNL     1      37.664 -12.837  -1.694  1.00  0.00     0.089 A 
HETATM   26  C   UNL     1      37.654 -13.604  -2.848  1.00  0.00     0.017 A 
HETATM   27  C   UNL     1      38.724 -14.450  -3.094  1.00  0.00     0.005 A 
HETATM   28  C   UNL     1      39.771 -14.520  -2.176  1.00  0.00     0.048 A 
ENDBRANCH  20  22
ENDBRANCH  19  20
ENDBRANCH   4  19
TORSDOF 7
ENDMDL
MODEL 2
REMARK VINA RESULT:      -7.8      5.387      7.577
REMARK  7 active torsions:
REMARK  status: ('A' for Active; 'I' for Inactive)
REMARK    1  A    between atoms: O_2  and  C_3 
REMARK    2  A    between atoms: C_4  and  O_5 
REMARK    3  A    between atoms: C_9  and  C_10 
REMARK    4  A    between atoms: C_10  and  N_11 
REMARK    5  A    between atoms: C_14  and  C_15 
REMARK    6  A    between atoms: C_15  and  N_16 
REMARK    7  A    between atoms: N_16  and  C_17 
ROOT
HETATM    1  N   UNL     1      41.575 -13.817   6.738  1.00  0.00    -0.067 N 
HETATM    2  H   UNL     1      41.515 -13.563   7.738  1.00  0.00     0.280 HD
HETATM    3  C   UNL     1      42.593 -14.934   6.633  1.00  0.00     0.241 C 
HETATM    4  C   UNL     1      41.915 -16.027   5.808  1.00  0.00     0.031 C 
HETATM    5  C   UNL     1      40.454 -15.879   6.226  1.00  0.00     0.035 C 
HETATM    6  C   UNL     1      40.225 -14.380   6.342  1.00  0.00     0.235 C 
ENDROOT
BRANCH   1   7
HETATM    7  C   UNL     1      41.906 -12.518   6.036  1.00  0.00     0.274 C 
BRANCH   7   8
HETATM    8  C   UNL     1      43.295 -12.003   6.310  1.00  0.00    -0.012 A 
HETATM    9  C   UNL     1      44.226 -11.765   5.283  1.00  0.00     0.021 A 
HETATM   10  C   UNL     1      45.501 -11.285   5.579  1.00  0.00     0.059 A 
HETATM   11 BR   UNL     1      43.797 -12.060   3.457  1.00  0.00    -0.050 Br
HETATM   12  C   UNL     1      45.842 -11.028   6.900  1.00  0.00     0.100 A 
HETATM   13  C   UNL     1      44.939 -11.235   7.945  1.00  0.00     0.101 A 
HETATM   14  C   UNL     1      43.674 -11.739   7.647  1.00  0.00     0.049 A 
BRANCH  12  15
HETATM   15  O   UNL     1      47.097 -10.550   7.151  1.00  0.00    -0.358 OA
HETATM   16  H   UNL     1      47.610 -10.660   6.327  1.00  0.00     0.218 HD
ENDBRANCH  12  15
BRANCH  13  17
HETATM   17  O   UNL     1      45.409 -10.920   9.190  1.00  0.00    -0.353 OA
HETATM   18  C   UNL     1      45.051  -9.652   9.727  1.00  0.00     0.210 C 
ENDBRANCH  13  17
ENDBRANCH   7   8
ENDBRANCH   1   7
BRANCH   4  19
HETATM   19  C   UNL     1      42.169 -15.834   4.301  1.00  0.00     0.127 C 
BRANCH  19  20
HETATM   20  N   UNL     1      43.462 -16.397   3.904  1.00  0.00    -0.376 N 
HETATM   21  H   UNL     1      44.048 -15.768   3.363  1.00  0.00     0.161 HD
BRANCH  20  22
HETATM   22  C   UNL     1      43.548 -17.746   3.578  1.00  0.00     0.100 A 
HETATM   23  N   UNL     1      44.032 -18.601   4.498  1.00  0.00    -0.353 N 
HETATM   24  H   UNL     1      44.314 -18.231   5.401  1.00  0.00     0.166 HD
HETATM   25  C   UNL     1      44.154 -19.924   4.298  1.00  0.00     0.089 A 
HETATM   26  C   UNL     1      43.756 -20.486   3.097  1.00  0.00     0.017 A 
HETATM   27  C   UNL     1      43.222 -19.661   2.119  1.00  0.00     0.005 A 
HETATM   28  C   UNL     1      43.111 -18.292   2.361  1.00  0.00     0.048 A 
ENDBRANCH  20  22
ENDBRANCH  19  20
ENDBRANCH   4  19
TORSDOF 7
ENDMDL
MODEL 3
REMARK VINA RESULT:      -7.4      3.331      6.354
REMARK  7 active torsions:
REMARK  status: ('A' for Active; 'I' for Inactive)
REMARK    1  A    between atoms: O_2  and  C_3 
REMARK    2  A    between atoms: C_4  and  O_5 
REMARK    3  A    between atoms: C_9  and  C_10 
REMARK    4  A    between atoms: C_10  and  N_11 
REMARK    5  A    between atoms: C_14  and  C_15 
REMARK    6  A    between atoms: C_15  and  N_16 
REMARK    7  A    between atoms: N_16  and  C_17 
ROOT
HETATM    1  N   UNL     1      41.909 -14.349   2.671  1.00  0.00    -0.067 N 
HETATM    2  H   UNL     1      42.064 -14.858   1.786  1.00  0.00     0.280 HD
HETATM    3  C   UNL     1      43.252 -13.792   3.094  1.00  0.00     0.241 C 
HETATM    4  C   UNL     1      43.003 -12.316   3.401  1.00  0.00     0.031 C 
HETATM    5  C   UNL     1      41.911 -11.963   2.394  1.00  0.00     0.035 C 
HETATM    6  C   UNL     1      40.999 -13.179   2.356  1.00  0.00     0.235 C 
ENDROOT
BRANCH   1   7
HETATM    7  C   UNL     1      41.269 -15.370   3.588  1.00  0.00     0.274 C 
BRANCH   7   8
HETATM    8  C   UNL     1      42.182 -16.499   3.989  1.00  0.00    -0.012 A 
HETATM    9  C   UNL     1      42.476 -16.789   5.333  1.00  0.00     0.021 A 
HETATM   10  C   UNL     1      43.323 -17.845   5.662  1.00  0.00     0.059 A 
HETATM   11 BR   UNL     1      41.729 -15.781   6.759  1.00  0.00    -0.050 Br
HETATM   12  C   UNL     1      43.865 -18.625   4.648  1.00  0.00     0.100 A 
HETATM   13  C   UNL     1      43.582 -18.379   3.303  1.00  0.00     0.101 A 
HETATM   14  C   UNL     1      42.755 -17.305   2.977  1.00  0.00     0.049 A 
BRANCH  12  15
HETATM   15  O   UNL     1      44.684 -19.657   5.008  1.00  0.00    -0.358 OA
HETATM   16  H   UNL     1      45.418 -19.673   4.363  1.00  0.00     0.218 HD
ENDBRANCH  12  15
BRANCH  13  17
HETATM   17  O   UNL     1      44.172 -19.240   2.418  1.00  0.00    -0.353 OA
HETATM   18  C   UNL     1      43.377 -20.302   1.905  1.00  0.00     0.210 C 
ENDBRANCH  13  17
ENDBRANCH   7   8
ENDBRANCH   1   7
BRANCH   4  19
HETATM   19  C   UNL     1      42.602 -12.107   4.873  1.00  0.00     0.127 C 
BRANCH  19  20
HETATM   20  N   UNL     1      43.586 -12.704   5.781  1.00  0.00    -0.376 N 
HETATM   21  H   UNL     1      43.354 -13.642   6.097  1.00  0.00     0.161 HD
BRANCH  20  22
HETATM   22  C   UNL     1      44.247 -11.896   6.699  1.00  0.00     0.100 A 
HETATM   23  N   UNL     1      43.607 -11.551   7.832  1.00  0.00    -0.353 N 
HETATM   24  H   UNL     1      42.663 -11.897   7.978  1.00  0.00     0.166 HD
HETATM   25  C   UNL     1      44.148 -10.783   8.792  1.00  0.00     0.089 A 
HETATM   26  C   UNL     1      45.442 -10.309   8.658  1.00  0.00     0.017 A 
HETATM   27  C   UNL     1      46.164 -10.654   7.526  1.00  0.00     0.005 A 
HETATM   28  C   UNL     1      45.571 -11.453   6.549  1.00  0.00     0.048 A 
ENDBRANCH  20  22
ENDBRANCH  19  20
ENDBRANCH   4  19
TORSDOF 7
ENDMDL
MODEL 4
REMARK VINA RESULT:      -7.3      3.239      5.478
REMARK  7 active torsions:
REMARK  status: ('A' for Active; 'I' for Inactive)
REMARK    1  A    between atoms: O_2  and  C_3 
REMARK    2  A    between atoms: C_4  and  O_5 
REMARK    3  A    between atoms: C_9  and  C_10 
REMARK    4  A    between atoms: C_10  and  N_11 
REMARK    5  A    between atoms: C_14  and  C_15 
REMARK    6  A    between atoms: C_15  and  N_16 
REMARK    7  A    between atoms: N_16  and  C_17 
ROOT
HETATM    1  N   UNL     1      42.590 -15.803   3.146  1.00  0.00    -0.067 N 
HETATM    2  H   UNL     1      42.889 -16.313   2.299  1.00  0.00     0.280 HD
HETATM    3  C   UNL     1      42.485 -14.342   2.759  1.00  0.00     0.241 C 
HETATM    4  C   UNL     1      41.113 -13.887   3.255  1.00  0.00     0.031 C 
HETATM    5  C   UNL     1      40.278 -15.154   3.083  1.00  0.00     0.035 C 
HETATM    6  C   UNL     1      41.199 -16.294   3.491  1.00  0.00     0.235 C 
ENDROOT
BRANCH   1   7
HETATM    7  C   UNL     1      43.624 -16.165   4.190  1.00  0.00     0.274 C 
BRANCH   7   8
HETATM    8  C   UNL     1      43.722 -17.640   4.480  1.00  0.00    -0.012 A 
HETATM    9  C   UNL     1      43.697 -18.153   5.789  1.00  0.00     0.021 A 
HETATM   10  C   UNL     1      43.787 -19.525   6.015  1.00  0.00     0.059 A 
HETATM   11 BR   UNL     1      43.521 -17.020   7.304  1.00  0.00    -0.050 Br
HETATM   12  C   UNL     1      43.887 -20.388   4.931  1.00  0.00     0.100 A 
HETATM   13  C   UNL     1      43.896 -19.918   3.617  1.00  0.00     0.101 A 
HETATM   14  C   UNL     1      43.832 -18.543   3.397  1.00  0.00     0.049 A 
BRANCH  12  15
HETATM   15  O   UNL     1      43.964 -21.727   5.190  1.00  0.00    -0.358 OA
HETATM   16  H   UNL     1      44.747 -22.062   4.710  1.00  0.00     0.218 HD
ENDBRANCH  12  15
BRANCH  13  17
HETATM   17  O   UNL     1      43.980 -20.885   2.654  1.00  0.00    -0.353 OA
HETATM   18  C   UNL     1      43.453 -20.580   1.368  1.00  0.00     0.210 C 
ENDBRANCH  13  17
ENDBRANCH   7   8
ENDBRANCH   1   7
BRANCH   4  19
HETATM   19  C   UNL     1      41.183 -13.363   4.701  1.00  0.00     0.127 C 
BRANCH  19  20
HETATM   20  N   UNL     1      41.777 -12.024   4.753  1.00  0.00    -0.376 N 
HETATM   21  H   UNL     1      41.710 -11.498   3.886  1.00  0.00     0.161 HD
BRANCH  20  22
HETATM   22  C   UNL     1      42.927 -11.816   5.507  1.00  0.00     0.100 A 
HETATM   23  N   UNL     1      42.847 -11.928   6.846  1.00  0.00    -0.353 N 
HETATM   24  H   UNL     1      41.950 -12.165   7.259  1.00  0.00     0.166 HD
HETATM   25  C   UNL     1      43.892 -11.758   7.674  1.00  0.00     0.089 A 
HETATM   26  C   UNL     1      45.145 -11.463   7.162  1.00  0.00     0.017 A 
HETATM   27  C   UNL     1      45.297 -11.363   5.788  1.00  0.00     0.005 A 
HETATM   28  C   UNL     1      44.191 -11.547   4.959  1.00  0.00     0.048 A 
ENDBRANCH  20  22
ENDBRANCH  19  20
ENDBRANCH   4  19
TORSDOF 7
ENDMDL
MODEL 5
REMARK VINA RESULT:      -7.2      3.948      6.337
REMARK  7 active torsions:
REMARK  status: ('A' for Active; 'I' for Inactive)
REMARK    1  A    between atoms: O_2  and  C_3 
REMARK    2  A    between atoms: C_4  and  O_5 
REMARK    3  A    between atoms: C_9  and  C_10 
REMARK    4  A    between atoms: C_10  and  N_11 
REMARK    5  A    between atoms: C_14  and  C_15 
REMARK    6  A    between atoms: C_15  and  N_16 
REMARK    7  A    between atoms: N_16  and  C_17 
ROOT
HETATM    1  N   UNL     1      41.607 -15.310   4.932  1.00  0.00    -0.067 N 
HETATM    2  H   UNL     1      41.164 -16.241   4.875  1.00  0.00     0.280 HD
HETATM    3  C   UNL     1      40.763 -14.375   4.091  1.00  0.00     0.241 C 
HETATM    4  C   UNL     1      40.493 -13.161   4.979  1.00  0.00     0.031 C 
HETATM    5  C   UNL     1      40.420 -13.793   6.367  1.00  0.00     0.035 C 
HETATM    6  C   UNL     1      41.505 -14.858   6.375  1.00  0.00     0.235 C 
ENDROOT
BRANCH   1   7
HETATM    7  C   UNL     1      43.033 -15.541   4.481  1.00  0.00     0.274 C 
BRANCH   7   8
HETATM    8  C   UNL     1      43.280 -16.899   3.879  1.00  0.00    -0.012 A 
HETATM    9  C   UNL     1      43.007 -17.187   2.530  1.00  0.00     0.021 A 
HETATM   10  C   UNL     1      43.253 -18.457   2.011  1.00  0.00     0.059 A 
HETATM   11 BR   UNL     1      42.315 -15.871   1.348  1.00  0.00    -0.050 Br
HETATM   12  C   UNL     1      43.787 -19.438   2.837  1.00  0.00     0.100 A 
HETATM   13  C   UNL     1      44.088 -19.185   4.177  1.00  0.00     0.101 A 
HETATM   14  C   UNL     1      43.816 -17.921   4.698  1.00  0.00     0.049 A 
BRANCH  12  15
HETATM   15  O   UNL     1      44.023 -20.668   2.293  1.00  0.00    -0.358 OA
HETATM   16  H   UNL     1      44.147 -21.287   3.039  1.00  0.00     0.218 HD
ENDBRANCH  12  15
BRANCH  13  17
HETATM   17  O   UNL     1      44.626 -20.240   4.861  1.00  0.00    -0.353 OA
HETATM   18  C   UNL     1      43.776 -20.943   5.760  1.00  0.00     0.210 C 
ENDBRANCH  13  17
ENDBRANCH   7   8
ENDBRANCH   1   7
BRANCH   4  19
HETATM   19  C   UNL     1      41.593 -12.094   4.823  1.00  0.00     0.127 C 
BRANCH  19  20
HETATM   20  N   UNL     1      41.797 -11.355   6.072  1.00  0.00    -0.376 N 
HETATM   21  H   UNL     1      41.178 -10.559   6.198  1.00  0.00     0.161 HD
BRANCH  20  22
HETATM   22  C   UNL     1      43.084 -11.217   6.581  1.00  0.00     0.100 A 
HETATM   23  N   UNL     1      43.231 -10.908   7.882  1.00  0.00    -0.353 N 
HETATM   24  H   UNL     1      42.396 -10.790   8.449  1.00  0.00     0.166 HD
HETATM   25  C   UNL     1      44.422 -10.757   8.484  1.00  0.00     0.089 A 
HETATM   26  C   UNL     1      45.593 -10.936   7.767  1.00  0.00     0.017 A 
HETATM   27  C   UNL     1      45.507 -11.284   6.428  1.00  0.00     0.005 A 
HETATM   28  C   UNL     1      44.253 -11.432   5.835  1.00  0.00     0.048 A 
ENDBRANCH  20  22
ENDBRANCH  19  20
ENDBRANCH   4  19
TORSDOF 7
ENDMDL
MODEL 6
REMARK VINA RESULT:      -7.0      3.564      6.577
REMARK  7 active torsions:
REMARK  status: ('A' for Active; 'I' for Inactive)
REMARK    1  A    between atoms: O_2  and  C_3 
REMARK    2  A    between atoms: C_4  and  O_5 
REMARK    3  A    between atoms: C_9  and  C_10 
REMARK    4  A    between atoms: C_10  and  N_11 
REMARK    5  A    between atoms: C_14  and  C_15 
REMARK    6  A    between atoms: C_15  and  N_16 
REMARK    7  A    between atoms: N_16  and  C_17 
ROOT
HETATM    1  N   UNL     1      40.641 -13.542   2.545  1.00  0.00    -0.067 N 
HETATM    2  H   UNL     1      40.201 -12.880   1.885  1.00  0.00     0.280 HD
HETATM    3  C   UNL     1      40.092 -14.914   2.213  1.00  0.00     0.241 C 
HETATM    4  C   UNL     1      41.314 -15.824   2.096  1.00  0.00     0.031 C 
HETATM    5  C   UNL     1      42.365 -14.871   1.532  1.00  0.00     0.035 C 
HETATM    6  C   UNL     1      42.125 -13.549   2.244  1.00  0.00     0.235 C 
ENDROOT
BRANCH   1   7
HETATM    7  C   UNL     1      40.314 -12.984   3.914  1.00  0.00     0.274 C 
BRANCH   7   8
HETATM    8  C   UNL     1      41.515 -12.761   4.795  1.00  0.00    -0.012 A 
HETATM    9  C   UNL     1      42.161 -11.515   4.886  1.00  0.00     0.021 A 
HETATM   10  C   UNL     1      43.268 -11.348   5.716  1.00  0.00     0.059 A 
HETATM   11 BR   UNL     1      41.555 -10.001   3.912  1.00  0.00    -0.050 Br
HETATM   12  C   UNL     1      43.723 -12.424   6.468  1.00  0.00     0.100 A 
HETATM   13  C   UNL     1      43.097 -13.671   6.417  1.00  0.00     0.101 A 
HETATM   14  C   UNL     1      42.006 -13.840   5.566  1.00  0.00     0.049 A 
BRANCH  12  15
HETATM   15  O   UNL     1      44.805 -12.222   7.276  1.00  0.00    -0.358 OA
HETATM   16  H   UNL     1      45.083 -13.102   7.599  1.00  0.00     0.218 HD
ENDBRANCH  12  15
BRANCH  13  17
HETATM   17  O   UNL     1      43.644 -14.629   7.226  1.00  0.00    -0.353 OA
HETATM   18  C   UNL     1      42.773 -15.626   7.746  1.00  0.00     0.210 C 
ENDBRANCH  13  17
ENDBRANCH   7   8
ENDBRANCH   1   7
BRANCH   4  19
HETATM   19  C   UNL     1      41.684 -16.446   3.456  1.00  0.00     0.127 C 
BRANCH  19  20
HETATM   20  N   UNL     1      43.086 -16.872   3.481  1.00  0.00    -0.376 N 
HETATM   21  H   UNL     1      43.727 -16.245   3.001  1.00  0.00     0.161 HD
BRANCH  20  22
HETATM   22  C   UNL     1      43.390 -18.227   3.410  1.00  0.00     0.100 A 
HETATM   23  N   UNL     1      43.853 -18.841   4.515  1.00  0.00    -0.353 N 
HETATM   24  H   UNL     1      43.961 -18.293   5.363  1.00  0.00     0.166 HD
HETATM   25  C   UNL     1      44.171 -20.145   4.568  1.00  0.00     0.089 A 
HETATM   26  C   UNL     1      44.014 -20.946   3.449  1.00  0.00     0.017 A 
HETATM   27  C   UNL     1      43.513 -20.378   2.288  1.00  0.00     0.005 A 
HETATM   28  C   UNL     1      43.194 -19.020   2.269  1.00  0.00     0.048 A 
ENDBRANCH  20  22
ENDBRANCH  19  20
ENDBRANCH   4  19
TORSDOF 7
ENDMDL
MODEL 7
REMARK VINA RESULT:      -6.9      3.852      7.708
REMARK  7 active torsions:
REMARK  status: ('A' for Active; 'I' for Inactive)
REMARK    1  A    between atoms: O_2  and  C_3 
REMARK    2  A    between atoms: C_4  and  O_5 
REMARK    3  A    between atoms: C_9  and  C_10 
REMARK    4  A    between atoms: C_10  and  N_11 
REMARK    5  A    between atoms: C_14  and  C_15 
REMARK    6  A    between atoms: C_15  and  N_16 
REMARK    7  A    between atoms: N_16  and  C_17 
ROOT
HETATM    1  N   UNL     1      41.909 -12.374   2.648  1.00  0.00    -0.067 N 
HETATM    2  H   UNL     1      42.278 -11.627   2.037  1.00  0.00     0.280 HD
HETATM    3  C   UNL     1      42.869 -13.540   2.536  1.00  0.00     0.241 C 
HETATM    4  C   UNL     1      43.188 -13.944   3.974  1.00  0.00     0.031 C 
HETATM    5  C   UNL     1      43.137 -12.601   4.699  1.00  0.00     0.035 C 
HETATM    6  C   UNL     1      41.971 -11.855   4.070  1.00  0.00     0.235 C 
ENDROOT
BRANCH   1   7
HETATM    7  C   UNL     1      40.495 -12.598   2.157  1.00  0.00     0.274 C 
BRANCH   7   8
HETATM    8  C   UNL     1      40.392 -12.928   0.691  1.00  0.00    -0.012 A 
HETATM    9  C   UNL     1      40.142 -14.231   0.228  1.00  0.00     0.021 A 
HETATM   10  C   UNL     1      40.051 -14.494  -1.138  1.00  0.00     0.059 A 
HETATM   11 BR   UNL     1      39.896 -15.687   1.423  1.00  0.00    -0.050 Br
HETATM   12  C   UNL     1      40.195 -13.450  -2.042  1.00  0.00     0.100 A 
HETATM   13  C   UNL     1      40.427 -12.140  -1.620  1.00  0.00     0.101 A 
HETATM   14  C   UNL     1      40.543 -11.886  -0.254  1.00  0.00     0.049 A 
BRANCH  12  15
HETATM   15  O   UNL     1      40.092 -13.743  -3.373  1.00  0.00    -0.358 OA
HETATM   16  H   UNL     1      40.002 -12.891  -3.843  1.00  0.00     0.218 HD
ENDBRANCH  12  15
BRANCH  13  17
HETATM   17  O   UNL     1      40.528 -11.215  -2.623  1.00  0.00    -0.353 OA
HETATM   18  C   UNL     1      39.444 -10.310  -2.796  1.00  0.00     0.210 C 
ENDBRANCH  13  17
ENDBRANCH   7   8
ENDBRANCH   1   7
BRANCH   4  19
HETATM   19  C   UNL     1      42.187 -14.990   4.501  1.00  0.00     0.127 C 
BRANCH  19  20
HETATM   20  N   UNL     1      42.879 -16.130   5.107  1.00  0.00    -0.376 N 
HETATM   21  H   UNL     1      43.560 -15.881   5.819  1.00  0.00     0.161 HD
BRANCH  20  22
HETATM   22  C   UNL     1      43.192 -17.235   4.321  1.00  0.00     0.100 A 
HETATM   23  N   UNL     1      43.901 -18.237   4.874  1.00  0.00    -0.353 N 
HETATM   24  H   UNL     1      44.180 -18.152   5.846  1.00  0.00     0.166 HD
HETATM   25  C   UNL     1      44.253 -19.354   4.216  1.00  0.00     0.089 A 
HETATM   26  C   UNL     1      43.872 -19.535   2.896  1.00  0.00     0.017 A 
HETATM   27  C   UNL     1      43.115 -18.550   2.281  1.00  0.00     0.005 A 
HETATM   28  C   UNL     1      42.768 -17.403   2.994  1.00  0.00     0.048 A 
ENDBRANCH  20  22
ENDBRANCH  19  20
ENDBRANCH   4  19
TORSDOF 7
ENDMDL
MODEL 8
REMARK VINA RESULT:      -6.9      4.139      7.359
REMARK  7 active torsions:
REMARK  status: ('A' for Active; 'I' for Inactive)
REMARK    1  A    between atoms: O_2  and  C_3 
REMARK    2  A    between atoms: C_4  and  O_5 
REMARK    3  A    between atoms: C_9  and  C_10 
REMARK    4  A    between atoms: C_10  and  N_11 
REMARK    5  A    between atoms: C_14  and  C_15 
REMARK    6  A    between atoms: C_15  and  N_16 
REMARK    7  A    between atoms: N_16  and  C_17 
ROOT
HETATM    1  N   UNL     1      41.054 -13.744   3.163  1.00  0.00    -0.067 N 
HETATM    2  H   UNL     1      40.161 -13.260   2.976  1.00  0.00     0.280 HD
HETATM    3  C   UNL     1      40.852 -14.552   4.428  1.00  0.00     0.241 C 
HETATM    4  C   UNL     1      41.348 -15.959   4.096  1.00  0.00     0.031 C 
HETATM    5  C   UNL     1      40.985 -16.082   2.618  1.00  0.00     0.035 C 
HETATM    6  C   UNL     1      41.281 -14.715   2.022  1.00  0.00     0.235 C 
ENDROOT
BRANCH   1   7
HETATM    7  C   UNL     1      42.083 -12.635   3.214  1.00  0.00     0.274 C 
BRANCH   7   8
HETATM    8  C   UNL     1      42.188 -11.948   4.550  1.00  0.00    -0.012 A 
HETATM    9  C   UNL     1      41.220 -11.037   5.007  1.00  0.00     0.021 A 
HETATM   10  C   UNL     1      41.352 -10.425   6.252  1.00  0.00     0.059 A 
HETATM   11 BR   UNL     1      39.683 -10.610   3.975  1.00  0.00    -0.050 Br
HETATM   12  C   UNL     1      42.447 -10.735   7.049  1.00  0.00     0.100 A 
HETATM   13  C   UNL     1      43.420 -11.647   6.638  1.00  0.00     0.101 A 
HETATM   14  C   UNL     1      43.296 -12.237   5.381  1.00  0.00     0.049 A 
BRANCH  12  15
HETATM   15  O   UNL     1      42.540 -10.122   8.267  1.00  0.00    -0.358 OA
HETATM   16  H   UNL     1      42.691 -10.827   8.926  1.00  0.00     0.218 HD
ENDBRANCH  12  15
BRANCH  13  17
HETATM   17  O   UNL     1      44.429 -11.866   7.535  1.00  0.00    -0.353 OA
HETATM   18  C   UNL     1      45.673 -11.219   7.297  1.00  0.00     0.210 C 
ENDBRANCH  13  17
ENDBRANCH   7   8
ENDBRANCH   1   7
BRANCH   4  19
HETATM   19  C   UNL     1      42.851 -16.111   4.397  1.00  0.00     0.127 C 
BRANCH  19  20
HETATM   20  N   UNL     1      43.540 -16.821   3.316  1.00  0.00    -0.376 N 
HETATM   21  H   UNL     1      43.397 -16.424   2.391  1.00  0.00     0.161 HD
BRANCH  20  22
HETATM   22  C   UNL     1      43.659 -18.206   3.374  1.00  0.00     0.100 A 
HETATM   23  N   UNL     1      44.055 -18.769   4.531  1.00  0.00    -0.353 N 
HETATM   24  H   UNL     1      44.251 -18.162   5.322  1.00  0.00     0.166 HD
HETATM   25  C   UNL     1      44.197 -20.093   4.707  1.00  0.00     0.089 A 
HETATM   26  C   UNL     1      43.915 -20.968   3.671  1.00  0.00     0.017 A 
HETATM   27  C   UNL     1      43.474 -20.449   2.463  1.00  0.00     0.005 A 
HETATM   28  C   UNL     1      43.338 -19.069   2.316  1.00  0.00     0.048 A 
ENDBRANCH  20  22
ENDBRANCH  19  20
ENDBRANCH   4  19
TORSDOF 7
ENDMDL
MODEL 9
REMARK VINA RESULT:      -6.9      4.228      7.240
REMARK  7 active torsions:
REMARK  status: ('A' for Active; 'I' for Inactive)
REMARK    1  A    between atoms: O_2  and  C_3 
REMARK    2  A    between atoms: C_4  and  O_5 
REMARK    3  A    between atoms: C_9  and  C_10 
REMARK    4  A    between atoms: C_10  and  N_11 
REMARK    5  A    between atoms: C_14  and  C_15 
REMARK    6  A    between atoms: C_15  and  N_16 
REMARK    7  A    between atoms: N_16  and  C_17 
ROOT
HETATM    1  N   UNL     1      41.110 -12.941   3.677  1.00  0.00    -0.067 N 
HETATM    2  H   UNL     1      40.727 -12.784   2.731  1.00  0.00     0.280 HD
HETATM    3  C   UNL     1      42.616 -12.818   3.561  1.00  0.00     0.241 C 
HETATM    4  C   UNL     1      43.033 -11.857   4.673  1.00  0.00     0.031 C 
HETATM    5  C   UNL     1      41.834 -10.914   4.743  1.00  0.00     0.035 C 
HETATM    6  C   UNL     1      40.617 -11.805   4.550  1.00  0.00     0.235 C 
ENDROOT
BRANCH   1   7
HETATM    7  C   UNL     1      40.561 -14.289   4.089  1.00  0.00     0.274 C 
BRANCH   7   8
HETATM    8  C   UNL     1      41.472 -15.449   3.784  1.00  0.00    -0.012 A 
HETATM    9  C   UNL     1      41.420 -16.146   2.563  1.00  0.00     0.021 A 
HETATM   10  C   UNL     1      42.283 -17.212   2.318  1.00  0.00     0.059 A 
HETATM   11 BR   UNL     1      40.200 -15.666   1.189  1.00  0.00    -0.050 Br
HETATM   12  C   UNL     1      43.210 -17.575   3.287  1.00  0.00     0.100 A 
HETATM   13  C   UNL     1      43.303 -16.896   4.503  1.00  0.00     0.101 A 
HETATM   14  C   UNL     1      42.421 -15.846   4.755  1.00  0.00     0.049 A 
BRANCH  12  15
HETATM   15  O   UNL     1      44.045 -18.619   3.008  1.00  0.00    -0.358 OA
HETATM   16  H   UNL     1      44.536 -18.814   3.831  1.00  0.00     0.218 HD
ENDBRANCH  12  15
BRANCH  13  17
HETATM   17  O   UNL     1      44.275 -17.352   5.351  1.00  0.00    -0.353 OA
HETATM   18  C   UNL     1      44.699 -16.483   6.394  1.00  0.00     0.210 C 
ENDBRANCH  13  17
ENDBRANCH   7   8
ENDBRANCH   1   7
BRANCH   4  19
HETATM   19  C   UNL     1      43.328 -12.609   5.985  1.00  0.00     0.127 C 
BRANCH  19  20
HETATM   20  N   UNL     1      43.184 -11.727   7.146  1.00  0.00    -0.376 N 
HETATM   21  H   UNL     1      42.245 -11.367   7.291  1.00  0.00     0.161 HD
BRANCH  20  22
HETATM   22  C   UNL     1      44.226 -10.869   7.485  1.00  0.00     0.100 A 
HETATM   23  N   UNL     1      43.937  -9.745   8.168  1.00  0.00    -0.353 N 
HETATM   24  H   UNL     1      42.969  -9.565   8.415  1.00  0.00     0.166 HD
HETATM   25  C   UNL     1      44.860  -8.849   8.555  1.00  0.00     0.089 A 
HETATM   26  C   UNL     1      46.199  -9.060   8.271  1.00  0.00     0.017 A 
HETATM   27  C   UNL     1      46.562 -10.214   7.595  1.00  0.00     0.005 A 
HETATM   28  C   UNL     1      45.578 -11.123   7.208  1.00  0.00     0.048 A 
ENDBRANCH  20  22
ENDBRANCH  19  20
ENDBRANCH   4  19
TORSDOF 7
ENDMDL
MODEL 10
REMARK VINA RESULT:      -6.8      4.684      8.051
REMARK  7 active torsions:
REMARK  status: ('A' for Active; 'I' for Inactive)
REMARK    1  A    between atoms: O_2  and  C_3 
REMARK    2  A    between atoms: C_4  and  O_5 
REMARK    3  A    between atoms: C_9  and  C_10 
REMARK    4  A    between atoms: C_10  and  N_11 
REMARK    5  A    between atoms: C_14  and  C_15 
REMARK    6  A    between atoms: C_15  and  N_16 
REMARK    7  A    between atoms: N_16  and  C_17 
ROOT
HETATM    1  N   UNL     1      40.042 -13.846   3.682  1.00  0.00    -0.067 N 
HETATM    2  H   UNL     1      39.105 -13.634   4.062  1.00  0.00     0.280 HD
HETATM    3  C   UNL     1      40.643 -14.911   4.575  1.00  0.00     0.241 C 
HETATM    4  C   UNL     1      41.146 -16.000   3.629  1.00  0.00     0.031 C 
HETATM    5  C   UNL     1      40.123 -15.934   2.497  1.00  0.00     0.035 C 
HETATM    6  C   UNL     1      39.836 -14.452   2.308  1.00  0.00     0.235 C 
ENDROOT
BRANCH   1   7
HETATM    7  C   UNL     1      40.745 -12.506   3.641  1.00  0.00     0.274 C 
BRANCH   7   8
HETATM    8  C   UNL     1      40.317 -11.549   4.723  1.00  0.00    -0.012 A 
HETATM    9  C   UNL     1      41.090 -11.321   5.875  1.00  0.00     0.021 A 
HETATM   10  C   UNL     1      40.660 -10.425   6.852  1.00  0.00     0.059 A 
HETATM   11 BR   UNL     1      42.752 -12.196   6.154  1.00  0.00    -0.050 Br
HETATM   12  C   UNL     1      39.463  -9.743   6.670  1.00  0.00     0.100 A 
HETATM   13  C   UNL     1      38.678  -9.929   5.531  1.00  0.00     0.101 A 
HETATM   14  C   UNL     1      39.099 -10.846   4.569  1.00  0.00     0.049 A 
BRANCH  12  15
HETATM   15  O   UNL     1      39.078  -8.865   7.644  1.00  0.00    -0.358 OA
HETATM   16  H   UNL     1      39.896  -8.507   8.041  1.00  0.00     0.218 HD
ENDBRANCH  12  15
BRANCH  13  17
HETATM   17  O   UNL     1      37.537  -9.175   5.481  1.00  0.00    -0.353 OA
HETATM   18  C   UNL     1      37.546  -8.024   4.646  1.00  0.00     0.210 C 
ENDBRANCH  13  17
ENDBRANCH   7   8
ENDBRANCH   1   7
BRANCH   4  19
HETATM   19  C   UNL     1      42.599 -15.736   3.190  1.00  0.00     0.127 C 
BRANCH  19  20
HETATM   20  N   UNL     1      43.537 -16.595   3.916  1.00  0.00    -0.376 N 
HETATM   21  H   UNL     1      44.417 -16.149   4.160  1.00  0.00     0.161 HD
BRANCH  20  22
HETATM   22  C   UNL     1      43.605 -17.950   3.605  1.00  0.00     0.100 A 
HETATM   23  N   UNL     1      44.008 -18.810   4.559  1.00  0.00    -0.353 N 
HETATM   24  H   UNL     1      44.246 -18.439   5.474  1.00  0.00     0.166 HD
HETATM   25  C   UNL     1      44.104 -20.137   4.376  1.00  0.00     0.089 A 
HETATM   26  C   UNL     1      43.763 -20.699   3.156  1.00  0.00     0.017 A 
HETATM   27  C   UNL     1      43.312 -19.867   2.143  1.00  0.00     0.005 A 
HETATM   28  C   UNL     1      43.226 -18.493   2.368  1.00  0.00     0.048 A 
ENDBRANCH  20  22
ENDBRANCH  19  20
ENDBRANCH   4  19
TORSDOF 7
ENDMDL
