MODEL 1
REMARK VINA RESULT:      -7.6      0.000      0.000
REMARK  4 active torsions:
REMARK  status: ('A' for Active; 'I' for Inactive)
REMARK    1  A    between atoms: O_2  and  C_3 
REMARK    2  A    between atoms: C_4  and  O_5 
REMARK    3  A    between atoms: C_9  and  N_10 
REMARK    4  A    between atoms: N_10  and  C_11 
ROOT
HETATM    1  C   UNL     1      43.943 -18.448   4.061  1.00  0.00     0.102 A 
HETATM    2  C   UNL     1      43.529 -17.262   4.693  1.00  0.00     0.118 A 
HETATM    3  C   UNL     1      42.607 -16.477   4.008  1.00  0.00     0.086 A 
HETATM    4  C   UNL     1      42.121 -16.830   2.754  1.00  0.00     0.010 A 
HETATM    5  C   UNL     1      41.193 -15.788   2.262  1.00  0.00     0.267 C 
HETATM    6  O   UNL     1      41.117 -14.871   3.359  1.00  0.00    -0.287 OA
HETATM    7  C   UNL     1      42.012 -15.184   4.347  1.00  0.00     0.299 C 
HETATM    8  O   UNL     1      42.216 -14.447   5.286  1.00  0.00    -0.259 OA
HETATM    9  C   UNL     1      42.532 -17.996   2.128  1.00  0.00     0.015 A 
HETATM   10  C   UNL     1      43.456 -18.800   2.790  1.00  0.00     0.040 A 
ENDROOT
BRANCH   5  11
HETATM   11  N   UNL     1      41.732 -15.112   1.094  1.00  0.00    -0.346 N 
HETATM   12  H   UNL     1      42.324 -15.740   0.550  1.00  0.00     0.164 HD
BRANCH  11  13
HETATM   13  C   UNL     1      40.955 -14.288   0.289  1.00  0.00     0.102 A 
HETATM   14  N   UNL     1      41.302 -13.012   0.034  1.00  0.00    -0.351 N 
HETATM   15  H   UNL     1      42.153 -12.656   0.474  1.00  0.00     0.166 HD
HETATM   16  C   UNL     1      40.631 -12.205  -0.801  1.00  0.00     0.109 A 
HETATM   17  C   UNL     1      39.521 -12.685  -1.479  1.00  0.00     0.026 A 
HETATM   18 BR   UNL     1      38.570 -11.561  -2.655  1.00  0.00    -0.050 Br
HETATM   19  C   UNL     1      39.135 -14.003  -1.294  1.00  0.00     0.024 A 
HETATM   20  C   UNL     1      39.864 -14.812  -0.419  1.00  0.00     0.050 A 
ENDBRANCH  11  13
ENDBRANCH   5  11
BRANCH   2  21
HETATM   21  O   UNL     1      44.164 -16.899   5.844  1.00  0.00    -0.352 OA
HETATM   22  C   UNL     1      43.513 -17.248   7.063  1.00  0.00     0.210 C 
ENDBRANCH   2  21
BRANCH   1  23
HETATM   23  O   UNL     1      44.881 -19.309   4.569  1.00  0.00    -0.353 OA
HETATM   24  C   UNL     1      44.327 -20.518   5.086  1.00  0.00     0.210 C 
ENDBRANCH   1  23
TORSDOF 4
ENDMDL
MODEL 2
REMARK VINA RESULT:      -7.3      1.280      1.453
REMARK  4 active torsions:
REMARK  status: ('A' for Active; 'I' for Inactive)
REMARK    1  A    between atoms: O_2  and  C_3 
REMARK    2  A    between atoms: C_4  and  O_5 
REMARK    3  A    between atoms: C_9  and  N_10 
REMARK    4  A    between atoms: N_10  and  C_11 
ROOT
HETATM    1  C   UNL     1      43.362 -17.262   4.134  1.00  0.00     0.102 A 
HETATM    2  C   UNL     1      42.570 -16.198   4.600  1.00  0.00     0.118 A 
HETATM    3  C   UNL     1      41.535 -15.778   3.770  1.00  0.00     0.086 A 
HETATM    4  C   UNL     1      41.293 -16.366   2.533  1.00  0.00     0.010 A 
HETATM    5  C   UNL     1      40.161 -15.687   1.866  1.00  0.00     0.267 C 
HETATM    6  O   UNL     1      39.722 -14.740   2.845  1.00  0.00    -0.287 OA
HETATM    7  C   UNL     1      40.568 -14.691   3.921  1.00  0.00     0.299 C 
HETATM    8  O   UNL     1      40.463 -13.846   4.782  1.00  0.00    -0.259 OA
HETATM    9  C   UNL     1      42.076 -17.412   2.072  1.00  0.00     0.015 A 
HETATM   10  C   UNL     1      43.121 -17.851   2.881  1.00  0.00     0.040 A 
ENDROOT
BRANCH   5  11
HETATM   11  N   UNL     1      40.598 -14.989   0.669  1.00  0.00    -0.346 N 
HETATM   12  H   UNL     1      41.168 -15.596   0.079  1.00  0.00     0.164 HD
BRANCH  11  13
HETATM   13  C   UNL     1      39.744 -14.183  -0.074  1.00  0.00     0.102 A 
HETATM   14  N   UNL     1      39.319 -12.989   0.381  1.00  0.00    -0.351 N 
HETATM   15  H   UNL     1      39.628 -12.700   1.311  1.00  0.00     0.166 HD
HETATM   16  C   UNL     1      38.563 -12.140  -0.332  1.00  0.00     0.109 A 
HETATM   17  C   UNL     1      38.197 -12.467  -1.628  1.00  0.00     0.026 A 
HETATM   18 BR   UNL     1      37.137 -11.283  -2.639  1.00  0.00    -0.050 Br
HETATM   19  C   UNL     1      38.637 -13.663  -2.173  1.00  0.00     0.024 A 
HETATM   20  C   UNL     1      39.427 -14.516  -1.399  1.00  0.00     0.050 A 
ENDBRANCH  11  13
ENDBRANCH   5  11
BRANCH   2  21
HETATM   21  O   UNL     1      42.961 -15.566   5.743  1.00  0.00    -0.352 OA
HETATM   22  C   UNL     1      42.330 -15.991   6.948  1.00  0.00     0.210 C 
ENDBRANCH   2  21
BRANCH   1  23
HETATM   23  O   UNL     1      44.452 -17.764   4.799  1.00  0.00    -0.353 OA
HETATM   24  C   UNL     1      44.538 -19.187   4.760  1.00  0.00     0.210 C 
ENDBRANCH   1  23
TORSDOF 4
ENDMDL
MODEL 3
REMARK VINA RESULT:      -7.3      4.624      6.181
REMARK  4 active torsions:
REMARK  status: ('A' for Active; 'I' for Inactive)
REMARK    1  A    between atoms: O_2  and  C_3 
REMARK    2  A    between atoms: C_4  and  O_5 
REMARK    3  A    between atoms: C_9  and  N_10 
REMARK    4  A    between atoms: N_10  and  C_11 
ROOT
HETATM    1  C   UNL     1      43.651 -17.430   3.629  1.00  0.00     0.102 A 
HETATM    2  C   UNL     1      43.615 -17.226   5.019  1.00  0.00     0.118 A 
HETATM    3  C   UNL     1      43.125 -16.000   5.459  1.00  0.00     0.086 A 
HETATM    4  C   UNL     1      42.702 -15.012   4.576  1.00  0.00     0.010 A 
HETATM    5  C   UNL     1      42.275 -13.813   5.330  1.00  0.00     0.267 C 
HETATM    6  O   UNL     1      42.399 -14.222   6.696  1.00  0.00    -0.287 OA
HETATM    7  C   UNL     1      42.995 -15.449   6.808  1.00  0.00     0.299 C 
HETATM    8  O   UNL     1      43.334 -15.903   7.878  1.00  0.00    -0.259 OA
HETATM    9  C   UNL     1      42.741 -15.211   3.205  1.00  0.00     0.015 A 
HETATM   10  C   UNL     1      43.229 -16.428   2.737  1.00  0.00     0.040 A 
ENDROOT
BRANCH   5  11
HETATM   11  N   UNL     1      43.158 -12.688   5.072  1.00  0.00    -0.346 N 
HETATM   12  H   UNL     1      42.821 -12.131   4.287  1.00  0.00     0.164 HD
BRANCH  11  13
HETATM   13  C   UNL     1      43.675 -11.900   6.094  1.00  0.00     0.102 A 
HETATM   14  N   UNL     1      42.880 -11.289   6.992  1.00  0.00    -0.351 N 
HETATM   15  H   UNL     1      41.869 -11.404   6.885  1.00  0.00     0.166 HD
HETATM   16  C   UNL     1      43.334 -10.589   8.042  1.00  0.00     0.109 A 
HETATM   17  C   UNL     1      44.698 -10.485   8.263  1.00  0.00     0.026 A 
HETATM   18 BR   UNL     1      45.348  -9.505   9.735  1.00  0.00    -0.050 Br
HETATM   19  C   UNL     1      45.572 -11.128   7.400  1.00  0.00     0.024 A 
HETATM   20  C   UNL     1      45.058 -11.851   6.321  1.00  0.00     0.050 A 
ENDBRANCH  11  13
ENDBRANCH   5  11
BRANCH   2  21
HETATM   21  O   UNL     1      44.192 -18.169   5.816  1.00  0.00    -0.352 OA
HETATM   22  C   UNL     1      43.325 -19.170   6.342  1.00  0.00     0.210 C 
ENDBRANCH   2  21
BRANCH   1  23
HETATM   23  O   UNL     1      44.150 -18.555   3.024  1.00  0.00    -0.353 OA
HETATM   24  C   UNL     1      43.210 -19.213   2.177  1.00  0.00     0.210 C 
ENDBRANCH   1  23
TORSDOF 4
ENDMDL
MODEL 4
REMARK VINA RESULT:      -7.2      0.623      1.039
REMARK  4 active torsions:
REMARK  status: ('A' for Active; 'I' for Inactive)
REMARK    1  A    between atoms: O_2  and  C_3 
REMARK    2  A    between atoms: C_4  and  O_5 
REMARK    3  A    between atoms: C_9  and  N_10 
REMARK    4  A    between atoms: N_10  and  C_11 
ROOT
HETATM    1  C   UNL     1      43.931 -18.269   4.001  1.00  0.00     0.102 A 
HETATM    2  C   UNL     1      43.543 -17.072   4.628  1.00  0.00     0.118 A 
HETATM    3  C   UNL     1      42.613 -16.286   3.954  1.00  0.00     0.086 A 
HETATM    4  C   UNL     1      42.096 -16.649   2.716  1.00  0.00     0.010 A 
HETATM    5  C   UNL     1      41.167 -15.604   2.232  1.00  0.00     0.267 C 
HETATM    6  O   UNL     1      41.125 -14.674   3.319  1.00  0.00    -0.287 OA
HETATM    7  C   UNL     1      42.039 -14.984   4.291  1.00  0.00     0.299 C 
HETATM    8  O   UNL     1      42.271 -14.237   5.215  1.00  0.00    -0.259 OA
HETATM    9  C   UNL     1      42.481 -17.827   2.095  1.00  0.00     0.015 A 
HETATM   10  C   UNL     1      43.412 -18.632   2.745  1.00  0.00     0.040 A 
ENDROOT
BRANCH   5  11
HETATM   11  N   UNL     1      41.685 -14.948   1.044  1.00  0.00    -0.346 N 
HETATM   12  H   UNL     1      42.291 -15.575   0.515  1.00  0.00     0.164 HD
BRANCH  11  13
HETATM   13  C   UNL     1      40.886 -14.166   0.220  1.00  0.00     0.102 A 
HETATM   14  N   UNL     1      39.928 -14.702  -0.559  1.00  0.00    -0.351 N 
HETATM   15  H   UNL     1      39.820 -15.719  -0.543  1.00  0.00     0.166 HD
HETATM   16  C   UNL     1      39.078 -13.983  -1.307  1.00  0.00     0.109 A 
HETATM   17  C   UNL     1      39.145 -12.599  -1.285  1.00  0.00     0.026 A 
HETATM   18 BR   UNL     1      37.956 -11.577  -2.331  1.00  0.00    -0.050 Br
HETATM   19  C   UNL     1      40.081 -11.980  -0.471  1.00  0.00     0.024 A 
HETATM   20  C   UNL     1      40.943 -12.766   0.296  1.00  0.00     0.050 A 
ENDBRANCH  11  13
ENDBRANCH   5  11
BRANCH   2  21
HETATM   21  O   UNL     1      44.208 -16.702   5.759  1.00  0.00    -0.352 OA
HETATM   22  C   UNL     1      43.594 -17.052   6.997  1.00  0.00     0.210 C 
ENDBRANCH   2  21
BRANCH   1  23
HETATM   23  O   UNL     1      44.873 -19.134   4.498  1.00  0.00    -0.353 OA
HETATM   24  C   UNL     1      44.321 -20.342   5.018  1.00  0.00     0.210 C 
ENDBRANCH   1  23
TORSDOF 4
ENDMDL
MODEL 5
REMARK VINA RESULT:      -7.0      2.652      3.085
REMARK  4 active torsions:
REMARK  status: ('A' for Active; 'I' for Inactive)
REMARK    1  A    between atoms: O_2  and  C_3 
REMARK    2  A    between atoms: C_4  and  O_5 
REMARK    3  A    between atoms: C_9  and  N_10 
REMARK    4  A    between atoms: N_10  and  C_11 
ROOT
HETATM    1  C   UNL     1      43.840 -18.427   4.357  1.00  0.00     0.102 A 
HETATM    2  C   UNL     1      42.970 -17.609   5.098  1.00  0.00     0.118 A 
HETATM    3  C   UNL     1      42.182 -16.717   4.376  1.00  0.00     0.086 A 
HETATM    4  C   UNL     1      42.253 -16.622   2.991  1.00  0.00     0.010 A 
HETATM    5  C   UNL     1      41.334 -15.566   2.512  1.00  0.00     0.267 C 
HETATM    6  O   UNL     1      40.675 -15.137   3.707  1.00  0.00    -0.287 OA
HETATM    7  C   UNL     1      41.223 -15.708   4.825  1.00  0.00     0.299 C 
HETATM    8  O   UNL     1      40.915 -15.358   5.942  1.00  0.00    -0.259 OA
HETATM    9  C   UNL     1      43.114 -17.425   2.260  1.00  0.00     0.015 A 
HETATM   10  C   UNL     1      43.915 -18.326   2.957  1.00  0.00     0.040 A 
ENDROOT
BRANCH   5  11
HETATM   11  N   UNL     1      42.067 -14.455   1.929  1.00  0.00    -0.346 N 
HETATM   12  H   UNL     1      42.044 -14.496   0.910  1.00  0.00     0.164 HD
BRANCH  11  13
HETATM   13  C   UNL     1      41.951 -13.156   2.408  1.00  0.00     0.102 A 
HETATM   14  N   UNL     1      40.767 -12.516   2.447  1.00  0.00    -0.351 N 
HETATM   15  H   UNL     1      39.949 -13.013   2.088  1.00  0.00     0.166 HD
HETATM   16  C   UNL     1      40.590 -11.296   2.976  1.00  0.00     0.109 A 
HETATM   17  C   UNL     1      41.664 -10.632   3.548  1.00  0.00     0.026 A 
HETATM   18 BR   UNL     1      41.429  -8.918   4.294  1.00  0.00    -0.050 Br
HETATM   19  C   UNL     1      42.903 -11.253   3.580  1.00  0.00     0.024 A 
HETATM   20  C   UNL     1      43.043 -12.526   3.022  1.00  0.00     0.050 A 
ENDBRANCH  11  13
ENDBRANCH   5  11
BRANCH   2  21
HETATM   21  O   UNL     1      43.069 -17.642   6.458  1.00  0.00    -0.352 OA
HETATM   22  C   UNL     1      43.999 -16.737   7.047  1.00  0.00     0.210 C 
ENDBRANCH   2  21
BRANCH   1  23
HETATM   23  O   UNL     1      44.721 -19.322   4.910  1.00  0.00    -0.353 OA
HETATM   24  C   UNL     1      44.230 -20.661   4.944  1.00  0.00     0.210 C 
ENDBRANCH   1  23
TORSDOF 4
ENDMDL
MODEL 6
REMARK VINA RESULT:      -6.9      4.815      7.082
REMARK  4 active torsions:
REMARK  status: ('A' for Active; 'I' for Inactive)
REMARK    1  A    between atoms: O_2  and  C_3 
REMARK    2  A    between atoms: C_4  and  O_5 
REMARK    3  A    between atoms: C_9  and  N_10 
REMARK    4  A    between atoms: N_10  and  C_11 
ROOT
HETATM    1  C   UNL     1      44.127 -10.457   7.367  1.00  0.00     0.102 A 
HETATM    2  C   UNL     1      42.813 -10.422   6.868  1.00  0.00     0.118 A 
HETATM    3  C   UNL     1      42.340 -11.586   6.268  1.00  0.00     0.086 A 
HETATM    4  C   UNL     1      43.124 -12.728   6.151  1.00  0.00     0.010 A 
HETATM    5  C   UNL     1      42.371 -13.784   5.438  1.00  0.00     0.267 C 
HETATM    6  O   UNL     1      41.082 -13.193   5.243  1.00  0.00    -0.287 OA
HETATM    7  C   UNL     1      41.064 -11.875   5.616  1.00  0.00     0.299 C 
HETATM    8  O   UNL     1      40.118 -11.156   5.384  1.00  0.00    -0.259 OA
HETATM    9  C   UNL     1      44.421 -12.762   6.639  1.00  0.00     0.015 A 
HETATM   10  C   UNL     1      44.920 -11.611   7.242  1.00  0.00     0.040 A 
ENDROOT
BRANCH   5  11
HETATM   11  N   UNL     1      42.974 -14.082   4.151  1.00  0.00    -0.346 N 
HETATM   12  H   UNL     1      43.786 -13.488   3.981  1.00  0.00     0.164 HD
BRANCH  11  13
HETATM   13  C   UNL     1      43.171 -15.384   3.706  1.00  0.00     0.102 A 
HETATM   14  N   UNL     1      43.391 -16.401   4.561  1.00  0.00    -0.351 N 
HETATM   15  H   UNL     1      43.433 -16.181   5.558  1.00  0.00     0.166 HD
HETATM   16  C   UNL     1      43.503 -17.684   4.187  1.00  0.00     0.109 A 
HETATM   17  C   UNL     1      43.366 -18.026   2.850  1.00  0.00     0.026 A 
HETATM   18 BR   UNL     1      43.520 -19.825   2.313  1.00  0.00    -0.050 Br
HETATM   19  C   UNL     1      43.094 -17.032   1.923  1.00  0.00     0.024 A 
HETATM   20  C   UNL     1      42.981 -15.709   2.355  1.00  0.00     0.050 A 
ENDBRANCH  11  13
ENDBRANCH   5  11
BRANCH   2  21
HETATM   21  O   UNL     1      42.162  -9.225   6.873  1.00  0.00    -0.352 OA
HETATM   22  C   UNL     1      41.299  -8.978   7.980  1.00  0.00     0.210 C 
ENDBRANCH   2  21
BRANCH   1  23
HETATM   23  O   UNL     1      44.766  -9.387   7.939  1.00  0.00    -0.353 OA
HETATM   24  C   UNL     1      46.184  -9.531   7.994  1.00  0.00     0.210 C 
ENDBRANCH   1  23
TORSDOF 4
ENDMDL
MODEL 7
REMARK VINA RESULT:      -6.9      3.464      5.475
REMARK  4 active torsions:
REMARK  status: ('A' for Active; 'I' for Inactive)
REMARK    1  A    between atoms: O_2  and  C_3 
REMARK    2  A    between atoms: C_4  and  O_5 
REMARK    3  A    between atoms: C_9  and  N_10 
REMARK    4  A    between atoms: N_10  and  C_11 
ROOT
HETATM    1  C   UNL     1      43.700 -12.181   6.207  1.00  0.00     0.102 A 
HETATM    2  C   UNL     1      42.301 -12.095   6.097  1.00  0.00     0.118 A 
HETATM    3  C   UNL     1      41.587 -13.279   6.251  1.00  0.00     0.086 A 
HETATM    4  C   UNL     1      42.216 -14.497   6.489  1.00  0.00     0.010 A 
HETATM    5  C   UNL     1      41.208 -15.577   6.566  1.00  0.00     0.267 C 
HETATM    6  O   UNL     1      39.966 -14.876   6.448  1.00  0.00    -0.287 OA
HETATM    7  C   UNL     1      40.154 -13.552   6.153  1.00  0.00     0.299 C 
HETATM    8  O   UNL     1      39.233 -12.824   5.858  1.00  0.00    -0.259 OA
HETATM    9  C   UNL     1      43.595 -14.583   6.593  1.00  0.00     0.015 A 
HETATM   10  C   UNL     1      44.335 -13.413   6.441  1.00  0.00     0.040 A 
ENDROOT
BRANCH   5  11
HETATM   11  N   UNL     1      41.353 -16.511   5.463  1.00  0.00    -0.346 N 
HETATM   12  H   UNL     1      40.948 -17.418   5.696  1.00  0.00     0.164 HD
BRANCH  11  13
HETATM   13  C   UNL     1      41.106 -16.146   4.145  1.00  0.00     0.102 A 
HETATM   14  N   UNL     1      39.864 -15.873   3.703  1.00  0.00    -0.351 N 
HETATM   15  H   UNL     1      39.094 -15.965   4.369  1.00  0.00     0.166 HD
HETATM   16  C   UNL     1      39.586 -15.437   2.465  1.00  0.00     0.109 A 
HETATM   17  C   UNL     1      40.617 -15.222   1.564  1.00  0.00     0.026 A 
HETATM   18 BR   UNL     1      40.240 -14.610  -0.177  1.00  0.00    -0.050 Br
HETATM   19  C   UNL     1      41.924 -15.442   1.968  1.00  0.00     0.024 A 
HETATM   20  C   UNL     1      42.170 -15.891   3.268  1.00  0.00     0.050 A 
ENDBRANCH  11  13
ENDBRANCH   5  11
BRANCH   2  21
HETATM   21  O   UNL     1      41.766 -10.904   5.705  1.00  0.00    -0.352 OA
HETATM   22  C   UNL     1      41.314 -10.041   6.745  1.00  0.00     0.210 C 
ENDBRANCH   2  21
BRANCH   1  23
HETATM   23  O   UNL     1      44.557 -11.124   6.032  1.00  0.00    -0.353 OA
HETATM   24  C   UNL     1      45.617 -11.084   6.986  1.00  0.00     0.210 C 
ENDBRANCH   1  23
TORSDOF 4
ENDMDL
MODEL 8
REMARK VINA RESULT:      -6.8     13.871     15.229
REMARK  4 active torsions:
REMARK  status: ('A' for Active; 'I' for Inactive)
REMARK    1  A    between atoms: O_2  and  C_3 
REMARK    2  A    between atoms: C_4  and  O_5 
REMARK    3  A    between atoms: C_9  and  N_10 
REMARK    4  A    between atoms: N_10  and  C_11 
ROOT
HETATM    1  C   UNL     1      48.428 -30.489   2.483  1.00  0.00     0.102 A 
HETATM    2  C   UNL     1      48.841 -30.406   1.142  1.00  0.00     0.118 A 
HETATM    3  C   UNL     1      48.257 -29.408   0.368  1.00  0.00     0.086 A 
HETATM    4  C   UNL     1      47.300 -28.539   0.881  1.00  0.00     0.010 A 
HETATM    5  C   UNL     1      46.836 -27.619  -0.181  1.00  0.00     0.267 C 
HETATM    6  O   UNL     1      47.658 -27.967  -1.299  1.00  0.00    -0.287 OA
HETATM    7  C   UNL     1      48.419 -29.077  -1.047  1.00  0.00     0.299 C 
HETATM    8  O   UNL     1      49.062 -29.625  -1.914  1.00  0.00    -0.259 OA
HETATM    9  C   UNL     1      46.889 -28.623   2.201  1.00  0.00     0.015 A 
HETATM   10  C   UNL     1      47.456 -29.614   2.999  1.00  0.00     0.040 A 
ENDROOT
BRANCH   5  11
HETATM   11  N   UNL     1      45.439 -27.854  -0.506  1.00  0.00    -0.346 N 
HETATM   12  H   UNL     1      44.870 -27.036  -0.286  1.00  0.00     0.164 HD
BRANCH  11  13
HETATM   13  C   UNL     1      45.046 -28.469  -1.689  1.00  0.00     0.102 A 
HETATM   14  N   UNL     1      45.342 -27.947  -2.894  1.00  0.00    -0.351 N 
HETATM   15  H   UNL     1      45.852 -27.061  -2.914  1.00  0.00     0.166 HD
HETATM   16  C   UNL     1      45.057 -28.545  -4.060  1.00  0.00     0.109 A 
HETATM   17  C   UNL     1      44.441 -29.786  -4.066  1.00  0.00     0.026 A 
HETATM   18 BR   UNL     1      44.036 -30.636  -5.698  1.00  0.00    -0.050 Br
HETATM   19  C   UNL     1      44.147 -30.400  -2.858  1.00  0.00     0.024 A 
HETATM   20  C   UNL     1      44.465 -29.746  -1.665  1.00  0.00     0.050 A 
ENDBRANCH  11  13
ENDBRANCH   5  11
BRANCH   2  21
HETATM   21  O   UNL     1      49.659 -31.387   0.666  1.00  0.00    -0.352 OA
HETATM   22  C   UNL     1      51.055 -31.101   0.661  1.00  0.00     0.210 C 
ENDBRANCH   2  21
BRANCH   1  23
HETATM   23  O   UNL     1      48.862 -31.443   3.369  1.00  0.00    -0.353 OA
HETATM   24  C   UNL     1      49.544 -30.903   4.500  1.00  0.00     0.210 C 
ENDBRANCH   1  23
TORSDOF 4
ENDMDL
MODEL 9
REMARK VINA RESULT:      -6.8      4.475      5.893
REMARK  4 active torsions:
REMARK  status: ('A' for Active; 'I' for Inactive)
REMARK    1  A    between atoms: O_2  and  C_3 
REMARK    2  A    between atoms: C_4  and  O_5 
REMARK    3  A    between atoms: C_9  and  N_10 
REMARK    4  A    between atoms: N_10  and  C_11 
ROOT
HETATM    1  C   UNL     1      42.852 -16.533   3.605  1.00  0.00     0.102 A 
HETATM    2  C   UNL     1      42.054 -15.956   4.608  1.00  0.00     0.118 A 
HETATM    3  C   UNL     1      41.808 -14.590   4.502  1.00  0.00     0.086 A 
HETATM    4  C   UNL     1      42.330 -13.822   3.468  1.00  0.00     0.010 A 
HETATM    5  C   UNL     1      41.934 -12.407   3.642  1.00  0.00     0.267 C 
HETATM    6  O   UNL     1      41.079 -12.445   4.790  1.00  0.00    -0.287 OA
HETATM    7  C   UNL     1      41.072 -13.680   5.380  1.00  0.00     0.299 C 
HETATM    8  O   UNL     1      40.540 -13.878   6.449  1.00  0.00    -0.259 OA
HETATM    9  C   UNL     1      43.120 -14.389   2.481  1.00  0.00     0.015 A 
HETATM   10  C   UNL     1      43.385 -15.754   2.563  1.00  0.00     0.040 A 
ENDROOT
BRANCH   5  11
HETATM   11  N   UNL     1      43.087 -11.567   3.916  1.00  0.00    -0.346 N 
HETATM   12  H   UNL     1      43.128 -10.780   3.269  1.00  0.00     0.164 HD
BRANCH  11  13
HETATM   13  C   UNL     1      43.455 -11.209   5.207  1.00  0.00     0.102 A 
HETATM   14  N   UNL     1      42.708 -10.372   5.953  1.00  0.00    -0.351 N 
HETATM   15  H   UNL     1      41.863  -9.985   5.527  1.00  0.00     0.166 HD
HETATM   16  C   UNL     1      42.977 -10.063   7.230  1.00  0.00     0.109 A 
HETATM   17  C   UNL     1      44.068 -10.638   7.862  1.00  0.00     0.026 A 
HETATM   18 BR   UNL     1      44.456 -10.211   9.656  1.00  0.00    -0.050 Br
HETATM   19  C   UNL     1      44.854 -11.542   7.165  1.00  0.00     0.024 A 
HETATM   20  C   UNL     1      44.536 -11.840   5.838  1.00  0.00     0.050 A 
ENDBRANCH  11  13
ENDBRANCH   5  11
BRANCH   2  21
HETATM   21  O   UNL     1      41.711 -16.733   5.674  1.00  0.00    -0.352 OA
HETATM   22  C   UNL     1      42.612 -16.724   6.778  1.00  0.00     0.210 C 
ENDBRANCH   2  21
BRANCH   1  23
HETATM   23  O   UNL     1      43.235 -17.850   3.583  1.00  0.00    -0.353 OA
HETATM   24  C   UNL     1      43.121 -18.457   2.297  1.00  0.00     0.210 C 
ENDBRANCH   1  23
TORSDOF 4
ENDMDL
MODEL 10
REMARK VINA RESULT:      -6.8      3.442      4.357
REMARK  4 active torsions:
REMARK  status: ('A' for Active; 'I' for Inactive)
REMARK    1  A    between atoms: O_2  and  C_3 
REMARK    2  A    between atoms: C_4  and  O_5 
REMARK    3  A    between atoms: C_9  and  N_10 
REMARK    4  A    between atoms: N_10  and  C_11 
ROOT
HETATM    1  C   UNL     1      44.122 -18.850   4.926  1.00  0.00     0.102 A 
HETATM    2  C   UNL     1      44.023 -18.174   3.698  1.00  0.00     0.118 A 
HETATM    3  C   UNL     1      43.499 -16.885   3.733  1.00  0.00     0.086 A 
HETATM    4  C   UNL     1      43.078 -16.290   4.917  1.00  0.00     0.010 A 
HETATM    5  C   UNL     1      42.534 -14.943   4.636  1.00  0.00     0.267 C 
HETATM    6  O   UNL     1      42.759 -14.783   3.232  1.00  0.00    -0.287 OA
HETATM    7  C   UNL     1      43.219 -15.937   2.655  1.00  0.00     0.299 C 
HETATM    8  O   UNL     1      43.321 -16.058   1.455  1.00  0.00    -0.259 OA
HETATM    9  C   UNL     1      43.171 -16.957   6.128  1.00  0.00     0.015 A 
HETATM   10  C   UNL     1      43.690 -18.249   6.122  1.00  0.00     0.040 A 
ENDROOT
BRANCH   5  11
HETATM   11  N   UNL     1      41.109 -14.882   4.915  1.00  0.00    -0.346 N 
HETATM   12  H   UNL     1      40.854 -15.535   5.656  1.00  0.00     0.164 HD
BRANCH  11  13
HETATM   13  C   UNL     1      40.422 -13.679   5.010  1.00  0.00     0.102 A 
HETATM   14  N   UNL     1      40.336 -12.999   6.169  1.00  0.00    -0.351 N 
HETATM   15  H   UNL     1      40.778 -13.411   6.994  1.00  0.00     0.166 HD
HETATM   16  C   UNL     1      39.757 -11.796   6.292  1.00  0.00     0.109 A 
HETATM   17  C   UNL     1      39.222 -11.172   5.176  1.00  0.00     0.026 A 
HETATM   18 BR   UNL     1      38.406  -9.481   5.336  1.00  0.00    -0.050 Br
HETATM   19  C   UNL     1      39.315 -11.798   3.943  1.00  0.00     0.024 A 
HETATM   20  C   UNL     1      39.931 -13.048   3.858  1.00  0.00     0.050 A 
ENDBRANCH  11  13
ENDBRANCH   5  11
BRANCH   2  21
HETATM   21  O   UNL     1      44.302 -18.874   2.562  1.00  0.00    -0.352 OA
HETATM   22  C   UNL     1      43.244 -19.669   2.033  1.00  0.00     0.210 C 
ENDBRANCH   2  21
BRANCH   1  23
HETATM   23  O   UNL     1      44.565 -20.140   5.067  1.00  0.00    -0.353 OA
HETATM   24  C   UNL     1      43.557 -21.045   5.514  1.00  0.00     0.210 C 
ENDBRANCH   1  23
TORSDOF 4
ENDMDL
