MODEL 1
REMARK VINA RESULT:      -9.6      0.000      0.000
REMARK  3 active torsions:
REMARK  status: ('A' for Active; 'I' for Inactive)
REMARK    1  A    between atoms: N_4  and  C_5 
REMARK    2  A    between atoms: C_15  and  C_16 
REMARK       I    between atoms: C_16  and  N_17 
REMARK    3  A    between atoms: N_17  and  C_18 
ROOT
HETATM    1  C   UNL     1      42.427 -10.650   3.542  1.00  0.00     0.073 C 
HETATM    2  C   UNL     1      42.763 -11.141   4.901  1.00  0.00     0.069 A 
HETATM    3  N   UNL     1      43.239 -10.300   5.829  1.00  0.00    -0.170 NA
HETATM    4  N   UNL     1      43.397 -11.054   6.960  1.00  0.00    -0.216 N 
HETATM    5  C   UNL     1      43.151 -12.389   6.679  1.00  0.00     0.145 A 
HETATM    6  C   UNL     1      42.697 -12.460   5.383  1.00  0.00     0.087 A 
HETATM    7  N   UNL     1      43.347 -13.492   7.442  1.00  0.00    -0.349 N 
HETATM    8  C   UNL     1      43.094 -14.730   6.875  1.00  0.00     0.111 A 
HETATM    9  C   UNL     1      42.606 -14.928   5.628  1.00  0.00     0.098 A 
HETATM   10  C   UNL     1      42.331 -13.721   4.772  1.00  0.00     0.205 A 
HETATM   11  O   UNL     1      41.852 -13.815   3.646  1.00  0.00    -0.286 OA
HETATM   12  H   UNL     1      43.906 -13.494   8.295  1.00  0.00     0.167 HD
ENDROOT
BRANCH   9  13
HETATM   13  C   UNL     1      42.407 -16.337   5.164  1.00  0.00     0.261 C 
HETATM   14  N   UNL     1      43.552 -16.960   4.713  1.00  0.00    -0.323 N 
HETATM   15  H   UNL     1      44.408 -16.401   4.704  1.00  0.00     0.169 HD
HETATM   16  O   UNL     1      41.288 -16.840   5.200  1.00  0.00    -0.267 OA
BRANCH  14  17
HETATM   17  C   UNL     1      43.695 -18.290   4.267  1.00  0.00     0.037 A 
HETATM   18  C   UNL     1      43.580 -18.688   2.935  1.00  0.00     0.071 A 
HETATM   19  C   UNL     1      43.719 -20.033   2.601  1.00  0.00     0.118 A 
HETATM   20  F   UNL     1      43.597 -20.410   1.321  1.00  0.00    -0.206 F 
HETATM   21  C   UNL     1      43.978 -20.997   3.569  1.00  0.00     0.042 A 
HETATM   22  C   UNL     1      44.097 -20.610   4.900  1.00  0.00     0.005 A 
HETATM   23  C   UNL     1      43.952 -19.264   5.246  1.00  0.00     0.029 A 
ENDBRANCH  14  17
ENDBRANCH   9  13
BRANCH   4  24
HETATM   24  C   UNL     1      43.754 -10.428   8.188  1.00  0.00     0.060 A 
HETATM   25  C   UNL     1      42.825  -9.704   8.945  1.00  0.00     0.031 A 
HETATM   26  C   UNL     1      43.214  -9.103  10.147  1.00  0.00     0.002 A 
HETATM   27  C   UNL     1      44.528  -9.215  10.595  1.00  0.00     0.000 A 
HETATM   28  C   UNL     1      45.464  -9.912   9.835  1.00  0.00     0.002 A 
HETATM   29  C   UNL     1      45.084 -10.509   8.632  1.00  0.00     0.031 A 
ENDBRANCH   4  24
TORSDOF 3
ENDMDL
MODEL 2
REMARK VINA RESULT:      -9.1      3.265      8.747
REMARK  3 active torsions:
REMARK  status: ('A' for Active; 'I' for Inactive)
REMARK    1  A    between atoms: N_4  and  C_5 
REMARK    2  A    between atoms: C_15  and  C_16 
REMARK       I    between atoms: C_16  and  N_17 
REMARK    3  A    between atoms: N_17  and  C_18 
ROOT
HETATM    1  C   UNL     1      41.400 -14.470   1.154  1.00  0.00     0.073 C 
HETATM    2  C   UNL     1      42.066 -15.263   2.216  1.00  0.00     0.069 A 
HETATM    3  N   UNL     1      42.171 -16.595   2.104  1.00  0.00    -0.170 NA
HETATM    4  N   UNL     1      42.866 -17.001   3.211  1.00  0.00    -0.216 N 
HETATM    5  C   UNL     1      43.060 -15.929   4.070  1.00  0.00     0.145 A 
HETATM    6  C   UNL     1      42.600 -14.801   3.432  1.00  0.00     0.087 A 
HETATM    7  N   UNL     1      43.541 -15.902   5.337  1.00  0.00    -0.349 N 
HETATM    8  C   UNL     1      43.547 -14.689   6.006  1.00  0.00     0.111 A 
HETATM    9  C   UNL     1      43.162 -13.507   5.472  1.00  0.00     0.098 A 
HETATM   10  C   UNL     1      42.668 -13.495   4.051  1.00  0.00     0.205 A 
HETATM   11  O   UNL     1      42.338 -12.457   3.483  1.00  0.00    -0.286 OA
HETATM   12  H   UNL     1      43.651 -16.735   5.915  1.00  0.00     0.167 HD
ENDROOT
BRANCH   9  13
HETATM   13  C   UNL     1      43.214 -12.290   6.342  1.00  0.00     0.261 C 
HETATM   14  N   UNL     1      44.385 -12.145   7.058  1.00  0.00    -0.323 N 
HETATM   15  H   UNL     1      45.081 -12.887   6.957  1.00  0.00     0.169 HD
HETATM   16  O   UNL     1      42.257 -11.522   6.378  1.00  0.00    -0.267 OA
BRANCH  14  17
HETATM   17  C   UNL     1      44.751 -11.084   7.912  1.00  0.00     0.037 A 
HETATM   18  C   UNL     1      44.161 -10.836   9.151  1.00  0.00     0.071 A 
HETATM   19  C   UNL     1      44.582  -9.747   9.912  1.00  0.00     0.118 A 
HETATM   20  F   UNL     1      44.004  -9.508  11.096  1.00  0.00    -0.206 F 
HETATM   21  C   UNL     1      45.590  -8.899   9.466  1.00  0.00     0.042 A 
HETATM   22  C   UNL     1      46.187  -9.140   8.233  1.00  0.00     0.005 A 
HETATM   23  C   UNL     1      45.766 -10.226   7.459  1.00  0.00     0.029 A 
ENDBRANCH  14  17
ENDBRANCH   9  13
BRANCH   4  24
HETATM   24  C   UNL     1      43.280 -18.357   3.333  1.00  0.00     0.060 A 
HETATM   25  C   UNL     1      43.798 -18.867   4.529  1.00  0.00     0.031 A 
HETATM   26  C   UNL     1      44.194 -20.206   4.609  1.00  0.00     0.002 A 
HETATM   27  C   UNL     1      44.084 -21.039   3.497  1.00  0.00     0.000 A 
HETATM   28  C   UNL     1      43.593 -20.533   2.296  1.00  0.00     0.002 A 
HETATM   29  C   UNL     1      43.201 -19.196   2.208  1.00  0.00     0.031 A 
ENDBRANCH   4  24
TORSDOF 3
ENDMDL
MODEL 3
REMARK VINA RESULT:      -8.9      3.862      9.035
REMARK  3 active torsions:
REMARK  status: ('A' for Active; 'I' for Inactive)
REMARK    1  A    between atoms: N_4  and  C_5 
REMARK    2  A    between atoms: C_15  and  C_16 
REMARK       I    between atoms: C_16  and  N_17 
REMARK    3  A    between atoms: N_17  and  C_18 
ROOT
HETATM    1  C   UNL     1      39.692 -12.746   3.945  1.00  0.00     0.073 C 
HETATM    2  C   UNL     1      40.901 -13.521   4.319  1.00  0.00     0.069 A 
HETATM    3  N   UNL     1      41.053 -14.785   3.901  1.00  0.00    -0.170 NA
HETATM    4  N   UNL     1      42.274 -15.183   4.375  1.00  0.00    -0.216 N 
HETATM    5  C   UNL     1      42.802 -14.205   5.205  1.00  0.00     0.145 A 
HETATM    6  C   UNL     1      41.964 -13.116   5.144  1.00  0.00     0.087 A 
HETATM    7  N   UNL     1      43.890 -14.241   6.012  1.00  0.00    -0.349 N 
HETATM    8  C   UNL     1      44.146 -13.138   6.811  1.00  0.00     0.111 A 
HETATM    9  C   UNL     1      43.422 -11.995   6.809  1.00  0.00     0.098 A 
HETATM   10  C   UNL     1      42.235 -11.905   5.889  1.00  0.00     0.205 A 
HETATM   11  O   UNL     1      41.553 -10.888   5.800  1.00  0.00    -0.286 OA
HETATM   12  H   UNL     1      44.375 -15.101   6.265  1.00  0.00     0.167 HD
ENDROOT
BRANCH   9  13
HETATM   13  C   UNL     1      43.825 -10.904   7.752  1.00  0.00     0.261 C 
HETATM   14  N   UNL     1      42.843 -10.523   8.643  1.00  0.00    -0.323 N 
HETATM   15  H   UNL     1      41.937 -10.988   8.556  1.00  0.00     0.169 HD
HETATM   16  O   UNL     1      44.953 -10.422   7.683  1.00  0.00    -0.267 OA
BRANCH  14  17
HETATM   17  C   UNL     1      42.938  -9.571   9.679  1.00  0.00     0.037 A 
HETATM   18  C   UNL     1      42.792  -8.196   9.496  1.00  0.00     0.071 A 
HETATM   19  C   UNL     1      42.923  -7.336  10.584  1.00  0.00     0.118 A 
HETATM   20  F   UNL     1      42.792  -6.016  10.399  1.00  0.00    -0.206 F 
HETATM   21  C   UNL     1      43.191  -7.818  11.860  1.00  0.00     0.042 A 
HETATM   22  C   UNL     1      43.336  -9.188  12.054  1.00  0.00     0.005 A 
HETATM   23  C   UNL     1      43.213 -10.059  10.967  1.00  0.00     0.029 A 
ENDBRANCH  14  17
ENDBRANCH   9  13
BRANCH   4  24
HETATM   24  C   UNL     1      42.813 -16.441   3.984  1.00  0.00     0.060 A 
HETATM   25  C   UNL     1      43.613 -17.201   4.846  1.00  0.00     0.031 A 
HETATM   26  C   UNL     1      44.124 -18.433   4.425  1.00  0.00     0.002 A 
HETATM   27  C   UNL     1      43.848 -18.908   3.144  1.00  0.00     0.000 A 
HETATM   28  C   UNL     1      43.075 -18.146   2.272  1.00  0.00     0.002 A 
HETATM   29  C   UNL     1      42.566 -16.913   2.684  1.00  0.00     0.031 A 
ENDBRANCH   4  24
TORSDOF 3
ENDMDL
MODEL 4
REMARK VINA RESULT:      -8.7      3.665      5.353
REMARK  3 active torsions:
REMARK  status: ('A' for Active; 'I' for Inactive)
REMARK    1  A    between atoms: N_4  and  C_5 
REMARK    2  A    between atoms: C_15  and  C_16 
REMARK       I    between atoms: C_16  and  N_17 
REMARK    3  A    between atoms: N_17  and  C_18 
ROOT
HETATM    1  C   UNL     1      42.806 -15.658   7.520  1.00  0.00     0.073 C 
HETATM    2  C   UNL     1      43.207 -14.343   6.965  1.00  0.00     0.069 A 
HETATM    3  N   UNL     1      43.585 -13.348   7.780  1.00  0.00    -0.170 NA
HETATM    4  N   UNL     1      43.927 -12.310   6.957  1.00  0.00    -0.216 N 
HETATM    5  C   UNL     1      43.621 -12.626   5.642  1.00  0.00     0.145 A 
HETATM    6  C   UNL     1      43.206 -13.937   5.619  1.00  0.00     0.087 A 
HETATM    7  N   UNL     1      43.633 -11.848   4.532  1.00  0.00    -0.349 N 
HETATM    8  C   UNL     1      43.191 -12.403   3.342  1.00  0.00     0.111 A 
HETATM    9  C   UNL     1      42.800 -13.689   3.184  1.00  0.00     0.098 A 
HETATM   10  C   UNL     1      42.821 -14.593   4.387  1.00  0.00     0.205 A 
HETATM   11  O   UNL     1      42.519 -15.780   4.317  1.00  0.00    -0.286 OA
HETATM   12  H   UNL     1      43.691 -10.831   4.559  1.00  0.00     0.167 HD
ENDROOT
BRANCH   9  13
HETATM   13  C   UNL     1      42.333 -14.123   1.830  1.00  0.00     0.261 C 
HETATM   14  N   UNL     1      41.305 -13.365   1.307  1.00  0.00    -0.323 N 
HETATM   15  H   UNL     1      40.940 -12.614   1.896  1.00  0.00     0.169 HD
HETATM   16  O   UNL     1      42.859 -15.087   1.281  1.00  0.00    -0.267 OA
BRANCH  14  17
HETATM   17  C   UNL     1      40.695 -13.491   0.042  1.00  0.00     0.037 A 
HETATM   18  C   UNL     1      39.952 -14.600  -0.364  1.00  0.00     0.071 A 
HETATM   19  C   UNL     1      39.406 -14.635  -1.645  1.00  0.00     0.118 A 
HETATM   20  F   UNL     1      38.703 -15.707  -2.032  1.00  0.00    -0.206 F 
HETATM   21  C   UNL     1      39.578 -13.581  -2.534  1.00  0.00     0.042 A 
HETATM   22  C   UNL     1      40.314 -12.469  -2.139  1.00  0.00     0.005 A 
HETATM   23  C   UNL     1      40.872 -12.427  -0.858  1.00  0.00     0.029 A 
ENDBRANCH  14  17
ENDBRANCH   9  13
BRANCH   4  24
HETATM   24  C   UNL     1      44.517 -11.134   7.502  1.00  0.00     0.060 A 
HETATM   25  C   UNL     1      45.868 -10.826   7.304  1.00  0.00     0.031 A 
HETATM   26  C   UNL     1      46.410  -9.660   7.855  1.00  0.00     0.002 A 
HETATM   27  C   UNL     1      45.613  -8.804   8.612  1.00  0.00     0.000 A 
HETATM   28  C   UNL     1      44.274  -9.116   8.835  1.00  0.00     0.002 A 
HETATM   29  C   UNL     1      43.728 -10.281   8.292  1.00  0.00     0.031 A 
ENDBRANCH   4  24
TORSDOF 3
ENDMDL
MODEL 5
REMARK VINA RESULT:      -8.7      4.147      9.091
REMARK  3 active torsions:
REMARK  status: ('A' for Active; 'I' for Inactive)
REMARK    1  A    between atoms: N_4  and  C_5 
REMARK    2  A    between atoms: C_15  and  C_16 
REMARK       I    between atoms: C_16  and  N_17 
REMARK    3  A    between atoms: N_17  and  C_18 
ROOT
HETATM    1  C   UNL     1      40.802 -10.370   3.505  1.00  0.00     0.073 C 
HETATM    2  C   UNL     1      41.590 -11.551   3.933  1.00  0.00     0.069 A 
HETATM    3  N   UNL     1      41.539 -12.692   3.231  1.00  0.00    -0.170 NA
HETATM    4  N   UNL     1      42.402 -13.547   3.861  1.00  0.00    -0.216 N 
HETATM    5  C   UNL     1      42.872 -12.972   5.032  1.00  0.00     0.145 A 
HETATM    6  C   UNL     1      42.403 -11.679   5.072  1.00  0.00     0.087 A 
HETATM    7  N   UNL     1      43.602 -13.512   6.038  1.00  0.00    -0.349 N 
HETATM    8  C   UNL     1      43.863 -12.726   7.148  1.00  0.00     0.111 A 
HETATM    9  C   UNL     1      43.495 -11.431   7.286  1.00  0.00     0.098 A 
HETATM   10  C   UNL     1      42.724 -10.787   6.166  1.00  0.00     0.205 A 
HETATM   11  O   UNL     1      42.388  -9.607   6.199  1.00  0.00    -0.286 OA
HETATM   12  H   UNL     1      43.745 -14.515   6.153  1.00  0.00     0.167 HD
ENDROOT
BRANCH   9  13
HETATM   13  C   UNL     1      43.842 -10.732   8.563  1.00  0.00     0.261 C 
HETATM   14  N   UNL     1      42.804 -10.022   9.131  1.00  0.00    -0.323 N 
HETATM   15  H   UNL     1      41.920 -10.011   8.619  1.00  0.00     0.169 HD
HETATM   16  O   UNL     1      44.981 -10.815   9.016  1.00  0.00    -0.267 OA
BRANCH  14  17
HETATM   17  C   UNL     1      42.806  -9.312  10.349  1.00  0.00     0.037 A 
HETATM   18  C   UNL     1      42.734  -9.911  11.607  1.00  0.00     0.071 A 
HETATM   19  C   UNL     1      42.722  -9.117  12.751  1.00  0.00     0.118 A 
HETATM   20  F   UNL     1      42.643  -9.698  13.955  1.00  0.00    -0.206 F 
HETATM   21  C   UNL     1      42.788  -7.731  12.671  1.00  0.00     0.042 A 
HETATM   22  C   UNL     1      42.863  -7.123  11.422  1.00  0.00     0.005 A 
HETATM   23  C   UNL     1      42.868  -7.911  10.267  1.00  0.00     0.029 A 
ENDBRANCH  14  17
ENDBRANCH   9  13
BRANCH   4  24
HETATM   24  C   UNL     1      42.699 -14.813   3.280  1.00  0.00     0.060 A 
HETATM   25  C   UNL     1      43.133 -14.935   1.955  1.00  0.00     0.031 A 
HETATM   26  C   UNL     1      43.415 -16.197   1.421  1.00  0.00     0.002 A 
HETATM   27  C   UNL     1      43.257 -17.341   2.201  1.00  0.00     0.000 A 
HETATM   28  C   UNL     1      42.801 -17.231   3.512  1.00  0.00     0.002 A 
HETATM   29  C   UNL     1      42.513 -15.974   4.049  1.00  0.00     0.031 A 
ENDBRANCH   4  24
TORSDOF 3
ENDMDL
MODEL 6
REMARK VINA RESULT:      -8.5      5.242      7.102
REMARK  3 active torsions:
REMARK  status: ('A' for Active; 'I' for Inactive)
REMARK    1  A    between atoms: N_4  and  C_5 
REMARK    2  A    between atoms: C_15  and  C_16 
REMARK       I    between atoms: C_16  and  N_17 
REMARK    3  A    between atoms: N_17  and  C_18 
ROOT
HETATM    1  C   UNL     1      38.639 -14.340  -2.764  1.00  0.00     0.073 C 
HETATM    2  C   UNL     1      39.397 -13.401  -1.901  1.00  0.00     0.069 A 
HETATM    3  N   UNL     1      39.647 -12.151  -2.313  1.00  0.00    -0.170 NA
HETATM    4  N   UNL     1      40.313 -11.551  -1.278  1.00  0.00    -0.216 N 
HETATM    5  C   UNL     1      40.594 -12.483  -0.290  1.00  0.00     0.145 A 
HETATM    6  C   UNL     1      39.976 -13.659  -0.646  1.00  0.00     0.087 A 
HETATM    7  N   UNL     1      41.369 -12.375   0.816  1.00  0.00    -0.349 N 
HETATM    8  C   UNL     1      41.550 -13.504   1.598  1.00  0.00     0.111 A 
HETATM    9  C   UNL     1      40.963 -14.703   1.377  1.00  0.00     0.098 A 
HETATM   10  C   UNL     1      40.058 -14.843   0.183  1.00  0.00     0.205 A 
HETATM   11  O   UNL     1      39.458 -15.885  -0.062  1.00  0.00    -0.286 OA
HETATM   12  H   UNL     1      42.028 -11.612   0.969  1.00  0.00     0.167 HD
ENDROOT
BRANCH   9  13
HETATM   13  C   UNL     1      41.282 -15.827   2.312  1.00  0.00     0.261 C 
HETATM   14  N   UNL     1      42.497 -16.440   2.081  1.00  0.00    -0.323 N 
HETATM   15  H   UNL     1      43.040 -16.099   1.285  1.00  0.00     0.169 HD
HETATM   16  O   UNL     1      40.483 -16.137   3.191  1.00  0.00    -0.267 OA
BRANCH  14  17
HETATM   17  C   UNL     1      43.095 -17.482   2.819  1.00  0.00     0.037 A 
HETATM   18  C   UNL     1      43.230 -18.792   2.360  1.00  0.00     0.071 A 
HETATM   19  C   UNL     1      43.820 -19.753   3.177  1.00  0.00     0.118 A 
HETATM   20  F   UNL     1      43.936 -21.012   2.733  1.00  0.00    -0.206 F 
HETATM   21  C   UNL     1      44.287 -19.437   4.447  1.00  0.00     0.042 A 
HETATM   22  C   UNL     1      44.160 -18.132   4.914  1.00  0.00     0.005 A 
HETATM   23  C   UNL     1      43.563 -17.162   4.104  1.00  0.00     0.029 A 
ENDBRANCH  14  17
ENDBRANCH   9  13
BRANCH   4  24
HETATM   24  C   UNL     1      40.602 -10.158  -1.331  1.00  0.00     0.060 A 
HETATM   25  C   UNL     1      39.587  -9.193  -1.343  1.00  0.00     0.031 A 
HETATM   26  C   UNL     1      39.912  -7.834  -1.395  1.00  0.00     0.002 A 
HETATM   27  C   UNL     1      41.245  -7.431  -1.443  1.00  0.00     0.000 A 
HETATM   28  C   UNL     1      42.259  -8.385  -1.457  1.00  0.00     0.002 A 
HETATM   29  C   UNL     1      41.942  -9.744  -1.411  1.00  0.00     0.031 A 
ENDBRANCH   4  24
TORSDOF 3
ENDMDL
MODEL 7
REMARK VINA RESULT:      -8.4      4.634      6.310
REMARK  3 active torsions:
REMARK  status: ('A' for Active; 'I' for Inactive)
REMARK    1  A    between atoms: N_4  and  C_5 
REMARK    2  A    between atoms: C_15  and  C_16 
REMARK       I    between atoms: C_16  and  N_17 
REMARK    3  A    between atoms: N_17  and  C_18 
ROOT
HETATM    1  C   UNL     1      42.702 -16.109   4.911  1.00  0.00     0.073 C 
HETATM    2  C   UNL     1      42.978 -14.653   4.958  1.00  0.00     0.069 A 
HETATM    3  N   UNL     1      43.495 -14.095   6.061  1.00  0.00    -0.170 NA
HETATM    4  N   UNL     1      43.665 -12.771   5.757  1.00  0.00    -0.216 N 
HETATM    5  C   UNL     1      43.116 -12.496   4.514  1.00  0.00     0.145 A 
HETATM    6  C   UNL     1      42.716 -13.692   3.966  1.00  0.00     0.087 A 
HETATM    7  N   UNL     1      42.909 -11.308   3.895  1.00  0.00    -0.349 N 
HETATM    8  C   UNL     1      42.253 -11.314   2.675  1.00  0.00     0.111 A 
HETATM    9  C   UNL     1      41.850 -12.425   2.016  1.00  0.00     0.098 A 
HETATM   10  C   UNL     1      42.109 -13.763   2.654  1.00  0.00     0.205 A 
HETATM   11  O   UNL     1      41.809 -14.818   2.101  1.00  0.00    -0.286 OA
HETATM   12  H   UNL     1      42.962 -10.408   4.372  1.00  0.00     0.167 HD
ENDROOT
BRANCH   9  13
HETATM   13  C   UNL     1      41.137 -12.252   0.712  1.00  0.00     0.261 C 
HETATM   14  N   UNL     1      40.214 -13.237   0.426  1.00  0.00    -0.323 N 
HETATM   15  H   UNL     1      40.130 -13.999   1.102  1.00  0.00     0.169 HD
HETATM   16  O   UNL     1      41.400 -11.291  -0.006  1.00  0.00    -0.267 OA
BRANCH  14  17
HETATM   17  C   UNL     1      39.354 -13.320  -0.688  1.00  0.00     0.037 A 
HETATM   18  C   UNL     1      38.374 -12.377  -0.995  1.00  0.00     0.071 A 
HETATM   19  C   UNL     1      37.561 -12.562  -2.111  1.00  0.00     0.118 A 
HETATM   20  F   UNL     1      36.614 -11.657  -2.393  1.00  0.00    -0.206 F 
HETATM   21  C   UNL     1      37.708 -13.670  -2.938  1.00  0.00     0.042 A 
HETATM   22  C   UNL     1      38.685 -14.615  -2.643  1.00  0.00     0.005 A 
HETATM   23  C   UNL     1      39.501 -14.442  -1.521  1.00  0.00     0.029 A 
ENDBRANCH  14  17
ENDBRANCH   9  13
BRANCH   4  24
HETATM   24  C   UNL     1      44.337 -11.912   6.671  1.00  0.00     0.060 A 
HETATM   25  C   UNL     1      43.719 -11.446   7.837  1.00  0.00     0.031 A 
HETATM   26  C   UNL     1      44.413 -10.603   8.712  1.00  0.00     0.002 A 
HETATM   27  C   UNL     1      45.721 -10.216   8.425  1.00  0.00     0.000 A 
HETATM   28  C   UNL     1      46.334 -10.655   7.254  1.00  0.00     0.002 A 
HETATM   29  C   UNL     1      45.644 -11.492   6.375  1.00  0.00     0.031 A 
ENDBRANCH   4  24
TORSDOF 3
ENDMDL
MODEL 8
REMARK VINA RESULT:      -8.4      4.723      8.949
REMARK  3 active torsions:
REMARK  status: ('A' for Active; 'I' for Inactive)
REMARK    1  A    between atoms: N_4  and  C_5 
REMARK    2  A    between atoms: C_15  and  C_16 
REMARK       I    between atoms: C_16  and  N_17 
REMARK    3  A    between atoms: N_17  and  C_18 
ROOT
HETATM    1  C   UNL     1      43.279 -13.869   5.982  1.00  0.00     0.073 C 
HETATM    2  C   UNL     1      43.071 -14.890   4.926  1.00  0.00     0.069 A 
HETATM    3  N   UNL     1      43.611 -16.110   5.046  1.00  0.00    -0.170 NA
HETATM    4  N   UNL     1      43.194 -16.805   3.943  1.00  0.00    -0.216 N 
HETATM    5  C   UNL     1      42.515 -15.960   3.078  1.00  0.00     0.145 A 
HETATM    6  C   UNL     1      42.383 -14.745   3.709  1.00  0.00     0.087 A 
HETATM    7  N   UNL     1      42.080 -16.173   1.812  1.00  0.00    -0.349 N 
HETATM    8  C   UNL     1      41.499 -15.113   1.136  1.00  0.00     0.111 A 
HETATM    9  C   UNL     1      41.275 -13.886   1.661  1.00  0.00     0.098 A 
HETATM   10  C   UNL     1      41.703 -13.631   3.081  1.00  0.00     0.205 A 
HETATM   11  O   UNL     1      41.499 -12.558   3.642  1.00  0.00    -0.286 OA
HETATM   12  H   UNL     1      42.379 -16.961   1.240  1.00  0.00     0.167 HD
ENDROOT
BRANCH   9  13
HETATM   13  C   UNL     1      40.652 -12.846   0.784  1.00  0.00     0.261 C 
HETATM   14  N   UNL     1      39.359 -13.124   0.392  1.00  0.00    -0.323 N 
HETATM   15  H   UNL     1      38.966 -14.015   0.702  1.00  0.00     0.169 HD
HETATM   16  O   UNL     1      41.294 -11.848   0.468  1.00  0.00    -0.267 OA
BRANCH  14  17
HETATM   17  C   UNL     1      38.497 -12.320  -0.382  1.00  0.00     0.037 A 
HETATM   18  C   UNL     1      37.831 -11.193   0.101  1.00  0.00     0.071 A 
HETATM   19  C   UNL     1      36.985 -10.476  -0.742  1.00  0.00     0.118 A 
HETATM   20  F   UNL     1      36.341  -9.402  -0.268  1.00  0.00    -0.206 F 
HETATM   21  C   UNL     1      36.790 -10.854  -2.065  1.00  0.00     0.042 A 
HETATM   22  C   UNL     1      37.452 -11.975  -2.557  1.00  0.00     0.005 A 
HETATM   23  C   UNL     1      38.298 -12.705  -1.717  1.00  0.00     0.029 A 
ENDBRANCH  14  17
ENDBRANCH   9  13
BRANCH   4  24
HETATM   24  C   UNL     1      43.473 -18.196   3.831  1.00  0.00     0.060 A 
HETATM   25  C   UNL     1      43.916 -18.951   4.924  1.00  0.00     0.031 A 
HETATM   26  C   UNL     1      44.179 -20.316   4.774  1.00  0.00     0.002 A 
HETATM   27  C   UNL     1      44.012 -20.933   3.536  1.00  0.00     0.000 A 
HETATM   28  C   UNL     1      43.597 -20.184   2.438  1.00  0.00     0.002 A 
HETATM   29  C   UNL     1      43.337 -18.820   2.579  1.00  0.00     0.031 A 
ENDBRANCH   4  24
TORSDOF 3
ENDMDL
MODEL 9
REMARK VINA RESULT:      -8.3      4.332      8.968
REMARK  3 active torsions:
REMARK  status: ('A' for Active; 'I' for Inactive)
REMARK    1  A    between atoms: N_4  and  C_5 
REMARK    2  A    between atoms: C_15  and  C_16 
REMARK       I    between atoms: C_16  and  N_17 
REMARK    3  A    between atoms: N_17  and  C_18 
ROOT
HETATM    1  C   UNL     1      42.995 -15.326   7.711  1.00  0.00     0.073 C 
HETATM    2  C   UNL     1      43.131 -15.796   6.310  1.00  0.00     0.069 A 
HETATM    3  N   UNL     1      43.444 -17.073   6.050  1.00  0.00    -0.170 NA
HETATM    4  N   UNL     1      43.444 -17.178   4.685  1.00  0.00    -0.216 N 
HETATM    5  C   UNL     1      43.270 -15.928   4.112  1.00  0.00     0.145 A 
HETATM    6  C   UNL     1      43.020 -15.039   5.131  1.00  0.00     0.087 A 
HETATM    7  N   UNL     1      43.370 -15.539   2.817  1.00  0.00    -0.349 N 
HETATM    8  C   UNL     1      43.231 -14.192   2.528  1.00  0.00     0.111 A 
HETATM    9  C   UNL     1      42.942 -13.230   3.435  1.00  0.00     0.098 A 
HETATM   10  C   UNL     1      42.776 -13.635   4.875  1.00  0.00     0.205 A 
HETATM   11  O   UNL     1      42.475 -12.828   5.749  1.00  0.00    -0.286 OA
HETATM   12  H   UNL     1      43.794 -16.114   2.089  1.00  0.00     0.167 HD
ENDROOT
BRANCH   9  13
HETATM   13  C   UNL     1      42.844 -11.815   2.955  1.00  0.00     0.261 C 
HETATM   14  N   UNL     1      41.744 -11.551   2.166  1.00  0.00    -0.323 N 
HETATM   15  H   UNL     1      41.128 -12.338   1.956  1.00  0.00     0.169 HD
HETATM   16  O   UNL     1      43.709 -11.002   3.269  1.00  0.00    -0.267 OA
BRANCH  14  17
HETATM   17  C   UNL     1      41.352 -10.313   1.615  1.00  0.00     0.037 A 
HETATM   18  C   UNL     1      40.720  -9.299   2.335  1.00  0.00     0.071 A 
HETATM   19  C   UNL     1      40.355  -8.119   1.691  1.00  0.00     0.118 A 
HETATM   20  F   UNL     1      39.739  -7.154   2.386  1.00  0.00    -0.206 F 
HETATM   21  C   UNL     1      40.612  -7.922   0.340  1.00  0.00     0.042 A 
HETATM   22  C   UNL     1      41.245  -8.925  -0.387  1.00  0.00     0.005 A 
HETATM   23  C   UNL     1      41.609 -10.116   0.249  1.00  0.00     0.029 A 
ENDBRANCH  14  17
ENDBRANCH   9  13
BRANCH   4  24
HETATM   24  C   UNL     1      43.597 -18.453   4.070  1.00  0.00     0.060 A 
HETATM   25  C   UNL     1      43.358 -18.648   2.705  1.00  0.00     0.031 A 
HETATM   26  C   UNL     1      43.521 -19.916   2.137  1.00  0.00     0.002 A 
HETATM   27  C   UNL     1      43.914 -20.995   2.927  1.00  0.00     0.000 A 
HETATM   28  C   UNL     1      44.129 -20.814   4.291  1.00  0.00     0.002 A 
HETATM   29  C   UNL     1      43.963 -19.552   4.865  1.00  0.00     0.031 A 
ENDBRANCH   4  24
TORSDOF 3
ENDMDL
MODEL 10
REMARK VINA RESULT:      -8.3      3.025      4.298
REMARK  3 active torsions:
REMARK  status: ('A' for Active; 'I' for Inactive)
REMARK    1  A    between atoms: N_4  and  C_5 
REMARK    2  A    between atoms: C_15  and  C_16 
REMARK       I    between atoms: C_16  and  N_17 
REMARK    3  A    between atoms: N_17  and  C_18 
ROOT
HETATM    1  C   UNL     1      47.028 -10.176   7.792  1.00  0.00     0.073 C 
HETATM    2  C   UNL     1      45.640  -9.859   8.207  1.00  0.00     0.069 A 
HETATM    3  N   UNL     1      45.405  -9.234   9.369  1.00  0.00    -0.170 NA
HETATM    4  N   UNL     1      44.048  -9.058   9.422  1.00  0.00    -0.216 N 
HETATM    5  C   UNL     1      43.443  -9.705   8.355  1.00  0.00     0.145 A 
HETATM    6  C   UNL     1      44.445 -10.182   7.541  1.00  0.00     0.087 A 
HETATM    7  N   UNL     1      42.132  -9.934   8.103  1.00  0.00    -0.349 N 
HETATM    8  C   UNL     1      41.804 -10.693   6.992  1.00  0.00     0.111 A 
HETATM    9  C   UNL     1      42.693 -11.180   6.095  1.00  0.00     0.098 A 
HETATM   10  C   UNL     1      44.155 -10.902   6.319  1.00  0.00     0.205 A 
HETATM   11  O   UNL     1      45.019 -11.275   5.531  1.00  0.00    -0.286 OA
HETATM   12  H   UNL     1      41.396  -9.817   8.800  1.00  0.00     0.167 HD
ENDROOT
BRANCH   9  13
HETATM   13  C   UNL     1      42.170 -11.999   4.957  1.00  0.00     0.261 C 
HETATM   14  N   UNL     1      42.643 -13.295   4.916  1.00  0.00    -0.323 N 
HETATM   15  H   UNL     1      43.322 -13.560   5.632  1.00  0.00     0.169 HD
HETATM   16  O   UNL     1      41.388 -11.500   4.152  1.00  0.00    -0.267 OA
BRANCH  14  17
HETATM   17  C   UNL     1      42.296 -14.314   4.006  1.00  0.00     0.037 A 
HETATM   18  C   UNL     1      43.093 -14.714   2.933  1.00  0.00     0.071 A 
HETATM   19  C   UNL     1      42.649 -15.720   2.079  1.00  0.00     0.118 A 
HETATM   20  F   UNL     1      43.415 -16.092   1.045  1.00  0.00    -0.206 F 
HETATM   21  C   UNL     1      41.423 -16.346   2.273  1.00  0.00     0.042 A 
HETATM   22  C   UNL     1      40.621 -15.957   3.341  1.00  0.00     0.005 A 
HETATM   23  C   UNL     1      41.055 -14.943   4.200  1.00  0.00     0.029 A 
ENDBRANCH  14  17
ENDBRANCH   9  13
BRANCH   4  24
HETATM   24  C   UNL     1      43.471  -8.287  10.470  1.00  0.00     0.060 A 
HETATM   25  C   UNL     1      42.811  -7.078  10.220  1.00  0.00     0.031 A 
HETATM   26  C   UNL     1      42.256  -6.349  11.278  1.00  0.00     0.002 A 
HETATM   27  C   UNL     1      42.364  -6.817  12.586  1.00  0.00     0.000 A 
HETATM   28  C   UNL     1      43.042  -8.005  12.846  1.00  0.00     0.002 A 
HETATM   29  C   UNL     1      43.602  -8.734  11.795  1.00  0.00     0.031 A 
ENDBRANCH   4  24
TORSDOF 3
ENDMDL
