MODEL 1
REMARK VINA RESULT:      -9.1      0.000      0.000
REMARK  4 active torsions:
REMARK  status: ('A' for Active; 'I' for Inactive)
REMARK    1  A    between atoms: N_8  and  C_10 
REMARK    2  A    between atoms: C_10  and  C_11 
REMARK    3  A    between atoms: C_14  and  C_15 
REMARK    4  A    between atoms: C_22  and  C_23 
ROOT
HETATM    1  C   UNL     1      39.111 -13.282   2.975  1.00  0.00     0.269 C 
HETATM    2  N   UNL     1      40.345 -13.638   3.784  1.00  0.00    -0.073 N 
HETATM    3  H   UNL     1      39.997 -13.789   4.740  1.00  0.00     0.279 HD
HETATM    4  C   UNL     1      41.349 -12.512   3.772  1.00  0.00     0.244 C 
HETATM    5  C   UNL     1      42.590 -12.830   4.654  1.00  0.00    -0.013 C 
HETATM    6  C   UNL     1      43.648 -11.716   4.408  1.00  0.00     0.039 C 
HETATM    7  C   UNL     1      44.861 -11.791   5.335  1.00  0.00     0.236 C 
HETATM    8  N   UNL     1      44.424 -11.797   6.775  1.00  0.00    -0.064 N 
HETATM    9  H   UNL     1      45.288 -12.008   7.308  1.00  0.00     0.280 HD
HETATM   10  C   UNL     1      43.439 -12.874   7.103  1.00  0.00     0.236 C 
HETATM   11  C   UNL     1      42.227 -12.807   6.166  1.00  0.00     0.039 C 
HETATM   12  C   UNL     1      43.173 -14.201   4.214  1.00  0.00     0.022 C 
HETATM   13  C   UNL     1      42.127 -15.334   4.173  1.00  0.00     0.045 C 
HETATM   14  C   UNL     1      40.930 -14.951   3.293  1.00  0.00     0.243 C 
ENDROOT
BRANCH  13  15
HETATM   15  C   UNL     1      42.748 -16.641   3.722  1.00  0.00    -0.052 A 
HETATM   16  C   UNL     1      43.738 -17.247   4.512  1.00  0.00     0.007 A 
HETATM   17  C   UNL     1      44.323 -18.452   4.119  1.00  0.00     0.001 A 
HETATM   18  C   UNL     1      43.928 -19.068   2.935  1.00  0.00     0.000 A 
HETATM   19  C   UNL     1      42.947 -18.480   2.142  1.00  0.00     0.001 A 
HETATM   20  C   UNL     1      42.359 -17.275   2.531  1.00  0.00     0.007 A 
ENDBRANCH  13  15
BRANCH   8  21
HETATM   21  C   UNL     1      44.068 -10.410   7.338  1.00  0.00     0.317 C 
BRANCH  21  22
HETATM   22  C   UNL     1      44.248 -10.327   8.813  1.00  0.00     0.181 A 
HETATM   23  N   UNL     1      45.317 -10.813   9.444  1.00  0.00    -0.109 NA
HETATM   24  O   UNL     1      45.019 -10.572  10.789  1.00  0.00    -0.196 OA
HETATM   25  C   UNL     1      43.776  -9.993  10.824  1.00  0.00     0.177 A 
HETATM   26  N   UNL     1      43.247  -9.853   9.621  1.00  0.00    -0.207 NA
BRANCH  25  27
HETATM   27  C   UNL     1      43.095  -9.585  12.121  1.00  0.00     0.065 A 
HETATM   28  C   UNL     1      43.362  -8.201  12.678  1.00  0.00     0.013 A 
HETATM   29  C   UNL     1      42.033  -8.505  12.078  1.00  0.00     0.013 A 
ENDBRANCH  25  27
ENDBRANCH  21  22
ENDBRANCH   8  21
TORSDOF 4
ENDMDL
MODEL 2
REMARK VINA RESULT:      -8.7      1.476      1.992
REMARK  4 active torsions:
REMARK  status: ('A' for Active; 'I' for Inactive)
REMARK    1  A    between atoms: N_8  and  C_10 
REMARK    2  A    between atoms: C_10  and  C_11 
REMARK    3  A    between atoms: C_14  and  C_15 
REMARK    4  A    between atoms: C_22  and  C_23 
ROOT
HETATM    1  C   UNL     1      40.145 -13.509   0.389  1.00  0.00     0.269 C 
HETATM    2  N   UNL     1      40.790 -13.736   1.743  1.00  0.00    -0.073 N 
HETATM    3  H   UNL     1      40.003 -13.766   2.405  1.00  0.00     0.279 HD
HETATM    4  C   UNL     1      41.722 -12.606   2.101  1.00  0.00     0.244 C 
HETATM    5  C   UNL     1      42.338 -12.785   3.518  1.00  0.00    -0.013 C 
HETATM    6  C   UNL     1      43.433 -11.696   3.703  1.00  0.00     0.039 C 
HETATM    7  C   UNL     1      44.015 -11.630   5.115  1.00  0.00     0.236 C 
HETATM    8  N   UNL     1      42.918 -11.454   6.129  1.00  0.00    -0.064 N 
HETATM    9  H   UNL     1      43.388 -11.580   7.045  1.00  0.00     0.280 HD
HETATM   10  C   UNL     1      41.846 -12.494   6.046  1.00  0.00     0.236 C 
HETATM   11  C   UNL     1      41.270 -12.570   4.627  1.00  0.00     0.039 C 
HETATM   12  C   UNL     1      42.991 -14.192   3.600  1.00  0.00     0.022 C 
HETATM   13  C   UNL     1      42.048 -15.337   3.177  1.00  0.00     0.045 C 
HETATM   14  C   UNL     1      41.473 -15.092   1.777  1.00  0.00     0.243 C 
ENDROOT
BRANCH  13  15
HETATM   15  C   UNL     1      42.742 -16.682   3.261  1.00  0.00    -0.052 A 
HETATM   16  C   UNL     1      42.570 -17.618   2.228  1.00  0.00     0.007 A 
HETATM   17  C   UNL     1      43.199 -18.862   2.282  1.00  0.00     0.001 A 
HETATM   18  C   UNL     1      44.008 -19.190   3.367  1.00  0.00     0.000 A 
HETATM   19  C   UNL     1      44.190 -18.273   4.397  1.00  0.00     0.001 A 
HETATM   20  C   UNL     1      43.562 -17.028   4.348  1.00  0.00     0.007 A 
ENDBRANCH  13  15
BRANCH   8  21
HETATM   21  C   UNL     1      42.400 -10.011   6.264  1.00  0.00     0.317 C 
BRANCH  21  22
HETATM   22  C   UNL     1      42.915  -9.329   7.483  1.00  0.00     0.181 A 
HETATM   23  N   UNL     1      43.183  -8.025   7.529  1.00  0.00    -0.109 NA
HETATM   24  O   UNL     1      43.694  -7.858   8.821  1.00  0.00    -0.196 OA
HETATM   25  C   UNL     1      43.711  -9.099   9.404  1.00  0.00     0.177 A 
HETATM   26  N   UNL     1      43.266 -10.047   8.598  1.00  0.00    -0.207 NA
BRANCH  25  27
HETATM   27  C   UNL     1      44.210  -9.334  10.822  1.00  0.00     0.065 A 
HETATM   28  C   UNL     1      43.287  -9.014  11.980  1.00  0.00     0.013 A 
HETATM   29  C   UNL     1      43.575 -10.436  11.646  1.00  0.00     0.013 A 
ENDBRANCH  25  27
ENDBRANCH  21  22
ENDBRANCH   8  21
TORSDOF 4
ENDMDL
MODEL 3
REMARK VINA RESULT:      -8.7      4.535      7.824
REMARK  4 active torsions:
REMARK  status: ('A' for Active; 'I' for Inactive)
REMARK    1  A    between atoms: N_8  and  C_10 
REMARK    2  A    between atoms: C_10  and  C_11 
REMARK    3  A    between atoms: C_14  and  C_15 
REMARK    4  A    between atoms: C_22  and  C_23 
ROOT
HETATM    1  C   UNL     1      43.203 -15.089   7.719  1.00  0.00     0.269 C 
HETATM    2  N   UNL     1      43.147 -15.283   6.216  1.00  0.00    -0.073 N 
HETATM    3  H   UNL     1      43.956 -14.761   5.854  1.00  0.00     0.279 HD
HETATM    4  C   UNL     1      41.871 -14.720   5.640  1.00  0.00     0.244 C 
HETATM    5  C   UNL     1      41.827 -14.845   4.090  1.00  0.00    -0.013 C 
HETATM    6  C   UNL     1      40.401 -14.438   3.619  1.00  0.00     0.039 C 
HETATM    7  C   UNL     1      40.248 -14.343   2.102  1.00  0.00     0.236 C 
HETATM    8  N   UNL     1      41.281 -13.412   1.526  1.00  0.00    -0.064 N 
HETATM    9  H   UNL     1      41.200 -13.536   0.500  1.00  0.00     0.280 HD
HETATM   10  C   UNL     1      42.686 -13.766   1.896  1.00  0.00     0.236 C 
HETATM   11  C   UNL     1      42.838 -13.874   3.418  1.00  0.00     0.039 C 
HETATM   12  C   UNL     1      42.094 -16.326   3.705  1.00  0.00     0.022 C 
HETATM   13  C   UNL     1      43.370 -16.911   4.344  1.00  0.00     0.045 C 
HETATM   14  C   UNL     1      43.350 -16.747   5.869  1.00  0.00     0.243 C 
ENDROOT
BRANCH  13  15
HETATM   15  C   UNL     1      43.571 -18.360   3.947  1.00  0.00    -0.052 A 
HETATM   16  C   UNL     1      43.949 -19.300   4.920  1.00  0.00     0.007 A 
HETATM   17  C   UNL     1      44.139 -20.640   4.579  1.00  0.00     0.001 A 
HETATM   18  C   UNL     1      43.954 -21.060   3.265  1.00  0.00     0.000 A 
HETATM   19  C   UNL     1      43.577 -20.141   2.290  1.00  0.00     0.001 A 
HETATM   20  C   UNL     1      43.387 -18.800   2.626  1.00  0.00     0.007 A 
ENDBRANCH  13  15
BRANCH   8  21
HETATM   21  C   UNL     1      40.940 -11.918   1.665  1.00  0.00     0.317 C 
BRANCH  21  22
HETATM   22  C   UNL     1      41.288 -11.135   0.447  1.00  0.00     0.181 A 
HETATM   23  N   UNL     1      42.072 -10.058   0.474  1.00  0.00    -0.109 NA
HETATM   24  O   UNL     1      42.058  -9.630  -0.858  1.00  0.00    -0.196 OA
HETATM   25  C   UNL     1      41.230 -10.484  -1.541  1.00  0.00     0.177 A 
HETATM   26  N   UNL     1      40.705 -11.415  -0.762  1.00  0.00    -0.207 NA
BRANCH  25  27
HETATM   27  C   UNL     1      40.949 -10.343  -3.029  1.00  0.00     0.065 A 
HETATM   28  C   UNL     1      39.786  -9.478  -3.470  1.00  0.00     0.013 A 
HETATM   29  C   UNL     1      41.179  -8.999  -3.691  1.00  0.00     0.013 A 
ENDBRANCH  25  27
ENDBRANCH  21  22
ENDBRANCH   8  21
TORSDOF 4
ENDMDL
MODEL 4
REMARK VINA RESULT:      -8.5      4.656      8.108
REMARK  4 active torsions:
REMARK  status: ('A' for Active; 'I' for Inactive)
REMARK    1  A    between atoms: N_8  and  C_10 
REMARK    2  A    between atoms: C_10  and  C_11 
REMARK    3  A    between atoms: C_14  and  C_15 
REMARK    4  A    between atoms: C_22  and  C_23 
ROOT
HETATM    1  C   UNL     1      43.179 -15.150   7.790  1.00  0.00     0.269 C 
HETATM    2  N   UNL     1      43.187 -15.412   6.295  1.00  0.00    -0.073 N 
HETATM    3  H   UNL     1      44.020 -14.918   5.948  1.00  0.00     0.279 HD
HETATM    4  C   UNL     1      41.948 -14.861   5.637  1.00  0.00     0.244 C 
HETATM    5  C   UNL     1      41.971 -15.057   4.094  1.00  0.00    -0.013 C 
HETATM    6  C   UNL     1      40.574 -14.654   3.541  1.00  0.00     0.039 C 
HETATM    7  C   UNL     1      40.491 -14.627   2.015  1.00  0.00     0.236 C 
HETATM    8  N   UNL     1      41.562 -13.737   1.445  1.00  0.00    -0.064 N 
HETATM    9  H   UNL     1      41.526 -13.908   0.423  1.00  0.00     0.280 HD
HETATM   10  C   UNL     1      42.944 -14.091   1.895  1.00  0.00     0.236 C 
HETATM   11  C   UNL     1      43.026 -14.131   3.426  1.00  0.00     0.039 C 
HETATM   12  C   UNL     1      42.233 -16.557   3.789  1.00  0.00     0.022 C 
HETATM   13  C   UNL     1      43.470 -17.129   4.512  1.00  0.00     0.045 C 
HETATM   14  C   UNL     1      43.385 -16.894   6.026  1.00  0.00     0.243 C 
ENDROOT
BRANCH  13  15
HETATM   15  C   UNL     1      43.667 -18.597   4.191  1.00  0.00    -0.052 A 
HETATM   16  C   UNL     1      43.949 -19.502   5.227  1.00  0.00     0.007 A 
HETATM   17  C   UNL     1      44.133 -20.858   4.957  1.00  0.00     0.001 A 
HETATM   18  C   UNL     1      44.039 -21.330   3.651  1.00  0.00     0.000 A 
HETATM   19  C   UNL     1      43.759 -20.446   2.614  1.00  0.00     0.001 A 
HETATM   20  C   UNL     1      43.574 -19.089   2.879  1.00  0.00     0.007 A 
ENDBRANCH  13  15
BRANCH   8  21
HETATM   21  C   UNL     1      41.237 -12.234   1.500  1.00  0.00     0.317 C 
BRANCH  21  22
HETATM   22  C   UNL     1      40.153 -11.848   0.555  1.00  0.00     0.181 A 
HETATM   23  N   UNL     1      39.192 -10.978   0.866  1.00  0.00    -0.109 NA
HETATM   24  O   UNL     1      38.386 -10.985  -0.278  1.00  0.00    -0.196 OA
HETATM   25  C   UNL     1      38.936 -11.892  -1.146  1.00  0.00     0.177 A 
HETATM   26  N   UNL     1      40.016 -12.476  -0.656  1.00  0.00    -0.207 NA
BRANCH  25  27
HETATM   27  C   UNL     1      38.336 -12.191  -2.512  1.00  0.00     0.065 A 
HETATM   28  C   UNL     1      37.200 -13.190  -2.604  1.00  0.00     0.013 A 
HETATM   29  C   UNL     1      36.919 -11.741  -2.801  1.00  0.00     0.013 A 
ENDBRANCH  25  27
ENDBRANCH  21  22
ENDBRANCH   8  21
TORSDOF 4
ENDMDL
MODEL 5
REMARK VINA RESULT:      -8.4      2.548      3.100
REMARK  4 active torsions:
REMARK  status: ('A' for Active; 'I' for Inactive)
REMARK    1  A    between atoms: N_8  and  C_10 
REMARK    2  A    between atoms: C_10  and  C_11 
REMARK    3  A    between atoms: C_14  and  C_15 
REMARK    4  A    between atoms: C_22  and  C_23 
ROOT
HETATM    1  C   UNL     1      40.529 -14.024  -0.145  1.00  0.00     0.269 C 
HETATM    2  N   UNL     1      40.768 -14.251   1.336  1.00  0.00    -0.073 N 
HETATM    3  H   UNL     1      39.839 -14.467   1.721  1.00  0.00     0.279 HD
HETATM    4  C   UNL     1      41.324 -13.013   1.995  1.00  0.00     0.244 C 
HETATM    5  C   UNL     1      41.510 -13.203   3.528  1.00  0.00    -0.013 C 
HETATM    6  C   UNL     1      42.277 -11.965   4.073  1.00  0.00     0.039 C 
HETATM    7  C   UNL     1      42.387 -11.919   5.597  1.00  0.00     0.236 C 
HETATM    8  N   UNL     1      41.023 -12.015   6.226  1.00  0.00    -0.064 N 
HETATM    9  H   UNL     1      41.212 -12.135   7.238  1.00  0.00     0.280 HD
HETATM   10  C   UNL     1      40.238 -13.210   5.786  1.00  0.00     0.236 C 
HETATM   11  C   UNL     1      40.138 -13.264   4.257  1.00  0.00     0.039 C 
HETATM   12  C   UNL     1      42.357 -14.483   3.770  1.00  0.00     0.022 C 
HETATM   13  C   UNL     1      41.814 -15.731   3.045  1.00  0.00     0.045 C 
HETATM   14  C   UNL     1      41.649 -15.471   1.542  1.00  0.00     0.243 C 
ENDROOT
BRANCH  13  15
HETATM   15  C   UNL     1      42.687 -16.943   3.303  1.00  0.00    -0.052 A 
HETATM   16  C   UNL     1      43.392 -17.044   4.513  1.00  0.00     0.007 A 
HETATM   17  C   UNL     1      44.201 -18.151   4.775  1.00  0.00     0.001 A 
HETATM   18  C   UNL     1      44.317 -19.170   3.834  1.00  0.00     0.000 A 
HETATM   19  C   UNL     1      43.623 -19.085   2.631  1.00  0.00     0.001 A 
HETATM   20  C   UNL     1      42.813 -17.980   2.365  1.00  0.00     0.007 A 
ENDBRANCH  13  15
BRANCH   8  21
HETATM   21  C   UNL     1      40.231 -10.696   6.233  1.00  0.00     0.317 C 
BRANCH  21  22
HETATM   22  C   UNL     1      39.756 -10.320   7.592  1.00  0.00     0.181 A 
HETATM   23  N   UNL     1      38.631 -10.795   8.127  1.00  0.00    -0.109 NA
HETATM   24  O   UNL     1      38.564 -10.125   9.354  1.00  0.00    -0.196 OA
HETATM   25  C   UNL     1      39.648  -9.288   9.409  1.00  0.00     0.177 A 
HETATM   26  N   UNL     1      40.397  -9.352   8.322  1.00  0.00    -0.207 NA
BRANCH  25  27
HETATM   27  C   UNL     1      39.925  -8.378  10.596  1.00  0.00     0.065 A 
HETATM   28  C   UNL     1      40.184  -9.008  11.950  1.00  0.00     0.013 A 
HETATM   29  C   UNL     1      41.312  -8.378  11.208  1.00  0.00     0.013 A 
ENDBRANCH  25  27
ENDBRANCH  21  22
ENDBRANCH   8  21
TORSDOF 4
ENDMDL
MODEL 6
REMARK VINA RESULT:      -7.9      5.914     13.181
REMARK  4 active torsions:
REMARK  status: ('A' for Active; 'I' for Inactive)
REMARK    1  A    between atoms: N_8  and  C_10 
REMARK    2  A    between atoms: C_10  and  C_11 
REMARK    3  A    between atoms: C_14  and  C_15 
REMARK    4  A    between atoms: C_22  and  C_23 
ROOT
HETATM    1  C   UNL     1      41.698  -2.677  16.432  1.00  0.00     0.269 C 
HETATM    2  N   UNL     1      41.654  -4.192  16.359  1.00  0.00    -0.073 N 
HETATM    3  H   UNL     1      42.640  -4.481  16.323  1.00  0.00     0.279 HD
HETATM    4  C   UNL     1      40.934  -4.658  15.119  1.00  0.00     0.244 C 
HETATM    5  C   UNL     1      40.940  -6.209  14.990  1.00  0.00    -0.013 C 
HETATM    6  C   UNL     1      40.002  -6.593  13.810  1.00  0.00     0.039 C 
HETATM    7  C   UNL     1      40.036  -8.077  13.444  1.00  0.00     0.236 C 
HETATM    8  N   UNL     1      41.447  -8.518  13.163  1.00  0.00    -0.064 N 
HETATM    9  H   UNL     1      41.385  -9.550  13.084  1.00  0.00     0.280 HD
HETATM   10  C   UNL     1      42.404  -8.225  14.275  1.00  0.00     0.236 C 
HETATM   11  C   UNL     1      42.362  -6.739  14.651  1.00  0.00     0.039 C 
HETATM   12  C   UNL     1      40.388  -6.818  16.308  1.00  0.00     0.022 C 
HETATM   13  C   UNL     1      41.091  -6.291  17.575  1.00  0.00     0.045 C 
HETATM   14  C   UNL     1      41.054  -4.759  17.634  1.00  0.00     0.243 C 
ENDROOT
BRANCH  13  15
HETATM   15  C   UNL     1      40.502  -6.906  18.829  1.00  0.00    -0.052 A 
HETATM   16  C   UNL     1      39.763  -8.097  18.736  1.00  0.00     0.007 A 
HETATM   17  C   UNL     1      39.212  -8.684  19.876  1.00  0.00     0.001 A 
HETATM   18  C   UNL     1      39.390  -8.091  21.123  1.00  0.00     0.000 A 
HETATM   19  C   UNL     1      40.121  -6.912  21.232  1.00  0.00     0.001 A 
HETATM   20  C   UNL     1      40.674  -6.321  20.094  1.00  0.00     0.007 A 
ENDBRANCH  13  15
BRANCH   8  21
HETATM   21  C   UNL     1      41.962  -8.150  11.761  1.00  0.00     0.317 C 
BRANCH  21  22
HETATM   22  C   UNL     1      42.899  -9.167  11.210  1.00  0.00     0.181 A 
HETATM   23  N   UNL     1      42.852 -10.457  11.541  1.00  0.00    -0.109 NA
HETATM   24  O   UNL     1      43.940 -10.996  10.848  1.00  0.00    -0.196 OA
HETATM   25  C   UNL     1      44.551  -9.956  10.196  1.00  0.00     0.177 A 
HETATM   26  N   UNL     1      43.957  -8.796  10.419  1.00  0.00    -0.207 NA
BRANCH  25  27
HETATM   27  C   UNL     1      45.788 -10.140   9.331  1.00  0.00     0.065 A 
HETATM   28  C   UNL     1      45.609 -10.551   7.883  1.00  0.00     0.013 A 
HETATM   29  C   UNL     1      46.041  -9.162   8.201  1.00  0.00     0.013 A 
ENDBRANCH  25  27
ENDBRANCH  21  22
ENDBRANCH   8  21
TORSDOF 4
ENDMDL
MODEL 7
REMARK VINA RESULT:      -7.7      5.642      9.154
REMARK  4 active torsions:
REMARK  status: ('A' for Active; 'I' for Inactive)
REMARK    1  A    between atoms: N_8  and  C_10 
REMARK    2  A    between atoms: C_10  and  C_11 
REMARK    3  A    between atoms: C_14  and  C_15 
REMARK    4  A    between atoms: C_22  and  C_23 
ROOT
HETATM    1  C   UNL     1      38.242 -13.721  -3.142  1.00  0.00     0.269 C 
HETATM    2  N   UNL     1      39.307 -13.276  -2.157  1.00  0.00    -0.073 N 
HETATM    3  H   UNL     1      40.089 -13.928  -2.306  1.00  0.00     0.279 HD
HETATM    4  C   UNL     1      38.814 -13.378  -0.736  1.00  0.00     0.244 C 
HETATM    5  C   UNL     1      39.916 -12.994   0.293  1.00  0.00    -0.013 C 
HETATM    6  C   UNL     1      39.253 -12.926   1.699  1.00  0.00     0.039 C 
HETATM    7  C   UNL     1      40.244 -12.727   2.846  1.00  0.00     0.236 C 
HETATM    8  N   UNL     1      41.306 -13.792   2.814  1.00  0.00    -0.064 N 
HETATM    9  H   UNL     1      42.004 -13.484   3.517  1.00  0.00     0.280 HD
HETATM   10  C   UNL     1      42.024 -13.889   1.505  1.00  0.00     0.236 C 
HETATM   11  C   UNL     1      41.031 -14.076   0.351  1.00  0.00     0.039 C 
HETATM   12  C   UNL     1      40.477 -11.595  -0.082  1.00  0.00     0.022 C 
HETATM   13  C   UNL     1      40.926 -11.482  -1.553  1.00  0.00     0.045 C 
HETATM   14  C   UNL     1      39.795 -11.882  -2.510  1.00  0.00     0.243 C 
ENDROOT
BRANCH  13  15
HETATM   15  C   UNL     1      41.448 -10.094  -1.866  1.00  0.00    -0.052 A 
HETATM   16  C   UNL     1      41.229  -9.540  -3.138  1.00  0.00     0.007 A 
HETATM   17  C   UNL     1      41.699  -8.264  -3.449  1.00  0.00     0.001 A 
HETATM   18  C   UNL     1      42.393  -7.523  -2.496  1.00  0.00     0.000 A 
HETATM   19  C   UNL     1      42.617  -8.057  -1.231  1.00  0.00     0.001 A 
HETATM   20  C   UNL     1      42.149  -9.333  -0.916  1.00  0.00     0.007 A 
ENDBRANCH  13  15
BRANCH   8  21
HETATM   21  C   UNL     1      40.873 -15.143   3.408  1.00  0.00     0.317 C 
BRANCH  21  22
HETATM   22  C   UNL     1      42.010 -16.090   3.569  1.00  0.00     0.181 A 
HETATM   23  N   UNL     1      42.994 -15.903   4.449  1.00  0.00    -0.109 NA
HETATM   24  O   UNL     1      43.845 -16.983   4.196  1.00  0.00    -0.196 OA
HETATM   25  C   UNL     1      43.295 -17.690   3.158  1.00  0.00     0.177 A 
HETATM   26  N   UNL     1      42.171 -17.152   2.717  1.00  0.00    -0.207 NA
BRANCH  25  27
HETATM   27  C   UNL     1      43.937 -18.943   2.583  1.00  0.00     0.065 A 
HETATM   28  C   UNL     1      43.798 -20.246   3.344  1.00  0.00     0.013 A 
HETATM   29  C   UNL     1      43.041 -20.055   2.075  1.00  0.00     0.013 A 
ENDBRANCH  25  27
ENDBRANCH  21  22
ENDBRANCH   8  21
TORSDOF 4
ENDMDL
MODEL 8
REMARK VINA RESULT:      -7.4      4.247      8.033
REMARK  4 active torsions:
REMARK  status: ('A' for Active; 'I' for Inactive)
REMARK    1  A    between atoms: N_8  and  C_10 
REMARK    2  A    between atoms: C_10  and  C_11 
REMARK    3  A    between atoms: C_14  and  C_15 
REMARK    4  A    between atoms: C_22  and  C_23 
ROOT
HETATM    1  C   UNL     1      43.946 -12.146   7.453  1.00  0.00     0.269 C 
HETATM    2  N   UNL     1      43.509 -12.874   6.195  1.00  0.00    -0.073 N 
HETATM    3  H   UNL     1      44.170 -12.564   5.471  1.00  0.00     0.279 HD
HETATM    4  C   UNL     1      42.102 -12.495   5.806  1.00  0.00     0.244 C 
HETATM    5  C   UNL     1      41.661 -13.177   4.479  1.00  0.00    -0.013 C 
HETATM    6  C   UNL     1      40.145 -12.896   4.279  1.00  0.00     0.039 C 
HETATM    7  C   UNL     1      39.597 -13.356   2.928  1.00  0.00     0.236 C 
HETATM    8  N   UNL     1      40.398 -12.756   1.804  1.00  0.00    -0.064 N 
HETATM    9  H   UNL     1      40.059 -13.244   0.954  1.00  0.00     0.280 HD
HETATM   10  C   UNL     1      41.867 -13.023   1.900  1.00  0.00     0.236 C 
HETATM   11  C   UNL     1      42.415 -12.574   3.260  1.00  0.00     0.039 C 
HETATM   12  C   UNL     1      41.891 -14.708   4.608  1.00  0.00     0.022 C 
HETATM   13  C   UNL     1      43.316 -15.084   5.063  1.00  0.00     0.045 C 
HETATM   14  C   UNL     1      43.686 -14.372   6.370  1.00  0.00     0.243 C 
ENDROOT
BRANCH  13  15
HETATM   15  C   UNL     1      43.476 -16.586   5.188  1.00  0.00    -0.052 A 
HETATM   16  C   UNL     1      43.853 -17.339   4.064  1.00  0.00     0.007 A 
HETATM   17  C   UNL     1      44.010 -18.723   4.154  1.00  0.00     0.001 A 
HETATM   18  C   UNL     1      43.792 -19.374   5.365  1.00  0.00     0.000 A 
HETATM   19  C   UNL     1      43.420 -18.642   6.488  1.00  0.00     0.001 A 
HETATM   20  C   UNL     1      43.262 -17.258   6.403  1.00  0.00     0.007 A 
ENDBRANCH  13  15
BRANCH   8  21
HETATM   21  C   UNL     1      40.033 -11.300   1.469  1.00  0.00     0.317 C 
BRANCH  21  22
HETATM   22  C   UNL     1      40.676 -10.823   0.214  1.00  0.00     0.181 A 
HETATM   23  N   UNL     1      41.778 -10.073   0.200  1.00  0.00    -0.109 NA
HETATM   24  O   UNL     1      41.963  -9.820  -1.163  1.00  0.00    -0.196 OA
HETATM   25  C   UNL     1      40.923 -10.421  -1.825  1.00  0.00     0.177 A 
HETATM   26  N   UNL     1      40.082 -11.027  -1.005  1.00  0.00    -0.207 NA
BRANCH  25  27
HETATM   27  C   UNL     1      40.767 -10.364  -3.336  1.00  0.00     0.065 A 
HETATM   28  C   UNL     1      39.630  -9.550  -3.920  1.00  0.00     0.013 A 
HETATM   29  C   UNL     1      41.028  -9.052  -4.048  1.00  0.00     0.013 A 
ENDBRANCH  25  27
ENDBRANCH  21  22
ENDBRANCH   8  21
TORSDOF 4
ENDMDL
MODEL 9
REMARK VINA RESULT:      -7.3      7.575     10.583
REMARK  4 active torsions:
REMARK  status: ('A' for Active; 'I' for Inactive)
REMARK    1  A    between atoms: N_8  and  C_10 
REMARK    2  A    between atoms: C_10  and  C_11 
REMARK    3  A    between atoms: C_14  and  C_15 
REMARK    4  A    between atoms: C_22  and  C_23 
ROOT
HETATM    1  C   UNL     1      39.751  -5.185  10.100  1.00  0.00     0.269 C 
HETATM    2  N   UNL     1      40.462  -6.194  10.982  1.00  0.00    -0.073 N 
HETATM    3  H   UNL     1      39.785  -6.959  11.103  1.00  0.00     0.279 HD
HETATM    4  C   UNL     1      40.810  -5.597  12.323  1.00  0.00     0.244 C 
HETATM    5  C   UNL     1      41.476  -6.637  13.269  1.00  0.00    -0.013 C 
HETATM    6  C   UNL     1      41.984  -5.880  14.529  1.00  0.00     0.039 C 
HETATM    7  C   UNL     1      42.512  -6.793  15.635  1.00  0.00     0.236 C 
HETATM    8  N   UNL     1      41.473  -7.813  16.015  1.00  0.00    -0.064 N 
HETATM    9  H   UNL     1      41.972  -8.470  16.643  1.00  0.00     0.280 HD
HETATM   10  C   UNL     1      40.967  -8.618  14.861  1.00  0.00     0.236 C 
HETATM   11  C   UNL     1      40.449  -7.703  13.744  1.00  0.00     0.039 C 
HETATM   12  C   UNL     1      42.683  -7.278  12.529  1.00  0.00     0.022 C 
HETATM   13  C   UNL     1      42.331  -7.834  11.135  1.00  0.00     0.045 C 
HETATM   14  C   UNL     1      41.672  -6.760  10.260  1.00  0.00     0.243 C 
ENDROOT
BRANCH  13  15
HETATM   15  C   UNL     1      43.547  -8.431  10.455  1.00  0.00    -0.052 A 
HETATM   16  C   UNL     1      43.972  -7.918   9.219  1.00  0.00     0.007 A 
HETATM   17  C   UNL     1      45.090  -8.450   8.574  1.00  0.00     0.001 A 
HETATM   18  C   UNL     1      45.798  -9.499   9.154  1.00  0.00     0.000 A 
HETATM   19  C   UNL     1      45.390 -10.016  10.380  1.00  0.00     0.001 A 
HETATM   20  C   UNL     1      44.273  -9.488  11.028  1.00  0.00     0.007 A 
ENDBRANCH  13  15
BRANCH   8  21
HETATM   21  C   UNL     1      40.378  -7.286  16.958  1.00  0.00     0.317 C 
BRANCH  21  22
HETATM   22  C   UNL     1      40.414  -7.934  18.297  1.00  0.00     0.181 A 
HETATM   23  N   UNL     1      39.320  -8.353  18.933  1.00  0.00    -0.109 NA
HETATM   24  O   UNL     1      39.828  -8.818  20.151  1.00  0.00    -0.196 OA
HETATM   25  C   UNL     1      41.180  -8.593  20.129  1.00  0.00     0.177 A 
HETATM   26  N   UNL     1      41.582  -8.016  19.010  1.00  0.00    -0.207 NA
BRANCH  25  27
HETATM   27  C   UNL     1      42.094  -8.960  21.289  1.00  0.00     0.065 A 
HETATM   28  C   UNL     1      42.982 -10.181  21.156  1.00  0.00     0.013 A 
HETATM   29  C   UNL     1      43.593  -8.824  21.108  1.00  0.00     0.013 A 
ENDBRANCH  25  27
ENDBRANCH  21  22
ENDBRANCH   8  21
TORSDOF 4
ENDMDL
MODEL 10
REMARK VINA RESULT:      -7.3      3.143      8.848
REMARK  4 active torsions:
REMARK  status: ('A' for Active; 'I' for Inactive)
REMARK    1  A    between atoms: N_8  and  C_10 
REMARK    2  A    between atoms: C_10  and  C_11 
REMARK    3  A    between atoms: C_14  and  C_15 
REMARK    4  A    between atoms: C_22  and  C_23 
ROOT
HETATM    1  C   UNL     1      40.524  -7.162   5.096  1.00  0.00     0.269 C 
HETATM    2  N   UNL     1      41.391  -8.352   5.463  1.00  0.00    -0.073 N 
HETATM    3  H   UNL     1      42.210  -8.280   4.844  1.00  0.00     0.279 HD
HETATM    4  C   UNL     1      40.669  -9.652   5.213  1.00  0.00     0.244 C 
HETATM    5  C   UNL     1      41.567 -10.886   5.516  1.00  0.00    -0.013 C 
HETATM    6  C   UNL     1      40.675 -12.157   5.434  1.00  0.00     0.039 C 
HETATM    7  C   UNL     1      41.449 -13.471   5.539  1.00  0.00     0.236 C 
HETATM    8  N   UNL     1      42.540 -13.523   4.503  1.00  0.00    -0.064 N 
HETATM    9  H   UNL     1      43.097 -14.360   4.754  1.00  0.00     0.280 HD
HETATM   10  C   UNL     1      43.471 -12.353   4.548  1.00  0.00     0.236 C 
HETATM   11  C   UNL     1      42.695 -11.034   4.456  1.00  0.00     0.039 C 
HETATM   12  C   UNL     1      42.133 -10.744   6.956  1.00  0.00     0.022 C 
HETATM   13  C   UNL     1      42.820  -9.389   7.221  1.00  0.00     0.045 C 
HETATM   14  C   UNL     1      41.882  -8.220   6.894  1.00  0.00     0.243 C 
ENDROOT
BRANCH  13  15
HETATM   15  C   UNL     1      43.337  -9.301   8.642  1.00  0.00    -0.052 A 
HETATM   16  C   UNL     1      44.484 -10.024   9.009  1.00  0.00     0.007 A 
HETATM   17  C   UNL     1      44.981  -9.958  10.311  1.00  0.00     0.001 A 
HETATM   18  C   UNL     1      44.342  -9.171  11.264  1.00  0.00     0.000 A 
HETATM   19  C   UNL     1      43.205  -8.447  10.916  1.00  0.00     0.001 A 
HETATM   20  C   UNL     1      42.705  -8.510   9.615  1.00  0.00     0.007 A 
ENDBRANCH  13  15
BRANCH   8  21
HETATM   21  C   UNL     1      42.060 -13.905   3.092  1.00  0.00     0.317 C 
BRANCH  21  22
HETATM   22  C   UNL     1      42.210 -15.359   2.811  1.00  0.00     0.181 A 
HETATM   23  N   UNL     1      41.193 -16.138   2.442  1.00  0.00    -0.109 NA
HETATM   24  O   UNL     1      41.784 -17.403   2.362  1.00  0.00    -0.196 OA
HETATM   25  C   UNL     1      43.096 -17.253   2.728  1.00  0.00     0.177 A 
HETATM   26  N   UNL     1      43.396 -16.006   3.047  1.00  0.00    -0.207 NA
BRANCH  25  27
HETATM   27  C   UNL     1      44.076 -18.415   2.773  1.00  0.00     0.065 A 
HETATM   28  C   UNL     1      43.970 -19.412   3.909  1.00  0.00     0.013 A 
HETATM   29  C   UNL     1      43.555 -19.819   2.538  1.00  0.00     0.013 A 
ENDBRANCH  25  27
ENDBRANCH  21  22
ENDBRANCH   8  21
TORSDOF 4
ENDMDL
