MODEL 1
REMARK VINA RESULT:      -9.6      0.000      0.000
REMARK  3 active torsions:
REMARK  status: ('A' for Active; 'I' for Inactive)
REMARK    1  A    between atoms: C_6  and  C_7 
REMARK    2  A    between atoms: C_14  and  N_15 
REMARK    3  A    between atoms: N_15  and  C_16 
ROOT
HETATM    1  C   UNL     1      42.918 -12.299   5.736  1.00  0.00     0.001 A 
HETATM    2  C   UNL     1      42.849 -12.762   4.424  1.00  0.00     0.018 A 
HETATM    3  C   UNL     1      43.018 -14.140   4.129  1.00  0.00     0.039 A 
HETATM    4  C   UNL     1      43.242 -15.045   5.173  1.00  0.00     0.073 A 
HETATM    5  N   UNL     1      43.393 -16.358   4.975  1.00  0.00    -0.228 NA
HETATM    6  C   UNL     1      43.319 -16.808   3.713  1.00  0.00     0.164 A 
HETATM    7  N   UNL     1      43.106 -16.028   2.643  1.00  0.00    -0.210 NA
HETATM    8  C   UNL     1      42.963 -14.707   2.844  1.00  0.00     0.143 A 
HETATM    9  C   UNL     1      43.306 -14.559   6.474  1.00  0.00     0.032 A 
HETATM   10  C   UNL     1      43.150 -13.201   6.764  1.00  0.00     0.002 A 
ENDROOT
BRANCH   8  11
HETATM   11  N   UNL     1      42.772 -13.857   1.721  1.00  0.00    -0.340 N 
HETATM   12  H   UNL     1      43.500 -14.044   1.041  1.00  0.00     0.167 HD
BRANCH  11  13
HETATM   13  C   UNL     1      41.551 -13.504   1.104  1.00  0.00     0.036 A 
HETATM   14  C   UNL     1      40.932 -14.413   0.232  1.00  0.00     0.069 A 
HETATM   15  C   UNL     1      39.768 -14.067  -0.461  1.00  0.00     0.104 A 
HETATM   16  C   UNL     1      39.200 -12.805  -0.288  1.00  0.00     0.102 A 
HETATM   17  O   UNL     1      39.189 -15.055  -1.211  1.00  0.00    -0.348 OA
HETATM   18  O   UNL     1      38.012 -12.430  -0.850  1.00  0.00    -0.348 OA
HETATM   19  C   UNL     1      39.804 -11.890   0.570  1.00  0.00     0.042 A 
HETATM   20  C   UNL     1      38.069 -12.423  -2.277  1.00  0.00     0.178 C 
HETATM   21  C   UNL     1      37.872 -13.813  -2.859  1.00  0.00     0.053 C 
HETATM   22  C   UNL     1      39.080 -14.696  -2.589  1.00  0.00     0.178 C 
HETATM   23  C   UNL     1      40.983 -12.229   1.238  1.00  0.00     0.032 A 
ENDBRANCH  11  13
ENDBRANCH   8  11
BRANCH   6  24
HETATM   24  C   UNL     1      43.496 -18.246   3.480  1.00  0.00     0.029 A 
HETATM   25  C   UNL     1      44.025 -19.093   4.454  1.00  0.00     0.131 A 
HETATM   26  N   UNL     1      44.219 -20.431   4.311  1.00  0.00    -0.272 NA
HETATM   27  C   UNL     1      43.870 -20.967   3.124  1.00  0.00     0.116 A 
HETATM   28  C   UNL     1      43.336 -20.232   2.081  1.00  0.00     0.020 A 
HETATM   29  C   UNL     1      43.149 -18.863   2.265  1.00  0.00     0.018 A 
ENDBRANCH   6  24
TORSDOF 3
ENDMDL
MODEL 2
REMARK VINA RESULT:      -9.2      1.426      1.969
REMARK  3 active torsions:
REMARK  status: ('A' for Active; 'I' for Inactive)
REMARK    1  A    between atoms: C_6  and  C_7 
REMARK    2  A    between atoms: C_14  and  N_15 
REMARK    3  A    between atoms: N_15  and  C_16 
ROOT
HETATM    1  C   UNL     1      42.529 -12.200   6.080  1.00  0.00     0.001 A 
HETATM    2  C   UNL     1      41.832 -12.837   5.057  1.00  0.00     0.018 A 
HETATM    3  C   UNL     1      42.162 -14.161   4.666  1.00  0.00     0.039 A 
HETATM    4  C   UNL     1      43.192 -14.838   5.332  1.00  0.00     0.073 A 
HETATM    5  N   UNL     1      43.548 -16.091   5.031  1.00  0.00    -0.228 NA
HETATM    6  C   UNL     1      42.873 -16.710   4.051  1.00  0.00     0.164 A 
HETATM    7  N   UNL     1      41.871 -16.155   3.354  1.00  0.00    -0.210 NA
HETATM    8  C   UNL     1      41.520 -14.892   3.652  1.00  0.00     0.143 A 
HETATM    9  C   UNL     1      43.872 -14.181   6.350  1.00  0.00     0.032 A 
HETATM   10  C   UNL     1      43.555 -12.874   6.728  1.00  0.00     0.002 A 
ENDROOT
BRANCH   8  11
HETATM   11  N   UNL     1      40.484 -14.271   2.903  1.00  0.00    -0.340 N 
HETATM   12  H   UNL     1      40.140 -13.471   3.422  1.00  0.00     0.167 HD
BRANCH  11  13
HETATM   13  C   UNL     1      40.439 -14.055   1.507  1.00  0.00     0.036 A 
HETATM   14  C   UNL     1      40.873 -12.827   0.987  1.00  0.00     0.069 A 
HETATM   15  C   UNL     1      40.766 -12.546  -0.379  1.00  0.00     0.104 A 
HETATM   16  C   UNL     1      40.225 -13.494  -1.247  1.00  0.00     0.102 A 
HETATM   17  O   UNL     1      41.305 -11.360  -0.802  1.00  0.00    -0.348 OA
HETATM   18  O   UNL     1      40.180 -13.334  -2.604  1.00  0.00    -0.348 OA
HETATM   19  C   UNL     1      39.786 -14.716  -0.746  1.00  0.00     0.042 A 
HETATM   20  C   UNL     1      39.361 -12.229  -2.989  1.00  0.00     0.178 C 
HETATM   21  C   UNL     1      40.107 -10.908  -2.888  1.00  0.00     0.053 C 
HETATM   22  C   UNL     1      40.339 -10.521  -1.436  1.00  0.00     0.178 C 
HETATM   23  C   UNL     1      39.868 -14.981   0.623  1.00  0.00     0.032 A 
ENDBRANCH  11  13
ENDBRANCH   8  11
BRANCH   6  24
HETATM   24  C   UNL     1      43.262 -18.083   3.703  1.00  0.00     0.029 A 
HETATM   25  C   UNL     1      43.832 -18.948   4.638  1.00  0.00     0.131 A 
HETATM   26  N   UNL     1      44.218 -20.228   4.390  1.00  0.00    -0.272 NA
HETATM   27  C   UNL     1      44.031 -20.681   3.134  1.00  0.00     0.116 A 
HETATM   28  C   UNL     1      43.477 -19.920   2.121  1.00  0.00     0.020 A 
HETATM   29  C   UNL     1      43.090 -18.613   2.413  1.00  0.00     0.018 A 
ENDBRANCH   6  24
TORSDOF 3
ENDMDL
MODEL 3
REMARK VINA RESULT:      -9.2      3.666      7.046
REMARK  3 active torsions:
REMARK  status: ('A' for Active; 'I' for Inactive)
REMARK    1  A    between atoms: C_6  and  C_7 
REMARK    2  A    between atoms: C_14  and  N_15 
REMARK    3  A    between atoms: N_15  and  C_16 
ROOT
HETATM    1  C   UNL     1      39.782 -12.350   0.689  1.00  0.00     0.001 A 
HETATM    2  C   UNL     1      40.478 -12.415   1.893  1.00  0.00     0.018 A 
HETATM    3  C   UNL     1      41.123 -13.614   2.298  1.00  0.00     0.039 A 
HETATM    4  C   UNL     1      41.070 -14.738   1.465  1.00  0.00     0.073 A 
HETATM    5  N   UNL     1      41.666 -15.895   1.770  1.00  0.00    -0.228 NA
HETATM    6  C   UNL     1      42.344 -15.958   2.926  1.00  0.00     0.164 A 
HETATM    7  N   UNL     1      42.459 -14.941   3.792  1.00  0.00    -0.210 NA
HETATM    8  C   UNL     1      41.852 -13.781   3.488  1.00  0.00     0.143 A 
HETATM    9  C   UNL     1      40.369 -14.648   0.268  1.00  0.00     0.032 A 
HETATM   10  C   UNL     1      39.726 -13.472  -0.126  1.00  0.00     0.002 A 
ENDROOT
BRANCH   8  11
HETATM   11  N   UNL     1      41.931 -12.701   4.407  1.00  0.00    -0.340 N 
HETATM   12  H   UNL     1      41.092 -12.693   4.976  1.00  0.00     0.167 HD
BRANCH  11  13
HETATM   13  C   UNL     1      43.064 -12.264   5.130  1.00  0.00     0.036 A 
HETATM   14  C   UNL     1      43.004 -12.202   6.531  1.00  0.00     0.069 A 
HETATM   15  C   UNL     1      44.074 -11.697   7.276  1.00  0.00     0.104 A 
HETATM   16  C   UNL     1      45.226 -11.249   6.629  1.00  0.00     0.102 A 
HETATM   17  O   UNL     1      43.957 -11.767   8.638  1.00  0.00    -0.348 OA
HETATM   18  O   UNL     1      46.350 -10.839   7.289  1.00  0.00    -0.348 OA
HETATM   19  C   UNL     1      45.301 -11.301   5.240  1.00  0.00     0.042 A 
HETATM   20  C   UNL     1      46.112  -9.677   8.086  1.00  0.00     0.178 C 
HETATM   21  C   UNL     1      45.488 -10.027   9.426  1.00  0.00     0.053 C 
HETATM   22  C   UNL     1      44.047 -10.483   9.257  1.00  0.00     0.178 C 
HETATM   23  C   UNL     1      44.217 -11.779   4.498  1.00  0.00     0.032 A 
ENDBRANCH  11  13
ENDBRANCH   8  11
BRANCH   6  24
HETATM   24  C   UNL     1      42.993 -17.227   3.279  1.00  0.00     0.029 A 
HETATM   25  C   UNL     1      43.575 -17.436   4.530  1.00  0.00     0.131 A 
HETATM   26  N   UNL     1      44.194 -18.580   4.926  1.00  0.00    -0.272 NA
HETATM   27  C   UNL     1      44.243 -19.582   4.026  1.00  0.00     0.116 A 
HETATM   28  C   UNL     1      43.704 -19.495   2.755  1.00  0.00     0.020 A 
HETATM   29  C   UNL     1      43.074 -18.308   2.385  1.00  0.00     0.018 A 
ENDBRANCH   6  24
TORSDOF 3
ENDMDL
MODEL 4
REMARK VINA RESULT:      -9.1      3.367      7.618
REMARK  3 active torsions:
REMARK  status: ('A' for Active; 'I' for Inactive)
REMARK    1  A    between atoms: C_6  and  C_7 
REMARK    2  A    between atoms: C_14  and  N_15 
REMARK    3  A    between atoms: N_15  and  C_16 
ROOT
HETATM    1  C   UNL     1      44.277 -18.860   4.608  1.00  0.00     0.001 A 
HETATM    2  C   UNL     1      43.913 -17.566   4.970  1.00  0.00     0.018 A 
HETATM    3  C   UNL     1      43.243 -16.714   4.053  1.00  0.00     0.039 A 
HETATM    4  C   UNL     1      42.931 -17.190   2.773  1.00  0.00     0.073 A 
HETATM    5  N   UNL     1      42.288 -16.454   1.863  1.00  0.00    -0.228 NA
HETATM    6  C   UNL     1      41.929 -15.208   2.212  1.00  0.00     0.164 A 
HETATM    7  N   UNL     1      42.176 -14.658   3.410  1.00  0.00    -0.210 NA
HETATM    8  C   UNL     1      42.831 -15.398   4.321  1.00  0.00     0.143 A 
HETATM    9  C   UNL     1      43.305 -18.486   2.436  1.00  0.00     0.032 A 
HETATM   10  C   UNL     1      43.973 -19.321   3.334  1.00  0.00     0.002 A 
ENDROOT
BRANCH   8  11
HETATM   11  N   UNL     1      43.134 -14.822   5.584  1.00  0.00    -0.340 N 
HETATM   12  H   UNL     1      43.921 -15.317   5.989  1.00  0.00     0.167 HD
BRANCH  11  13
HETATM   13  C   UNL     1      43.137 -13.452   5.930  1.00  0.00     0.036 A 
HETATM   14  C   UNL     1      44.332 -12.853   6.358  1.00  0.00     0.069 A 
HETATM   15  C   UNL     1      44.357 -11.523   6.787  1.00  0.00     0.104 A 
HETATM   16  C   UNL     1      43.183 -10.768   6.792  1.00  0.00     0.102 A 
HETATM   17  O   UNL     1      45.586 -11.002   7.092  1.00  0.00    -0.348 OA
HETATM   18  O   UNL     1      43.146  -9.437   7.100  1.00  0.00    -0.348 OA
HETATM   19  C   UNL     1      41.989 -11.348   6.375  1.00  0.00     0.042 A 
HETATM   20  C   UNL     1      43.543  -9.184   8.448  1.00  0.00     0.178 C 
HETATM   21  C   UNL     1      45.055  -9.145   8.595  1.00  0.00     0.053 C 
HETATM   22  C   UNL     1      45.657 -10.532   8.439  1.00  0.00     0.178 C 
HETATM   23  C   UNL     1      41.963 -12.687   5.974  1.00  0.00     0.032 A 
ENDBRANCH  11  13
ENDBRANCH   8  11
BRANCH   6  24
HETATM   24  C   UNL     1      41.232 -14.385   1.217  1.00  0.00     0.029 A 
HETATM   25  C   UNL     1      41.445 -13.009   1.117  1.00  0.00     0.131 A 
HETATM   26  N   UNL     1      40.837 -12.184   0.224  1.00  0.00    -0.272 NA
HETATM   27  C   UNL     1      39.958 -12.754  -0.624  1.00  0.00     0.116 A 
HETATM   28  C   UNL     1      39.662 -14.106  -0.622  1.00  0.00     0.020 A 
HETATM   29  C   UNL     1      40.307 -14.922   0.306  1.00  0.00     0.018 A 
ENDBRANCH   6  24
TORSDOF 3
ENDMDL
MODEL 5
REMARK VINA RESULT:      -8.9      1.557      4.795
REMARK  3 active torsions:
REMARK  status: ('A' for Active; 'I' for Inactive)
REMARK    1  A    between atoms: C_6  and  C_7 
REMARK    2  A    between atoms: C_14  and  N_15 
REMARK    3  A    between atoms: N_15  and  C_16 
ROOT
HETATM    1  C   UNL     1      43.424 -18.279   2.771  1.00  0.00     0.001 A 
HETATM    2  C   UNL     1      43.143 -17.005   2.284  1.00  0.00     0.018 A 
HETATM    3  C   UNL     1      43.142 -15.879   3.149  1.00  0.00     0.039 A 
HETATM    4  C   UNL     1      43.444 -16.053   4.505  1.00  0.00     0.073 A 
HETATM    5  N   UNL     1      43.479 -15.040   5.376  1.00  0.00    -0.228 NA
HETATM    6  C   UNL     1      43.216 -13.810   4.908  1.00  0.00     0.164 A 
HETATM    7  N   UNL     1      42.919 -13.534   3.629  1.00  0.00    -0.210 NA
HETATM    8  C   UNL     1      42.876 -14.556   2.757  1.00  0.00     0.143 A 
HETATM    9  C   UNL     1      43.721 -17.334   4.967  1.00  0.00     0.032 A 
HETATM   10  C   UNL     1      43.712 -18.445   4.119  1.00  0.00     0.002 A 
ENDROOT
BRANCH   8  11
HETATM   11  N   UNL     1      42.529 -14.292   1.405  1.00  0.00    -0.340 N 
HETATM   12  H   UNL     1      42.871 -15.051   0.825  1.00  0.00     0.167 HD
BRANCH  11  13
HETATM   13  C   UNL     1      41.318 -13.756   0.914  1.00  0.00     0.036 A 
HETATM   14  C   UNL     1      40.638 -14.423  -0.117  1.00  0.00     0.069 A 
HETATM   15  C   UNL     1      39.481 -13.881  -0.685  1.00  0.00     0.104 A 
HETATM   16  C   UNL     1      38.983 -12.661  -0.228  1.00  0.00     0.102 A 
HETATM   17  O   UNL     1      38.839 -14.653  -1.616  1.00  0.00    -0.348 OA
HETATM   18  O   UNL     1      37.807 -12.117  -0.661  1.00  0.00    -0.348 OA
HETATM   19  C   UNL     1      39.648 -11.984   0.791  1.00  0.00     0.042 A 
HETATM   20  C   UNL     1      37.839 -11.802  -2.054  1.00  0.00     0.178 C 
HETATM   21  C   UNL     1      37.560 -13.021  -2.917  1.00  0.00     0.053 C 
HETATM   22  C   UNL     1      38.725 -13.997  -2.879  1.00  0.00     0.178 C 
HETATM   23  C   UNL     1      40.820 -12.516   1.337  1.00  0.00     0.032 A 
ENDBRANCH  11  13
ENDBRANCH   8  11
BRANCH   6  24
HETATM   24  C   UNL     1      43.240 -12.689   5.856  1.00  0.00     0.029 A 
HETATM   25  C   UNL     1      42.240 -11.716   5.874  1.00  0.00     0.131 A 
HETATM   26  N   UNL     1      42.196 -10.652   6.719  1.00  0.00    -0.272 NA
HETATM   27  C   UNL     1      43.208 -10.541   7.603  1.00  0.00     0.116 A 
HETATM   28  C   UNL     1      44.255 -11.441   7.682  1.00  0.00     0.020 A 
HETATM   29  C   UNL     1      44.266 -12.521   6.801  1.00  0.00     0.018 A 
ENDBRANCH   6  24
TORSDOF 3
ENDMDL
MODEL 6
REMARK VINA RESULT:      -8.8      2.548      3.259
REMARK  3 active torsions:
REMARK  status: ('A' for Active; 'I' for Inactive)
REMARK    1  A    between atoms: C_6  and  C_7 
REMARK    2  A    between atoms: C_14  and  N_15 
REMARK    3  A    between atoms: N_15  and  C_16 
ROOT
HETATM    1  C   UNL     1      39.219 -11.800   4.818  1.00  0.00     0.001 A 
HETATM    2  C   UNL     1      39.264 -12.570   3.659  1.00  0.00     0.018 A 
HETATM    3  C   UNL     1      40.107 -13.709   3.573  1.00  0.00     0.039 A 
HETATM    4  C   UNL     1      40.892 -14.068   4.676  1.00  0.00     0.073 A 
HETATM    5  N   UNL     1      41.697 -15.135   4.675  1.00  0.00    -0.228 NA
HETATM    6  C   UNL     1      41.736 -15.883   3.562  1.00  0.00     0.164 A 
HETATM    7  N   UNL     1      41.024 -15.629   2.454  1.00  0.00    -0.210 NA
HETATM    8  C   UNL     1      40.221 -14.551   2.454  1.00  0.00     0.143 A 
HETATM    9  C   UNL     1      40.830 -13.284   5.821  1.00  0.00     0.032 A 
HETATM   10  C   UNL     1      40.008 -12.157   5.903  1.00  0.00     0.002 A 
ENDROOT
BRANCH   8  11
HETATM   11  N   UNL     1      39.485 -14.242   1.279  1.00  0.00    -0.340 N 
HETATM   12  H   UNL     1      38.568 -13.903   1.547  1.00  0.00     0.167 HD
BRANCH  11  13
HETATM   13  C   UNL     1      39.958 -13.616   0.103  1.00  0.00     0.036 A 
HETATM   14  C   UNL     1      40.533 -12.339   0.189  1.00  0.00     0.069 A 
HETATM   15  C   UNL     1      40.936 -11.653  -0.962  1.00  0.00     0.104 A 
HETATM   16  C   UNL     1      40.773 -12.238  -2.218  1.00  0.00     0.102 A 
HETATM   17  O   UNL     1      41.574 -10.457  -0.767  1.00  0.00    -0.348 OA
HETATM   18  O   UNL     1      41.232 -11.676  -3.376  1.00  0.00    -0.348 OA
HETATM   19  C   UNL     1      40.200 -13.502  -2.320  1.00  0.00     0.042 A 
HETATM   20  C   UNL     1      40.597 -10.429  -3.659  1.00  0.00     0.178 C 
HETATM   21  C   UNL     1      41.229  -9.283  -2.887  1.00  0.00     0.053 C 
HETATM   22  C   UNL     1      40.898  -9.373  -1.405  1.00  0.00     0.178 C 
HETATM   23  C   UNL     1      39.772 -14.172  -1.170  1.00  0.00     0.032 A 
ENDBRANCH  11  13
ENDBRANCH   8  11
BRANCH   6  24
HETATM   24  C   UNL     1      42.625 -17.051   3.544  1.00  0.00     0.029 A 
HETATM   25  C   UNL     1      42.687 -17.916   2.451  1.00  0.00     0.131 A 
HETATM   26  N   UNL     1      43.482 -19.015   2.364  1.00  0.00    -0.272 NA
HETATM   27  C   UNL     1      44.266 -19.279   3.428  1.00  0.00     0.116 A 
HETATM   28  C   UNL     1      44.293 -18.498   4.569  1.00  0.00     0.020 A 
HETATM   29  C   UNL     1      43.466 -17.377   4.622  1.00  0.00     0.018 A 
ENDBRANCH   6  24
TORSDOF 3
ENDMDL
MODEL 7
REMARK VINA RESULT:      -8.6      1.686      2.221
REMARK  3 active torsions:
REMARK  status: ('A' for Active; 'I' for Inactive)
REMARK    1  A    between atoms: C_6  and  C_7 
REMARK    2  A    between atoms: C_14  and  N_15 
REMARK    3  A    between atoms: N_15  and  C_16 
ROOT
HETATM    1  C   UNL     1      39.895 -12.194   5.053  1.00  0.00     0.001 A 
HETATM    2  C   UNL     1      40.498 -12.564   3.853  1.00  0.00     0.018 A 
HETATM    3  C   UNL     1      41.149 -13.819   3.722  1.00  0.00     0.039 A 
HETATM    4  C   UNL     1      41.169 -14.700   4.810  1.00  0.00     0.073 A 
HETATM    5  N   UNL     1      41.747 -15.904   4.757  1.00  0.00    -0.228 NA
HETATM    6  C   UNL     1      42.322 -16.266   3.600  1.00  0.00     0.164 A 
HETATM    7  N   UNL     1      42.355 -15.501   2.500  1.00  0.00    -0.210 NA
HETATM    8  C   UNL     1      41.781 -14.287   2.558  1.00  0.00     0.143 A 
HETATM    9  C   UNL     1      40.560 -14.308   5.997  1.00  0.00     0.032 A 
HETATM   10  C   UNL     1      39.928 -13.068   6.129  1.00  0.00     0.002 A 
ENDROOT
BRANCH   8  11
HETATM   11  N   UNL     1      41.836 -13.445   1.415  1.00  0.00    -0.340 N 
HETATM   12  H   UNL     1      42.803 -13.350   1.124  1.00  0.00     0.167 HD
BRANCH  11  13
HETATM   13  C   UNL     1      40.949 -13.423   0.315  1.00  0.00     0.036 A 
HETATM   14  C   UNL     1      40.586 -12.192  -0.251  1.00  0.00     0.069 A 
HETATM   15  C   UNL     1      39.647 -12.125  -1.286  1.00  0.00     0.104 A 
HETATM   16  C   UNL     1      39.059 -13.292  -1.773  1.00  0.00     0.102 A 
HETATM   17  O   UNL     1      39.433 -10.889  -1.836  1.00  0.00    -0.348 OA
HETATM   18  O   UNL     1      38.213 -13.318  -2.846  1.00  0.00    -0.348 OA
HETATM   19  C   UNL     1      39.406 -14.521  -1.219  1.00  0.00     0.042 A 
HETATM   20  C   UNL     1      37.012 -12.584  -2.603  1.00  0.00     0.178 C 
HETATM   21  C   UNL     1      37.204 -11.093  -2.828  1.00  0.00     0.053 C 
HETATM   22  C   UNL     1      38.067 -10.481  -1.736  1.00  0.00     0.178 C 
HETATM   23  C   UNL     1      40.322 -14.581  -0.166  1.00  0.00     0.032 A 
ENDBRANCH  11  13
ENDBRANCH   8  11
BRANCH   6  24
HETATM   24  C   UNL     1      42.970 -17.582   3.532  1.00  0.00     0.029 A 
HETATM   25  C   UNL     1      43.665 -18.119   4.616  1.00  0.00     0.131 A 
HETATM   26  N   UNL     1      44.290 -19.327   4.627  1.00  0.00    -0.272 NA
HETATM   27  C   UNL     1      44.227 -20.049   3.490  1.00  0.00     0.116 A 
HETATM   28  C   UNL     1      43.570 -19.623   2.350  1.00  0.00     0.020 A 
HETATM   29  C   UNL     1      42.937 -18.381   2.377  1.00  0.00     0.018 A 
ENDBRANCH   6  24
TORSDOF 3
ENDMDL
MODEL 8
REMARK VINA RESULT:      -8.5      3.309      6.573
REMARK  3 active torsions:
REMARK  status: ('A' for Active; 'I' for Inactive)
REMARK    1  A    between atoms: C_6  and  C_7 
REMARK    2  A    between atoms: C_14  and  N_15 
REMARK    3  A    between atoms: N_15  and  C_16 
ROOT
HETATM    1  C   UNL     1      39.167 -12.446   0.684  1.00  0.00     0.001 A 
HETATM    2  C   UNL     1      39.513 -12.681   2.012  1.00  0.00     0.018 A 
HETATM    3  C   UNL     1      40.307 -13.802   2.371  1.00  0.00     0.039 A 
HETATM    4  C   UNL     1      40.759 -14.673   1.372  1.00  0.00     0.073 A 
HETATM    5  N   UNL     1      41.523 -15.738   1.630  1.00  0.00    -0.228 NA
HETATM    6  C   UNL     1      41.865 -15.962   2.909  1.00  0.00     0.164 A 
HETATM    7  N   UNL     1      41.488 -15.190   3.939  1.00  0.00    -0.210 NA
HETATM    8  C   UNL     1      40.713 -14.124   3.677  1.00  0.00     0.143 A 
HETATM    9  C   UNL     1      40.400 -14.417   0.054  1.00  0.00     0.032 A 
HETATM   10  C   UNL     1      39.611 -13.320  -0.299  1.00  0.00     0.002 A 
ENDROOT
BRANCH   8  11
HETATM   11  N   UNL     1      40.273 -13.312   4.758  1.00  0.00    -0.340 N 
HETATM   12  H   UNL     1      39.776 -13.894   5.423  1.00  0.00     0.167 HD
BRANCH  11  13
HETATM   13  C   UNL     1      40.979 -12.266   5.394  1.00  0.00     0.036 A 
HETATM   14  C   UNL     1      42.382 -12.273   5.377  1.00  0.00     0.069 A 
HETATM   15  C   UNL     1      43.114 -11.301   6.066  1.00  0.00     0.104 A 
HETATM   16  C   UNL     1      42.453 -10.302   6.781  1.00  0.00     0.102 A 
HETATM   17  O   UNL     1      44.474 -11.337   5.909  1.00  0.00    -0.348 OA
HETATM   18  O   UNL     1      43.094  -9.263   7.393  1.00  0.00    -0.348 OA
HETATM   19  C   UNL     1      41.061 -10.284   6.810  1.00  0.00     0.042 A 
HETATM   20  C   UNL     1      43.962  -9.705   8.438  1.00  0.00     0.178 C 
HETATM   21  C   UNL     1      45.302 -10.177   7.900  1.00  0.00     0.053 C 
HETATM   22  C   UNL     1      45.159 -11.494   7.153  1.00  0.00     0.178 C 
HETATM   23  C   UNL     1      40.333 -11.274   6.145  1.00  0.00     0.032 A 
ENDBRANCH  11  13
ENDBRANCH   8  11
BRANCH   6  24
HETATM   24  C   UNL     1      42.694 -17.136   3.208  1.00  0.00     0.029 A 
HETATM   25  C   UNL     1      42.811 -18.204   2.317  1.00  0.00     0.131 A 
HETATM   26  N   UNL     1      43.556 -19.321   2.525  1.00  0.00    -0.272 NA
HETATM   27  C   UNL     1      44.229 -19.390   3.692  1.00  0.00     0.116 A 
HETATM   28  C   UNL     1      44.192 -18.397   4.654  1.00  0.00     0.020 A 
HETATM   29  C   UNL     1      43.419 -17.263   4.405  1.00  0.00     0.018 A 
ENDBRANCH   6  24
TORSDOF 3
ENDMDL
MODEL 9
REMARK VINA RESULT:      -8.3      4.226      8.074
REMARK  3 active torsions:
REMARK  status: ('A' for Active; 'I' for Inactive)
REMARK    1  A    between atoms: C_6  and  C_7 
REMARK    2  A    between atoms: C_14  and  N_15 
REMARK    3  A    between atoms: N_15  and  C_16 
ROOT
HETATM    1  C   UNL     1      43.188 -15.582   7.523  1.00  0.00     0.001 A 
HETATM    2  C   UNL     1      43.404 -14.414   6.796  1.00  0.00     0.018 A 
HETATM    3  C   UNL     1      42.867 -14.258   5.492  1.00  0.00     0.039 A 
HETATM    4  C   UNL     1      42.096 -15.288   4.937  1.00  0.00     0.073 A 
HETATM    5  N   UNL     1      41.544 -15.206   3.723  1.00  0.00    -0.228 NA
HETATM    6  C   UNL     1      41.744 -14.078   3.024  1.00  0.00     0.164 A 
HETATM    7  N   UNL     1      42.461 -13.033   3.462  1.00  0.00    -0.210 NA
HETATM    8  C   UNL     1      43.023 -13.121   4.680  1.00  0.00     0.143 A 
HETATM    9  C   UNL     1      41.895 -16.443   5.682  1.00  0.00     0.032 A 
HETATM   10  C   UNL     1      42.432 -16.602   6.962  1.00  0.00     0.002 A 
ENDROOT
BRANCH   8  11
HETATM   11  N   UNL     1      43.816 -12.040   5.151  1.00  0.00    -0.340 N 
HETATM   12  H   UNL     1      44.247 -11.580   4.357  1.00  0.00     0.167 HD
BRANCH  11  13
HETATM   13  C   UNL     1      43.506 -11.128   6.185  1.00  0.00     0.036 A 
HETATM   14  C   UNL     1      44.480 -10.827   7.150  1.00  0.00     0.069 A 
HETATM   15  C   UNL     1      44.184  -9.994   8.235  1.00  0.00     0.104 A 
HETATM   16  C   UNL     1      42.908  -9.447   8.368  1.00  0.00     0.102 A 
HETATM   17  O   UNL     1      45.226  -9.684   9.067  1.00  0.00    -0.348 OA
HETATM   18  O   UNL     1      42.573  -8.547   9.341  1.00  0.00    -0.348 OA
HETATM   19  C   UNL     1      41.930  -9.739   7.422  1.00  0.00     0.042 A 
HETATM   20  C   UNL     1      42.682  -9.104  10.651  1.00  0.00     0.178 C 
HETATM   21  C   UNL     1      44.113  -9.077  11.161  1.00  0.00     0.053 C 
HETATM   22  C   UNL     1      44.979 -10.081  10.416  1.00  0.00     0.178 C 
HETATM   23  C   UNL     1      42.222 -10.595   6.356  1.00  0.00     0.032 A 
ENDBRANCH  11  13
ENDBRANCH   8  11
BRANCH   6  24
HETATM   24  C   UNL     1      41.153 -13.981   1.684  1.00  0.00     0.029 A 
HETATM   25  C   UNL     1      41.306 -12.844   0.890  1.00  0.00     0.131 A 
HETATM   26  N   UNL     1      40.787 -12.682  -0.357  1.00  0.00    -0.272 NA
HETATM   27  C   UNL     1      40.068 -13.709  -0.850  1.00  0.00     0.116 A 
HETATM   28  C   UNL     1      39.846 -14.887  -0.159  1.00  0.00     0.020 A 
HETATM   29  C   UNL     1      40.395 -15.019   1.115  1.00  0.00     0.018 A 
ENDBRANCH   6  24
TORSDOF 3
ENDMDL
MODEL 10
REMARK VINA RESULT:      -8.2      1.955      2.407
REMARK  3 active torsions:
REMARK  status: ('A' for Active; 'I' for Inactive)
REMARK    1  A    between atoms: C_6  and  C_7 
REMARK    2  A    between atoms: C_14  and  N_15 
REMARK    3  A    between atoms: N_15  and  C_16 
ROOT
HETATM    1  C   UNL     1      41.657 -11.038   5.743  1.00  0.00     0.001 A 
HETATM    2  C   UNL     1      40.890 -11.885   4.947  1.00  0.00     0.018 A 
HETATM    3  C   UNL     1      41.366 -13.173   4.586  1.00  0.00     0.039 A 
HETATM    4  C   UNL     1      42.616 -13.600   5.051  1.00  0.00     0.073 A 
HETATM    5  N   UNL     1      43.123 -14.804   4.767  1.00  0.00    -0.228 NA
HETATM    6  C   UNL     1      42.383 -15.625   4.007  1.00  0.00     0.164 A 
HETATM    7  N   UNL     1      41.174 -15.317   3.514  1.00  0.00    -0.210 NA
HETATM    8  C   UNL     1      40.671 -14.102   3.794  1.00  0.00     0.143 A 
HETATM    9  C   UNL     1      43.362 -12.736   5.844  1.00  0.00     0.032 A 
HETATM   10  C   UNL     1      42.899 -11.464   6.191  1.00  0.00     0.002 A 
ENDROOT
BRANCH   8  11
HETATM   11  N   UNL     1      39.408 -13.741   3.253  1.00  0.00    -0.340 N 
HETATM   12  H   UNL     1      38.778 -13.512   4.014  1.00  0.00     0.167 HD
BRANCH  11  13
HETATM   13  C   UNL     1      39.153 -12.958   2.104  1.00  0.00     0.036 A 
HETATM   14  C   UNL     1      39.837 -13.243   0.912  1.00  0.00     0.069 A 
HETATM   15  C   UNL     1      39.674 -12.441  -0.221  1.00  0.00     0.104 A 
HETATM   16  C   UNL     1      38.818 -11.340  -0.181  1.00  0.00     0.102 A 
HETATM   17  O   UNL     1      40.309 -12.857  -1.361  1.00  0.00    -0.348 OA
HETATM   18  O   UNL     1      38.529 -10.570  -1.272  1.00  0.00    -0.348 OA
HETATM   19  C   UNL     1      38.135 -11.041   0.994  1.00  0.00     0.042 A 
HETATM   20  C   UNL     1      39.683  -9.899  -1.780  1.00  0.00     0.178 C 
HETATM   21  C   UNL     1      40.516 -10.801  -2.674  1.00  0.00     0.053 C 
HETATM   22  C   UNL     1      41.220 -11.878  -1.862  1.00  0.00     0.178 C 
HETATM   23  C   UNL     1      38.323 -11.829   2.134  1.00  0.00     0.032 A 
ENDBRANCH  11  13
ENDBRANCH   8  11
BRANCH   6  24
HETATM   24  C   UNL     1      42.933 -16.946   3.678  1.00  0.00     0.029 A 
HETATM   25  C   UNL     1      42.581 -17.622   2.509  1.00  0.00     0.131 A 
HETATM   26  N   UNL     1      43.047 -18.845   2.140  1.00  0.00    -0.272 NA
HETATM   27  C   UNL     1      43.916 -19.440   2.982  1.00  0.00     0.116 A 
HETATM   28  C   UNL     1      44.340 -18.871   4.169  1.00  0.00     0.020 A 
HETATM   29  C   UNL     1      43.843 -17.615   4.514  1.00  0.00     0.018 A 
ENDBRANCH   6  24
TORSDOF 3
ENDMDL
