MODEL 1
REMARK VINA RESULT:      -8.5      0.000      0.000
REMARK  5 active torsions:
REMARK  status: ('A' for Active; 'I' for Inactive)
REMARK    1  A    between atoms: N_3  and  C_4 
REMARK    2  A    between atoms: C_7  and  C_8 
REMARK       I    between atoms: C_8  and  N_9 
REMARK    3  A    between atoms: N_9  and  C_10 
REMARK    4  A    between atoms: C_11  and  N_12 
REMARK    5  A    between atoms: C_15  and  O_16 
ROOT
HETATM    1  C   UNL     1      42.663 -15.790   2.041  1.00  0.00     0.256 C 
HETATM    2  N   UNL     1      42.217 -16.835   2.811  1.00  0.00    -0.321 N 
HETATM    3  O   UNL     1      43.758 -15.634   1.522  1.00  0.00    -0.267 OA
HETATM    4  H   UNL     1      41.260 -16.821   3.157  1.00  0.00     0.169 HD
ENDROOT
BRANCH   2   5
HETATM    5  C   UNL     1      42.900 -18.010   3.185  1.00  0.00     0.056 A 
HETATM    6  C   UNL     1      43.348 -18.059   4.533  1.00  0.00     0.037 A 
HETATM    7  C   UNL     1      44.002 -19.216   4.977  1.00  0.00     0.026 A 
HETATM    8  C   UNL     1      44.209 -20.295   4.113  1.00  0.00     0.002 A 
HETATM    9  C   UNL     1      43.770 -20.229   2.793  1.00  0.00     0.002 A 
HETATM   10  C   UNL     1      43.117 -19.086   2.326  1.00  0.00     0.031 A 
BRANCH   6  11
HETATM   11  N   UNL     1      43.145 -16.913   5.356  1.00  0.00    -0.281 NA
HETATM   12  C   UNL     1      44.395 -16.556   6.058  1.00  0.00     0.098 C 
HETATM   13  C   UNL     1      44.232 -15.160   6.661  1.00  0.00     0.046 C 
HETATM   14  C   UNL     1      43.009 -15.084   7.574  1.00  0.00     0.120 C 
HETATM   15  C   UNL     1      41.753 -15.618   6.886  1.00  0.00     0.046 C 
HETATM   16  C   UNL     1      41.997 -16.999   6.278  1.00  0.00     0.098 C 
BRANCH  14  17
HETATM   17  O   UNL     1      43.246 -15.836   8.764  1.00  0.00    -0.395 OA
HETATM   18  H   UNL     1      43.293 -16.774   8.513  1.00  0.00     0.210 HD
ENDBRANCH  14  17
ENDBRANCH   6  11
ENDBRANCH   2   5
BRANCH   1  19
HETATM   19  C   UNL     1      41.631 -14.756   1.843  1.00  0.00     0.032 A 
HETATM   20  C   UNL     1      41.988 -13.548   1.245  1.00  0.00     0.019 A 
HETATM   21  C   UNL     1      41.008 -12.582   1.012  1.00  0.00     0.031 A 
HETATM   22  C   UNL     1      39.673 -12.823   1.377  1.00  0.00     0.039 A 
HETATM   23  C   UNL     1      39.330 -14.038   1.989  1.00  0.00     0.031 A 
HETATM   24  C   UNL     1      40.310 -15.008   2.221  1.00  0.00     0.019 A 
BRANCH  22  25
HETATM   25  N   UNL     1      38.679 -11.829   1.126  1.00  0.00    -0.320 N 
HETATM   26  C   UNL     1      38.233 -10.867   2.036  1.00  0.00     0.013 A 
HETATM   27  C   UNL     1      38.829 -10.622   3.382  1.00  0.00     0.068 C 
HETATM   28  C   UNL     1      37.222 -10.139   1.441  1.00  0.00     0.027 A 
HETATM   29  C   UNL     1      37.070 -10.611   0.128  1.00  0.00     0.027 A 
HETATM   30  C   UNL     1      37.973 -11.640  -0.063  1.00  0.00     0.013 A 
HETATM   31  C   UNL     1      38.102 -12.485  -1.285  1.00  0.00     0.068 C 
ENDBRANCH  22  25
ENDBRANCH   1  19
TORSDOF 5
ENDMDL
MODEL 2
REMARK VINA RESULT:      -8.3      2.678      8.415
REMARK  5 active torsions:
REMARK  status: ('A' for Active; 'I' for Inactive)
REMARK    1  A    between atoms: N_3  and  C_4 
REMARK    2  A    between atoms: C_7  and  C_8 
REMARK       I    between atoms: C_8  and  N_9 
REMARK    3  A    between atoms: N_9  and  C_10 
REMARK    4  A    between atoms: C_11  and  N_12 
REMARK    5  A    between atoms: C_15  and  O_16 
ROOT
HETATM    1  C   UNL     1      40.539 -14.210  -0.032  1.00  0.00     0.256 C 
HETATM    2  N   UNL     1      41.182 -13.031  -0.313  1.00  0.00    -0.321 N 
HETATM    3  O   UNL     1      39.533 -14.676  -0.547  1.00  0.00    -0.267 OA
HETATM    4  H   UNL     1      42.027 -12.794   0.201  1.00  0.00     0.169 HD
ENDROOT
BRANCH   2   5
HETATM    5  C   UNL     1      40.861 -12.060  -1.283  1.00  0.00     0.056 A 
HETATM    6  C   UNL     1      40.174 -10.912  -0.803  1.00  0.00     0.037 A 
HETATM    7  C   UNL     1      39.859  -9.893  -1.712  1.00  0.00     0.026 A 
HETATM    8  C   UNL     1      40.212 -10.006  -3.060  1.00  0.00     0.002 A 
HETATM    9  C   UNL     1      40.880 -11.140  -3.517  1.00  0.00     0.002 A 
HETATM   10  C   UNL     1      41.203 -12.169  -2.630  1.00  0.00     0.031 A 
BRANCH   6  11
HETATM   11  N   UNL     1      39.804 -10.871   0.573  1.00  0.00    -0.281 NA
HETATM   12  C   UNL     1      38.400 -11.300   0.741  1.00  0.00     0.098 C 
HETATM   13  C   UNL     1      38.145 -11.554   2.227  1.00  0.00     0.046 C 
HETATM   14  C   UNL     1      38.485 -10.327   3.072  1.00  0.00     0.120 C 
HETATM   15  C   UNL     1      39.882  -9.793   2.760  1.00  0.00     0.046 C 
HETATM   16  C   UNL     1      40.079  -9.595   1.258  1.00  0.00     0.098 C 
BRANCH  14  17
HETATM   17  O   UNL     1      37.526  -9.295   2.835  1.00  0.00    -0.395 OA
HETATM   18  H   UNL     1      37.964  -8.444   3.007  1.00  0.00     0.210 HD
ENDBRANCH  14  17
ENDBRANCH   6  11
ENDBRANCH   2   5
BRANCH   1  19
HETATM   19  C   UNL     1      41.207 -14.976   1.036  1.00  0.00     0.032 A 
HETATM   20  C   UNL     1      40.446 -15.822   1.841  1.00  0.00     0.019 A 
HETATM   21  C   UNL     1      41.078 -16.585   2.824  1.00  0.00     0.031 A 
HETATM   22  C   UNL     1      42.468 -16.500   3.003  1.00  0.00     0.039 A 
HETATM   23  C   UNL     1      43.220 -15.635   2.194  1.00  0.00     0.031 A 
HETATM   24  C   UNL     1      42.589 -14.873   1.206  1.00  0.00     0.019 A 
BRANCH  22  25
HETATM   25  N   UNL     1      43.103 -17.293   4.008  1.00  0.00    -0.320 N 
HETATM   26  C   UNL     1      43.605 -18.586   3.837  1.00  0.00     0.013 A 
HETATM   27  C   UNL     1      43.696 -19.302   2.531  1.00  0.00     0.068 C 
HETATM   28  C   UNL     1      44.076 -19.035   5.055  1.00  0.00     0.027 A 
HETATM   29  C   UNL     1      43.919 -17.996   5.985  1.00  0.00     0.027 A 
HETATM   30  C   UNL     1      43.330 -16.927   5.336  1.00  0.00     0.013 A 
HETATM   31  C   UNL     1      42.905 -15.641   5.960  1.00  0.00     0.068 C 
ENDBRANCH  22  25
ENDBRANCH   1  19
TORSDOF 5
ENDMDL
MODEL 3
REMARK VINA RESULT:      -8.3      3.989      8.354
REMARK  5 active torsions:
REMARK  status: ('A' for Active; 'I' for Inactive)
REMARK    1  A    between atoms: N_3  and  C_4 
REMARK    2  A    between atoms: C_7  and  C_8 
REMARK       I    between atoms: C_8  and  N_9 
REMARK    3  A    between atoms: N_9  and  C_10 
REMARK    4  A    between atoms: C_11  and  N_12 
REMARK    5  A    between atoms: C_15  and  O_16 
ROOT
HETATM    1  C   UNL     1      40.328 -12.751   6.188  1.00  0.00     0.256 C 
HETATM    2  N   UNL     1      41.145 -11.670   6.403  1.00  0.00    -0.321 N 
HETATM    3  O   UNL     1      39.113 -12.828   6.299  1.00  0.00    -0.267 OA
HETATM    4  H   UNL     1      42.146 -11.767   6.248  1.00  0.00     0.169 HD
ENDROOT
BRANCH   2   5
HETATM    5  C   UNL     1      40.793 -10.361   6.789  1.00  0.00     0.056 A 
HETATM    6  C   UNL     1      41.826  -9.599   7.398  1.00  0.00     0.037 A 
HETATM    7  C   UNL     1      41.550  -8.277   7.771  1.00  0.00     0.026 A 
HETATM    8  C   UNL     1      40.286  -7.722   7.548  1.00  0.00     0.002 A 
HETATM    9  C   UNL     1      39.282  -8.484   6.956  1.00  0.00     0.002 A 
HETATM   10  C   UNL     1      39.532  -9.804   6.577  1.00  0.00     0.031 A 
BRANCH   6  11
HETATM   11  N   UNL     1      43.082 -10.230   7.637  1.00  0.00    -0.281 NA
HETATM   12  C   UNL     1      43.842  -9.491   8.666  1.00  0.00     0.098 C 
HETATM   13  C   UNL     1      45.013 -10.362   9.124  1.00  0.00     0.046 C 
HETATM   14  C   UNL     1      45.888 -10.786   7.946  1.00  0.00     0.120 C 
HETATM   15  C   UNL     1      45.061 -11.396   6.814  1.00  0.00     0.046 C 
HETATM   16  C   UNL     1      43.890 -10.491   6.431  1.00  0.00     0.098 C 
BRANCH  14  17
HETATM   17  O   UNL     1      46.606  -9.659   7.444  1.00  0.00    -0.395 OA
HETATM   18  H   UNL     1      45.954  -9.028   7.094  1.00  0.00     0.210 HD
ENDBRANCH  14  17
ENDBRANCH   6  11
ENDBRANCH   2   5
BRANCH   1  19
HETATM   19  C   UNL     1      41.076 -13.946   5.756  1.00  0.00     0.032 A 
HETATM   20  C   UNL     1      40.374 -15.108   5.440  1.00  0.00     0.019 A 
HETATM   21  C   UNL     1      41.071 -16.229   4.987  1.00  0.00     0.031 A 
HETATM   22  C   UNL     1      42.468 -16.188   4.852  1.00  0.00     0.039 A 
HETATM   23  C   UNL     1      43.163 -15.016   5.186  1.00  0.00     0.031 A 
HETATM   24  C   UNL     1      42.466 -13.892   5.637  1.00  0.00     0.019 A 
BRANCH  22  25
HETATM   25  N   UNL     1      43.168 -17.340   4.380  1.00  0.00    -0.320 N 
HETATM   26  C   UNL     1      43.468 -17.628   3.045  1.00  0.00     0.013 A 
HETATM   27  C   UNL     1      43.238 -16.701   1.898  1.00  0.00     0.068 C 
HETATM   28  C   UNL     1      44.089 -18.860   2.994  1.00  0.00     0.027 A 
HETATM   29  C   UNL     1      44.229 -19.325   4.310  1.00  0.00     0.027 A 
HETATM   30  C   UNL     1      43.671 -18.385   5.157  1.00  0.00     0.013 A 
HETATM   31  C   UNL     1      43.525 -18.506   6.636  1.00  0.00     0.068 C 
ENDBRANCH  22  25
ENDBRANCH   1  19
TORSDOF 5
ENDMDL
MODEL 4
REMARK VINA RESULT:      -7.9      2.591      3.261
REMARK  5 active torsions:
REMARK  status: ('A' for Active; 'I' for Inactive)
REMARK    1  A    between atoms: N_3  and  C_4 
REMARK    2  A    between atoms: C_7  and  C_8 
REMARK       I    between atoms: C_8  and  N_9 
REMARK    3  A    between atoms: N_9  and  C_10 
REMARK    4  A    between atoms: C_11  and  N_12 
REMARK    5  A    between atoms: C_15  and  O_16 
ROOT
HETATM    1  C   UNL     1      40.396 -15.279   1.660  1.00  0.00     0.256 C 
HETATM    2  N   UNL     1      41.752 -15.421   1.817  1.00  0.00    -0.321 N 
HETATM    3  O   UNL     1      39.493 -15.889   2.213  1.00  0.00    -0.267 OA
HETATM    4  H   UNL     1      42.377 -14.817   1.289  1.00  0.00     0.169 HD
ENDROOT
BRANCH   2   5
HETATM    5  C   UNL     1      42.455 -16.295   2.671  1.00  0.00     0.056 A 
HETATM    6  C   UNL     1      42.503 -15.912   4.039  1.00  0.00     0.037 A 
HETATM    7  C   UNL     1      43.155 -16.757   4.947  1.00  0.00     0.026 A 
HETATM    8  C   UNL     1      43.746 -17.948   4.514  1.00  0.00     0.002 A 
HETATM    9  C   UNL     1      43.697 -18.306   3.169  1.00  0.00     0.002 A 
HETATM   10  C   UNL     1      43.053 -17.480   2.245  1.00  0.00     0.031 A 
BRANCH   6  11
HETATM   11  N   UNL     1      41.918 -14.667   4.415  1.00  0.00    -0.281 NA
HETATM   12  C   UNL     1      42.935 -13.596   4.399  1.00  0.00     0.098 C 
HETATM   13  C   UNL     1      42.220 -12.247   4.484  1.00  0.00     0.046 C 
HETATM   14  C   UNL     1      41.312 -12.170   5.710  1.00  0.00     0.120 C 
HETATM   15  C   UNL     1      40.380 -13.378   5.803  1.00  0.00     0.046 C 
HETATM   16  C   UNL     1      41.156 -14.689   5.677  1.00  0.00     0.098 C 
BRANCH  14  17
HETATM   17  O   UNL     1      42.104 -12.099   6.896  1.00  0.00    -0.395 OA
HETATM   18  H   UNL     1      42.979 -12.468   6.686  1.00  0.00     0.210 HD
ENDBRANCH  14  17
ENDBRANCH   6  11
ENDBRANCH   2   5
BRANCH   1  19
HETATM   19  C   UNL     1      40.049 -14.225   0.690  1.00  0.00     0.032 A 
HETATM   20  C   UNL     1      39.657 -12.972   1.161  1.00  0.00     0.019 A 
HETATM   21  C   UNL     1      39.371 -11.955   0.249  1.00  0.00     0.031 A 
HETATM   22  C   UNL     1      39.474 -12.191  -1.132  1.00  0.00     0.039 A 
HETATM   23  C   UNL     1      39.857 -13.460  -1.592  1.00  0.00     0.031 A 
HETATM   24  C   UNL     1      40.148 -14.479  -0.680  1.00  0.00     0.019 A 
BRANCH  22  25
HETATM   25  N   UNL     1      39.186 -11.139  -2.054  1.00  0.00    -0.320 N 
HETATM   26  C   UNL     1      40.033 -10.076  -2.376  1.00  0.00     0.013 A 
HETATM   27  C   UNL     1      41.448  -9.941  -1.921  1.00  0.00     0.068 C 
HETATM   28  C   UNL     1      39.368  -9.237  -3.248  1.00  0.00     0.027 A 
HETATM   29  C   UNL     1      38.115  -9.807  -3.519  1.00  0.00     0.027 A 
HETATM   30  C   UNL     1      38.011 -10.978  -2.792  1.00  0.00     0.013 A 
HETATM   31  C   UNL     1      36.816 -11.865  -2.712  1.00  0.00     0.068 C 
ENDBRANCH  22  25
ENDBRANCH   1  19
TORSDOF 5
ENDMDL
MODEL 5
REMARK VINA RESULT:      -7.9      4.742      7.116
REMARK  5 active torsions:
REMARK  status: ('A' for Active; 'I' for Inactive)
REMARK    1  A    between atoms: N_3  and  C_4 
REMARK    2  A    between atoms: C_7  and  C_8 
REMARK       I    between atoms: C_8  and  N_9 
REMARK    3  A    between atoms: N_9  and  C_10 
REMARK    4  A    between atoms: C_11  and  N_12 
REMARK    5  A    between atoms: C_15  and  O_16 
ROOT
HETATM    1  C   UNL     1      43.523 -11.758   4.732  1.00  0.00     0.256 C 
HETATM    2  N   UNL     1      42.586 -12.754   4.612  1.00  0.00    -0.321 N 
HETATM    3  O   UNL     1      44.391 -11.422   3.941  1.00  0.00    -0.267 OA
HETATM    4  H   UNL     1      41.915 -12.895   5.363  1.00  0.00     0.169 HD
ENDROOT
BRANCH   2   5
HETATM    5  C   UNL     1      42.370 -13.635   3.533  1.00  0.00     0.056 A 
HETATM    6  C   UNL     1      42.545 -15.016   3.822  1.00  0.00     0.037 A 
HETATM    7  C   UNL     1      42.309 -15.946   2.801  1.00  0.00     0.026 A 
HETATM    8  C   UNL     1      41.911 -15.524   1.529  1.00  0.00     0.002 A 
HETATM    9  C   UNL     1      41.750 -14.167   1.260  1.00  0.00     0.002 A 
HETATM   10  C   UNL     1      41.981 -13.221   2.260  1.00  0.00     0.031 A 
BRANCH   6  11
HETATM   11  N   UNL     1      42.991 -15.384   5.124  1.00  0.00    -0.281 NA
HETATM   12  C   UNL     1      44.065 -16.394   5.034  1.00  0.00     0.098 C 
HETATM   13  C   UNL     1      44.732 -16.519   6.405  1.00  0.00     0.046 C 
HETATM   14  C   UNL     1      43.712 -16.848   7.494  1.00  0.00     0.120 C 
HETATM   15  C   UNL     1      42.520 -15.893   7.464  1.00  0.00     0.046 C 
HETATM   16  C   UNL     1      41.926 -15.791   6.059  1.00  0.00     0.098 C 
BRANCH  14  17
HETATM   17  O   UNL     1      43.244 -18.187   7.330  1.00  0.00    -0.395 OA
HETATM   18  H   UNL     1      44.016 -18.776   7.383  1.00  0.00     0.210 HD
ENDBRANCH  14  17
ENDBRANCH   6  11
ENDBRANCH   2   5
BRANCH   1  19
HETATM   19  C   UNL     1      43.404 -11.025   6.006  1.00  0.00     0.032 A 
HETATM   20  C   UNL     1      44.560 -10.731   6.729  1.00  0.00     0.019 A 
HETATM   21  C   UNL     1      44.461  -9.998   7.912  1.00  0.00     0.031 A 
HETATM   22  C   UNL     1      43.208  -9.560   8.373  1.00  0.00     0.039 A 
HETATM   23  C   UNL     1      42.053  -9.874   7.642  1.00  0.00     0.031 A 
HETATM   24  C   UNL     1      42.150 -10.605   6.455  1.00  0.00     0.019 A 
BRANCH  22  25
HETATM   25  N   UNL     1      43.122  -8.804   9.582  1.00  0.00    -0.320 N 
HETATM   26  C   UNL     1      42.858  -7.435   9.675  1.00  0.00     0.013 A 
HETATM   27  C   UNL     1      42.471  -6.558   8.531  1.00  0.00     0.068 C 
HETATM   28  C   UNL     1      42.927  -7.067  11.004  1.00  0.00     0.027 A 
HETATM   29  C   UNL     1      43.182  -8.224  11.756  1.00  0.00     0.027 A 
HETATM   30  C   UNL     1      43.292  -9.288  10.880  1.00  0.00     0.013 A 
HETATM   31  C   UNL     1      43.642 -10.693  11.237  1.00  0.00     0.068 C 
ENDBRANCH  22  25
ENDBRANCH   1  19
TORSDOF 5
ENDMDL
MODEL 6
REMARK VINA RESULT:      -7.9      3.152      9.067
REMARK  5 active torsions:
REMARK  status: ('A' for Active; 'I' for Inactive)
REMARK    1  A    between atoms: N_3  and  C_4 
REMARK    2  A    between atoms: C_7  and  C_8 
REMARK       I    between atoms: C_8  and  N_9 
REMARK    3  A    between atoms: N_9  and  C_10 
REMARK    4  A    between atoms: C_11  and  N_12 
REMARK    5  A    between atoms: C_15  and  O_16 
ROOT
HETATM    1  C   UNL     1      40.694 -11.319   1.222  1.00  0.00     0.256 C 
HETATM    2  N   UNL     1      41.479 -11.111   0.117  1.00  0.00    -0.321 N 
HETATM    3  O   UNL     1      39.695 -10.711   1.579  1.00  0.00    -0.267 OA
HETATM    4  H   UNL     1      42.275 -11.724  -0.047  1.00  0.00     0.169 HD
ENDROOT
BRANCH   2   5
HETATM    5  C   UNL     1      41.326 -10.155  -0.908  1.00  0.00     0.056 A 
HETATM    6  C   UNL     1      40.474 -10.533  -1.980  1.00  0.00     0.037 A 
HETATM    7  C   UNL     1      40.251  -9.612  -3.012  1.00  0.00     0.026 A 
HETATM    8  C   UNL     1      40.856  -8.352  -2.986  1.00  0.00     0.002 A 
HETATM    9  C   UNL     1      41.694  -7.999  -1.931  1.00  0.00     0.002 A 
HETATM   10  C   UNL     1      41.932  -8.900  -0.892  1.00  0.00     0.031 A 
BRANCH   6  11
HETATM   11  N   UNL     1      39.918 -11.846  -1.974  1.00  0.00    -0.281 NA
HETATM   12  C   UNL     1      40.683 -12.733  -2.874  1.00  0.00     0.098 C 
HETATM   13  C   UNL     1      40.272 -14.179  -2.594  1.00  0.00     0.046 C 
HETATM   14  C   UNL     1      38.762 -14.369  -2.735  1.00  0.00     0.120 C 
HETATM   15  C   UNL     1      37.982 -13.330  -1.929  1.00  0.00     0.046 C 
HETATM   16  C   UNL     1      38.468 -11.913  -2.231  1.00  0.00     0.098 C 
BRANCH  14  17
HETATM   17  O   UNL     1      38.387 -14.271  -4.109  1.00  0.00    -0.395 OA
HETATM   18  H   UNL     1      37.808 -15.027  -4.309  1.00  0.00     0.210 HD
ENDBRANCH  14  17
ENDBRANCH   6  11
ENDBRANCH   2   5
BRANCH   1  19
HETATM   19  C   UNL     1      41.166 -12.449   2.045  1.00  0.00     0.032 A 
HETATM   20  C   UNL     1      40.299 -13.511   2.297  1.00  0.00     0.019 A 
HETATM   21  C   UNL     1      40.753 -14.605   3.036  1.00  0.00     0.031 A 
HETATM   22  C   UNL     1      42.070 -14.636   3.523  1.00  0.00     0.039 A 
HETATM   23  C   UNL     1      42.927 -13.553   3.272  1.00  0.00     0.031 A 
HETATM   24  C   UNL     1      42.475 -12.458   2.529  1.00  0.00     0.019 A 
BRANCH  22  25
HETATM   25  N   UNL     1      42.523 -15.765   4.271  1.00  0.00    -0.320 N 
HETATM   26  C   UNL     1      43.056 -16.941   3.737  1.00  0.00     0.013 A 
HETATM   27  C   UNL     1      43.380 -17.157   2.297  1.00  0.00     0.068 C 
HETATM   28  C   UNL     1      43.308 -17.815   4.776  1.00  0.00     0.027 A 
HETATM   29  C   UNL     1      42.983 -17.163   5.974  1.00  0.00     0.027 A 
HETATM   30  C   UNL     1      42.511 -15.902   5.660  1.00  0.00     0.013 A 
HETATM   31  C   UNL     1      41.974 -14.895   6.620  1.00  0.00     0.068 C 
ENDBRANCH  22  25
ENDBRANCH   1  19
TORSDOF 5
ENDMDL
MODEL 7
REMARK VINA RESULT:      -7.6      4.558      6.679
REMARK  5 active torsions:
REMARK  status: ('A' for Active; 'I' for Inactive)
REMARK    1  A    between atoms: N_3  and  C_4 
REMARK    2  A    between atoms: C_7  and  C_8 
REMARK       I    between atoms: C_8  and  N_9 
REMARK    3  A    between atoms: N_9  and  C_10 
REMARK    4  A    between atoms: C_11  and  N_12 
REMARK    5  A    between atoms: C_15  and  O_16 
ROOT
HETATM    1  C   UNL     1      40.216 -12.607   5.348  1.00  0.00     0.256 C 
HETATM    2  N   UNL     1      41.117 -13.063   4.419  1.00  0.00    -0.321 N 
HETATM    3  O   UNL     1      39.077 -12.993   5.565  1.00  0.00    -0.267 OA
HETATM    4  H   UNL     1      42.042 -12.641   4.377  1.00  0.00     0.169 HD
ENDROOT
BRANCH   2   5
HETATM    5  C   UNL     1      40.969 -14.109   3.485  1.00  0.00     0.056 A 
HETATM    6  C   UNL     1      41.525 -15.359   3.868  1.00  0.00     0.037 A 
HETATM    7  C   UNL     1      41.379 -16.449   3.000  1.00  0.00     0.026 A 
HETATM    8  C   UNL     1      40.702 -16.307   1.785  1.00  0.00     0.002 A 
HETATM    9  C   UNL     1      40.168 -15.073   1.421  1.00  0.00     0.002 A 
HETATM   10  C   UNL     1      40.302 -13.972   2.268  1.00  0.00     0.031 A 
BRANCH   6  11
HETATM   11  N   UNL     1      42.239 -15.434   5.100  1.00  0.00    -0.281 NA
HETATM   12  C   UNL     1      43.473 -16.228   4.931  1.00  0.00     0.098 C 
HETATM   13  C   UNL     1      44.359 -16.015   6.160  1.00  0.00     0.046 C 
HETATM   14  C   UNL     1      43.617 -16.357   7.451  1.00  0.00     0.120 C 
HETATM   15  C   UNL     1      42.261 -15.658   7.530  1.00  0.00     0.046 C 
HETATM   16  C   UNL     1      41.444 -15.884   6.258  1.00  0.00     0.098 C 
BRANCH  14  17
HETATM   17  O   UNL     1      43.421 -17.769   7.537  1.00  0.00    -0.395 OA
HETATM   18  H   UNL     1      42.839 -17.938   8.297  1.00  0.00     0.210 HD
ENDBRANCH  14  17
ENDBRANCH   6  11
ENDBRANCH   2   5
BRANCH   1  19
HETATM   19  C   UNL     1      40.762 -11.512   6.171  1.00  0.00     0.032 A 
HETATM   20  C   UNL     1      39.883 -10.694   6.880  1.00  0.00     0.019 A 
HETATM   21  C   UNL     1      40.394  -9.684   7.697  1.00  0.00     0.031 A 
HETATM   22  C   UNL     1      41.781  -9.492   7.804  1.00  0.00     0.039 A 
HETATM   23  C   UNL     1      42.653 -10.315   7.076  1.00  0.00     0.031 A 
HETATM   24  C   UNL     1      42.143 -11.328   6.259  1.00  0.00     0.019 A 
BRANCH  22  25
HETATM   25  N   UNL     1      42.290  -8.460   8.650  1.00  0.00    -0.320 N 
HETATM   26  C   UNL     1      42.466  -7.120   8.294  1.00  0.00     0.013 A 
HETATM   27  C   UNL     1      42.010  -6.509   7.011  1.00  0.00     0.068 C 
HETATM   28  C   UNL     1      43.043  -6.458   9.360  1.00  0.00     0.027 A 
HETATM   29  C   UNL     1      43.179  -7.376  10.412  1.00  0.00     0.027 A 
HETATM   30  C   UNL     1      42.707  -8.600   9.975  1.00  0.00     0.013 A 
HETATM   31  C   UNL     1      42.737  -9.881  10.738  1.00  0.00     0.068 C 
ENDBRANCH  22  25
ENDBRANCH   1  19
TORSDOF 5
ENDMDL
MODEL 8
REMARK VINA RESULT:      -7.5      3.376      4.306
REMARK  5 active torsions:
REMARK  status: ('A' for Active; 'I' for Inactive)
REMARK    1  A    between atoms: N_3  and  C_4 
REMARK    2  A    between atoms: C_7  and  C_8 
REMARK       I    between atoms: C_8  and  N_9 
REMARK    3  A    between atoms: N_9  and  C_10 
REMARK    4  A    between atoms: C_11  and  N_12 
REMARK    5  A    between atoms: C_15  and  O_16 
ROOT
HETATM    1  C   UNL     1      40.977 -13.949   0.526  1.00  0.00     0.256 C 
HETATM    2  N   UNL     1      42.095 -14.053   1.315  1.00  0.00    -0.321 N 
HETATM    3  O   UNL     1      40.121 -14.790   0.293  1.00  0.00    -0.267 OA
HETATM    4  H   UNL     1      42.704 -13.246   1.420  1.00  0.00     0.169 HD
ENDROOT
BRANCH   2   5
HETATM    5  C   UNL     1      42.536 -15.153   2.078  1.00  0.00     0.056 A 
HETATM    6  C   UNL     1      42.287 -15.072   3.475  1.00  0.00     0.037 A 
HETATM    7  C   UNL     1      42.669 -16.151   4.285  1.00  0.00     0.026 A 
HETATM    8  C   UNL     1      43.281 -17.278   3.729  1.00  0.00     0.002 A 
HETATM    9  C   UNL     1      43.525 -17.339   2.359  1.00  0.00     0.002 A 
HETATM   10  C   UNL     1      43.155 -16.277   1.532  1.00  0.00     0.031 A 
BRANCH   6  11
HETATM   11  N   UNL     1      41.697 -13.882   3.990  1.00  0.00    -0.281 NA
HETATM   12  C   UNL     1      42.342 -13.496   5.262  1.00  0.00     0.098 C 
HETATM   13  C   UNL     1      41.919 -12.068   5.608  1.00  0.00     0.046 C 
HETATM   14  C   UNL     1      40.398 -11.933   5.662  1.00  0.00     0.120 C 
HETATM   15  C   UNL     1      39.733 -12.496   4.406  1.00  0.00     0.046 C 
HETATM   16  C   UNL     1      40.227 -13.909   4.101  1.00  0.00     0.098 C 
BRANCH  14  17
HETATM   17  O   UNL     1      39.891 -12.620   6.807  1.00  0.00    -0.395 OA
HETATM   18  H   UNL     1      39.824 -13.563   6.577  1.00  0.00     0.210 HD
ENDBRANCH  14  17
ENDBRANCH   6  11
ENDBRANCH   2   5
BRANCH   1  19
HETATM   19  C   UNL     1      40.842 -12.613  -0.085  1.00  0.00     0.032 A 
HETATM   20  C   UNL     1      40.734 -11.497   0.743  1.00  0.00     0.019 A 
HETATM   21  C   UNL     1      40.652 -10.226   0.173  1.00  0.00     0.031 A 
HETATM   22  C   UNL     1      40.676 -10.071  -1.223  1.00  0.00     0.039 A 
HETATM   23  C   UNL     1      40.772 -11.205  -2.044  1.00  0.00     0.031 A 
HETATM   24  C   UNL     1      40.857 -12.479  -1.475  1.00  0.00     0.019 A 
BRANCH  22  25
HETATM   25  N   UNL     1      40.599  -8.764  -1.793  1.00  0.00    -0.320 N 
HETATM   26  C   UNL     1      39.448  -8.160  -2.307  1.00  0.00     0.013 A 
HETATM   27  C   UNL     1      38.070  -8.725  -2.211  1.00  0.00     0.068 C 
HETATM   28  C   UNL     1      39.797  -6.929  -2.827  1.00  0.00     0.027 A 
HETATM   29  C   UNL     1      41.166  -6.735  -2.588  1.00  0.00     0.027 A 
HETATM   30  C   UNL     1      41.651  -7.859  -1.945  1.00  0.00     0.013 A 
HETATM   31  C   UNL     1      43.072  -8.120  -1.574  1.00  0.00     0.068 C 
ENDBRANCH  22  25
ENDBRANCH   1  19
TORSDOF 5
ENDMDL
MODEL 9
REMARK VINA RESULT:      -7.5      4.865      8.126
REMARK  5 active torsions:
REMARK  status: ('A' for Active; 'I' for Inactive)
REMARK    1  A    between atoms: N_3  and  C_4 
REMARK    2  A    between atoms: C_7  and  C_8 
REMARK       I    between atoms: C_8  and  N_9 
REMARK    3  A    between atoms: N_9  and  C_10 
REMARK    4  A    between atoms: C_11  and  N_12 
REMARK    5  A    between atoms: C_15  and  O_16 
ROOT
HETATM    1  C   UNL     1      44.138 -11.590   7.121  1.00  0.00     0.256 C 
HETATM    2  N   UNL     1      43.230 -10.984   7.952  1.00  0.00    -0.321 N 
HETATM    3  O   UNL     1      45.358 -11.522   7.139  1.00  0.00    -0.267 OA
HETATM    4  H   UNL     1      42.238 -11.159   7.812  1.00  0.00     0.169 HD
ENDROOT
BRANCH   2   5
HETATM    5  C   UNL     1      43.470 -10.141   9.057  1.00  0.00     0.056 A 
HETATM    6  C   UNL     1      42.524  -9.100   9.254  1.00  0.00     0.037 A 
HETATM    7  C   UNL     1      42.686  -8.250  10.357  1.00  0.00     0.026 A 
HETATM    8  C   UNL     1      43.755  -8.425  11.240  1.00  0.00     0.002 A 
HETATM    9  C   UNL     1      44.679  -9.446  11.029  1.00  0.00     0.002 A 
HETATM   10  C   UNL     1      44.539 -10.304   9.937  1.00  0.00     0.031 A 
BRANCH   6  11
HETATM   11  N   UNL     1      41.477  -8.946   8.298  1.00  0.00    -0.281 NA
HETATM   12  C   UNL     1      41.388  -7.539   7.856  1.00  0.00     0.098 C 
HETATM   13  C   UNL     1      40.495  -7.476   6.616  1.00  0.00     0.046 C 
HETATM   14  C   UNL     1      39.122  -8.091   6.883  1.00  0.00     0.120 C 
HETATM   15  C   UNL     1      39.235  -9.484   7.502  1.00  0.00     0.046 C 
HETATM   16  C   UNL     1      40.167  -9.481   8.713  1.00  0.00     0.098 C 
BRANCH  14  17
HETATM   17  O   UNL     1      38.376  -7.248   7.762  1.00  0.00    -0.395 OA
HETATM   18  H   UNL     1      37.686  -7.795   8.176  1.00  0.00     0.210 HD
ENDBRANCH  14  17
ENDBRANCH   6  11
ENDBRANCH   2   5
BRANCH   1  19
HETATM   19  C   UNL     1      43.491 -12.430   6.097  1.00  0.00     0.032 A 
HETATM   20  C   UNL     1      42.730 -13.526   6.501  1.00  0.00     0.019 A 
HETATM   21  C   UNL     1      42.077 -14.300   5.541  1.00  0.00     0.031 A 
HETATM   22  C   UNL     1      42.186 -13.979   4.178  1.00  0.00     0.039 A 
HETATM   23  C   UNL     1      42.965 -12.881   3.784  1.00  0.00     0.031 A 
HETATM   24  C   UNL     1      43.617 -12.103   4.745  1.00  0.00     0.019 A 
BRANCH  22  25
HETATM   25  N   UNL     1      41.506 -14.775   3.206  1.00  0.00    -0.320 N 
HETATM   26  C   UNL     1      40.233 -14.525   2.686  1.00  0.00     0.013 A 
HETATM   27  C   UNL     1      39.428 -13.296   2.950  1.00  0.00     0.068 C 
HETATM   28  C   UNL     1      39.902 -15.555   1.830  1.00  0.00     0.027 A 
HETATM   29  C   UNL     1      40.996 -16.431   1.768  1.00  0.00     0.027 A 
HETATM   30  C   UNL     1      41.981 -15.943   2.606  1.00  0.00     0.013 A 
HETATM   31  C   UNL     1      43.285 -16.599   2.913  1.00  0.00     0.068 C 
ENDBRANCH  22  25
ENDBRANCH   1  19
TORSDOF 5
ENDMDL
MODEL 10
REMARK VINA RESULT:      -7.4      3.466      5.882
REMARK  5 active torsions:
REMARK  status: ('A' for Active; 'I' for Inactive)
REMARK    1  A    between atoms: N_3  and  C_4 
REMARK    2  A    between atoms: C_7  and  C_8 
REMARK       I    between atoms: C_8  and  N_9 
REMARK    3  A    between atoms: N_9  and  C_10 
REMARK    4  A    between atoms: C_11  and  N_12 
REMARK    5  A    between atoms: C_15  and  O_16 
ROOT
HETATM    1  C   UNL     1      42.598 -14.860   6.158  1.00  0.00     0.256 C 
HETATM    2  N   UNL     1      43.123 -15.159   4.926  1.00  0.00    -0.321 N 
HETATM    3  O   UNL     1      42.265 -15.620   7.055  1.00  0.00    -0.267 OA
HETATM    4  H   UNL     1      43.366 -14.400   4.294  1.00  0.00     0.169 HD
ENDROOT
BRANCH   2   5
HETATM    5  C   UNL     1      43.434 -16.422   4.383  1.00  0.00     0.056 A 
HETATM    6  C   UNL     1      42.863 -16.703   3.112  1.00  0.00     0.037 A 
HETATM    7  C   UNL     1      43.165 -17.928   2.502  1.00  0.00     0.026 A 
HETATM    8  C   UNL     1      44.006 -18.851   3.130  1.00  0.00     0.002 A 
HETATM    9  C   UNL     1      44.553 -18.562   4.379  1.00  0.00     0.002 A 
HETATM   10  C   UNL     1      44.267 -17.350   5.008  1.00  0.00     0.031 A 
BRANCH   6  11
HETATM   11  N   UNL     1      41.980 -15.743   2.539  1.00  0.00    -0.281 NA
HETATM   12  C   UNL     1      40.579 -16.195   2.659  1.00  0.00     0.098 C 
HETATM   13  C   UNL     1      39.659 -15.017   2.338  1.00  0.00     0.046 C 
HETATM   14  C   UNL     1      39.964 -14.427   0.962  1.00  0.00     0.120 C 
HETATM   15  C   UNL     1      41.452 -14.122   0.793  1.00  0.00     0.046 C 
HETATM   16  C   UNL     1      42.313 -15.330   1.163  1.00  0.00     0.098 C 
BRANCH  14  17
HETATM   17  O   UNL     1      39.555 -15.338  -0.057  1.00  0.00    -0.395 OA
HETATM   18  H   UNL     1      39.879 -14.992  -0.907  1.00  0.00     0.210 HD
ENDBRANCH  14  17
ENDBRANCH   6  11
ENDBRANCH   2   5
BRANCH   1  19
HETATM   19  C   UNL     1      42.451 -13.408   6.370  1.00  0.00     0.032 A 
HETATM   20  C   UNL     1      43.563 -12.664   6.764  1.00  0.00     0.019 A 
HETATM   21  C   UNL     1      43.443 -11.283   6.923  1.00  0.00     0.031 A 
HETATM   22  C   UNL     1      42.213 -10.646   6.689  1.00  0.00     0.039 A 
HETATM   23  C   UNL     1      41.100 -11.408   6.305  1.00  0.00     0.031 A 
HETATM   24  C   UNL     1      41.219 -12.792   6.142  1.00  0.00     0.019 A 
BRANCH  22  25
HETATM   25  N   UNL     1      42.107  -9.230   6.848  1.00  0.00    -0.320 N 
HETATM   26  C   UNL     1      42.299  -8.522   8.037  1.00  0.00     0.013 A 
HETATM   27  C   UNL     1      42.796  -9.113   9.314  1.00  0.00     0.068 C 
HETATM   28  C   UNL     1      42.039  -7.188   7.796  1.00  0.00     0.027 A 
HETATM   29  C   UNL     1      41.736  -7.049   6.433  1.00  0.00     0.027 A 
HETATM   30  C   UNL     1      41.788  -8.303   5.854  1.00  0.00     0.013 A 
HETATM   31  C   UNL     1      41.454  -8.637   4.439  1.00  0.00     0.068 C 
ENDBRANCH  22  25
ENDBRANCH   1  19
TORSDOF 5
ENDMDL
