MODEL 1
REMARK VINA RESULT:      -8.9      0.000      0.000
REMARK  3 active torsions:
REMARK  status: ('A' for Active; 'I' for Inactive)
REMARK       I    between atoms: N_2  and  C_3 
REMARK    1  A    between atoms: C_3  and  C_4 
REMARK    2  A    between atoms: C_6  and  N_7 
REMARK       I    between atoms: N_7  and  C_8 
REMARK    3  A    between atoms: C_8  and  C_9 
ROOT
HETATM    1  N   UNL     1      41.891 -15.995   1.729  1.00  0.00    -0.321 N 
HETATM    2  C   UNL     1      40.615 -15.508   1.955  1.00  0.00     0.280 C 
HETATM    3  O   UNL     1      39.932 -15.741   2.948  1.00  0.00    -0.265 OA
HETATM    4  H   UNL     1      42.289 -15.730   0.833  1.00  0.00     0.169 HD
ENDROOT
BRANCH   1   5
HETATM    5  C   UNL     1      42.651 -16.855   2.543  1.00  0.00     0.036 A 
HETATM    6  C   UNL     1      42.819 -18.217   2.291  1.00  0.00     0.046 A 
HETATM    7  C   UNL     1      43.645 -18.993   3.114  1.00  0.00     0.034 A 
HETATM    8  C   UNL     1      44.252 -18.421   4.236  1.00  0.00     0.017 A 
HETATM    9  C   UNL     1      44.067 -17.069   4.510  1.00  0.00     0.003 A 
HETATM   10  C   UNL     1      43.274 -16.288   3.664  1.00  0.00     0.029 A 
BRANCH   7  11
HETATM   11  C   UNL     1      43.845 -20.443   2.871  1.00  0.00     0.251 C 
HETATM   12  N   UNL     1      44.016 -21.315   3.915  1.00  0.00    -0.361 N 
HETATM   13  C   UNL     1      43.828 -21.086   5.331  1.00  0.00     0.149 C 
HETATM   14  H   UNL     1      44.171 -22.268   3.610  1.00  0.00     0.162 HD
HETATM   15  O   UNL     1      43.836 -20.867   1.717  1.00  0.00    -0.268 OA
ENDBRANCH   7  11
ENDBRANCH   1   5
BRANCH   2  16
HETATM   16  C   UNL     1      40.123 -14.691   0.862  1.00  0.00     0.144 A 
HETATM   17  O   UNL     1      39.731 -15.294  -0.307  1.00  0.00    -0.304 OA
HETATM   18  C   UNL     1      39.296 -14.308  -1.140  1.00  0.00     0.086 A 
HETATM   19  C   UNL     1      39.406 -13.068  -0.522  1.00  0.00     0.001 A 
HETATM   20  C   UNL     1      38.804 -14.497  -2.429  1.00  0.00     0.038 A 
HETATM   21  C   UNL     1      39.943 -13.324   0.764  1.00  0.00     0.057 A 
HETATM   22  C   UNL     1      38.995 -11.925  -1.230  1.00  0.00     0.014 A 
HETATM   23  C   UNL     1      38.493 -12.084  -2.530  1.00  0.00     0.001 A 
HETATM   24  C   UNL     1      38.401 -13.348  -3.117  1.00  0.00     0.003 A 
ENDBRANCH   2  16
TORSDOF 3
ENDMDL
MODEL 2
REMARK VINA RESULT:      -8.9      2.214      8.189
REMARK  3 active torsions:
REMARK  status: ('A' for Active; 'I' for Inactive)
REMARK       I    between atoms: N_2  and  C_3 
REMARK    1  A    between atoms: C_3  and  C_4 
REMARK    2  A    between atoms: C_6  and  N_7 
REMARK       I    between atoms: N_7  and  C_8 
REMARK    3  A    between atoms: C_8  and  C_9 
ROOT
HETATM    1  N   UNL     1      41.320 -15.331   1.532  1.00  0.00    -0.321 N 
HETATM    2  C   UNL     1      42.634 -15.347   1.967  1.00  0.00     0.280 C 
HETATM    3  O   UNL     1      43.447 -14.443   1.803  1.00  0.00    -0.265 OA
HETATM    4  H   UNL     1      40.803 -16.184   1.721  1.00  0.00     0.169 HD
ENDROOT
BRANCH   1   5
HETATM    5  C   UNL     1      40.656 -14.323   0.808  1.00  0.00     0.036 A 
HETATM    6  C   UNL     1      40.580 -14.288  -0.585  1.00  0.00     0.046 A 
HETATM    7  C   UNL     1      39.844 -13.285  -1.229  1.00  0.00     0.034 A 
HETATM    8  C   UNL     1      39.238 -12.271  -0.481  1.00  0.00     0.017 A 
HETATM    9  C   UNL     1      39.333 -12.284   0.908  1.00  0.00     0.003 A 
HETATM   10  C   UNL     1      40.034 -13.308   1.550  1.00  0.00     0.029 A 
BRANCH   7  11
HETATM   11  C   UNL     1      39.743 -13.222  -2.707  1.00  0.00     0.251 C 
HETATM   12  N   UNL     1      38.537 -13.389  -3.338  1.00  0.00    -0.361 N 
HETATM   13  C   UNL     1      37.209 -13.426  -2.765  1.00  0.00     0.149 C 
HETATM   14  H   UNL     1      38.612 -13.352  -4.347  1.00  0.00     0.162 HD
HETATM   15  O   UNL     1      40.752 -12.995  -3.372  1.00  0.00    -0.268 OA
ENDBRANCH   7  11
ENDBRANCH   1   5
BRANCH   2  16
HETATM   16  C   UNL     1      42.990 -16.586   2.633  1.00  0.00     0.144 A 
HETATM   17  O   UNL     1      42.959 -17.764   1.929  1.00  0.00    -0.304 OA
HETATM   18  C   UNL     1      43.357 -18.750   2.779  1.00  0.00     0.086 A 
HETATM   19  C   UNL     1      43.643 -18.222   4.034  1.00  0.00     0.001 A 
HETATM   20  C   UNL     1      43.472 -20.100   2.456  1.00  0.00     0.038 A 
HETATM   21  C   UNL     1      43.399 -16.830   3.931  1.00  0.00     0.057 A 
HETATM   22  C   UNL     1      44.079 -19.094   5.046  1.00  0.00     0.014 A 
HETATM   23  C   UNL     1      44.206 -20.459   4.750  1.00  0.00     0.001 A 
HETATM   24  C   UNL     1      43.906 -20.951   3.477  1.00  0.00     0.003 A 
ENDBRANCH   2  16
TORSDOF 3
ENDMDL
MODEL 3
REMARK VINA RESULT:      -8.8      5.383      8.616
REMARK  3 active torsions:
REMARK  status: ('A' for Active; 'I' for Inactive)
REMARK       I    between atoms: N_2  and  C_3 
REMARK    1  A    between atoms: C_3  and  C_4 
REMARK    2  A    between atoms: C_6  and  N_7 
REMARK       I    between atoms: N_7  and  C_8 
REMARK    3  A    between atoms: C_8  and  C_9 
ROOT
HETATM    1  N   UNL     1      43.349 -14.404   5.459  1.00  0.00    -0.321 N 
HETATM    2  C   UNL     1      43.486 -15.617   6.113  1.00  0.00     0.280 C 
HETATM    3  O   UNL     1      43.588 -15.761   7.327  1.00  0.00    -0.265 OA
HETATM    4  H   UNL     1      43.319 -14.473   4.447  1.00  0.00     0.169 HD
ENDROOT
BRANCH   1   5
HETATM    5  C   UNL     1      43.324 -13.113   6.018  1.00  0.00     0.036 A 
HETATM    6  C   UNL     1      44.354 -12.583   6.796  1.00  0.00     0.046 A 
HETATM    7  C   UNL     1      44.282 -11.264   7.263  1.00  0.00     0.034 A 
HETATM    8  C   UNL     1      43.144 -10.493   7.010  1.00  0.00     0.017 A 
HETATM    9  C   UNL     1      42.099 -11.024   6.257  1.00  0.00     0.003 A 
HETATM   10  C   UNL     1      42.192 -12.327   5.760  1.00  0.00     0.029 A 
BRANCH   7  11
HETATM   11  C   UNL     1      45.361 -10.671   8.090  1.00  0.00     0.251 C 
HETATM   12  N   UNL     1      45.125 -10.289   9.386  1.00  0.00    -0.361 N 
HETATM   13  C   UNL     1      43.974 -10.561  10.219  1.00  0.00     0.149 C 
HETATM   14  H   UNL     1      45.937  -9.874   9.827  1.00  0.00     0.162 HD
HETATM   15  O   UNL     1      46.485 -10.542   7.611  1.00  0.00    -0.268 OA
ENDBRANCH   7  11
ENDBRANCH   1   5
BRANCH   2  16
HETATM   16  C   UNL     1      43.531 -16.745   5.202  1.00  0.00     0.144 A 
HETATM   17  O   UNL     1      43.917 -17.976   5.671  1.00  0.00    -0.304 OA
HETATM   18  C   UNL     1      43.846 -18.844   4.624  1.00  0.00     0.086 A 
HETATM   19  C   UNL     1      43.419 -18.185   3.476  1.00  0.00     0.001 A 
HETATM   20  C   UNL     1      44.149 -20.202   4.677  1.00  0.00     0.038 A 
HETATM   21  C   UNL     1      43.224 -16.834   3.857  1.00  0.00     0.057 A 
HETATM   22  C   UNL     1      43.278 -18.925   2.289  1.00  0.00     0.014 A 
HETATM   23  C   UNL     1      43.574 -20.296   2.312  1.00  0.00     0.001 A 
HETATM   24  C   UNL     1      44.002 -20.921   3.487  1.00  0.00     0.003 A 
ENDBRANCH   2  16
TORSDOF 3
ENDMDL
MODEL 4
REMARK VINA RESULT:      -8.6      3.806      8.381
REMARK  3 active torsions:
REMARK  status: ('A' for Active; 'I' for Inactive)
REMARK       I    between atoms: N_2  and  C_3 
REMARK    1  A    between atoms: C_3  and  C_4 
REMARK    2  A    between atoms: C_6  and  N_7 
REMARK       I    between atoms: N_7  and  C_8 
REMARK    3  A    between atoms: C_8  and  C_9 
ROOT
HETATM    1  N   UNL     1      41.247 -14.883   3.945  1.00  0.00    -0.321 N 
HETATM    2  C   UNL     1      42.508 -15.081   3.409  1.00  0.00     0.280 C 
HETATM    3  O   UNL     1      43.251 -14.196   2.995  1.00  0.00    -0.265 OA
HETATM    4  H   UNL     1      40.760 -15.736   4.199  1.00  0.00     0.169 HD
ENDROOT
BRANCH   1   5
HETATM    5  C   UNL     1      40.551 -13.671   4.106  1.00  0.00     0.036 A 
HETATM    6  C   UNL     1      40.365 -13.039   5.337  1.00  0.00     0.046 A 
HETATM    7  C   UNL     1      39.716 -11.800   5.405  1.00  0.00     0.034 A 
HETATM    8  C   UNL     1      39.188 -11.220   4.248  1.00  0.00     0.017 A 
HETATM    9  C   UNL     1      39.345 -11.859   3.020  1.00  0.00     0.003 A 
HETATM   10  C   UNL     1      40.028 -13.075   2.949  1.00  0.00     0.029 A 
BRANCH   7  11
HETATM   11  C   UNL     1      39.505 -11.102   6.697  1.00  0.00     0.251 C 
HETATM   12  N   UNL     1      40.532 -10.432   7.311  1.00  0.00    -0.361 N 
HETATM   13  C   UNL     1      41.837 -10.092   6.788  1.00  0.00     0.149 C 
HETATM   14  H   UNL     1      40.261 -10.025   8.198  1.00  0.00     0.162 HD
HETATM   15  O   UNL     1      38.388 -11.109   7.211  1.00  0.00    -0.268 OA
ENDBRANCH   7  11
ENDBRANCH   1   5
BRANCH   2  16
HETATM   16  C   UNL     1      42.880 -16.482   3.348  1.00  0.00     0.144 A 
HETATM   17  O   UNL     1      43.338 -17.108   4.480  1.00  0.00    -0.304 OA
HETATM   18  C   UNL     1      43.586 -18.405   4.148  1.00  0.00     0.086 A 
HETATM   19  C   UNL     1      43.295 -18.627   2.806  1.00  0.00     0.001 A 
HETATM   20  C   UNL     1      44.060 -19.386   5.016  1.00  0.00     0.038 A 
HETATM   21  C   UNL     1      42.846 -17.381   2.300  1.00  0.00     0.057 A 
HETATM   22  C   UNL     1      43.483 -19.917   2.281  1.00  0.00     0.014 A 
HETATM   23  C   UNL     1      43.957 -20.926   3.132  1.00  0.00     0.001 A 
HETATM   24  C   UNL     1      44.240 -20.663   4.474  1.00  0.00     0.003 A 
ENDBRANCH   2  16
TORSDOF 3
ENDMDL
MODEL 5
REMARK VINA RESULT:      -8.4      4.290      8.369
REMARK  3 active torsions:
REMARK  status: ('A' for Active; 'I' for Inactive)
REMARK       I    between atoms: N_2  and  C_3 
REMARK    1  A    between atoms: C_3  and  C_4 
REMARK    2  A    between atoms: C_6  and  N_7 
REMARK       I    between atoms: N_7  and  C_8 
REMARK    3  A    between atoms: C_8  and  C_9 
ROOT
HETATM    1  N   UNL     1      42.495 -14.348   4.792  1.00  0.00    -0.321 N 
HETATM    2  C   UNL     1      42.654 -14.744   3.475  1.00  0.00     0.280 C 
HETATM    3  O   UNL     1      42.544 -14.014   2.495  1.00  0.00    -0.265 OA
HETATM    4  H   UNL     1      42.583 -15.097   5.471  1.00  0.00     0.169 HD
ENDROOT
BRANCH   1   5
HETATM    5  C   UNL     1      42.158 -13.072   5.281  1.00  0.00     0.036 A 
HETATM    6  C   UNL     1      40.853 -12.672   5.575  1.00  0.00     0.046 A 
HETATM    7  C   UNL     1      40.607 -11.405   6.120  1.00  0.00     0.034 A 
HETATM    8  C   UNL     1      41.661 -10.507   6.309  1.00  0.00     0.017 A 
HETATM    9  C   UNL     1      42.962 -10.889   5.993  1.00  0.00     0.003 A 
HETATM   10  C   UNL     1      43.209 -12.168   5.486  1.00  0.00     0.029 A 
BRANCH   7  11
HETATM   11  C   UNL     1      39.232 -10.952   6.445  1.00  0.00     0.251 C 
HETATM   12  N   UNL     1      38.484 -10.260   5.527  1.00  0.00    -0.361 N 
HETATM   13  C   UNL     1      38.742 -10.044   4.121  1.00  0.00     0.149 C 
HETATM   14  H   UNL     1      37.578  -9.986   5.887  1.00  0.00     0.162 HD
HETATM   15  O   UNL     1      38.753 -11.221   7.545  1.00  0.00    -0.268 OA
ENDBRANCH   7  11
ENDBRANCH   1   5
BRANCH   2  16
HETATM   16  C   UNL     1      42.944 -16.160   3.346  1.00  0.00     0.144 A 
HETATM   17  O   UNL     1      43.469 -16.842   4.416  1.00  0.00    -0.304 OA
HETATM   18  C   UNL     1      43.617 -18.139   4.031  1.00  0.00     0.086 A 
HETATM   19  C   UNL     1      43.196 -18.306   2.716  1.00  0.00     0.001 A 
HETATM   20  C   UNL     1      44.113 -19.168   4.828  1.00  0.00     0.038 A 
HETATM   21  C   UNL     1      42.770 -17.025   2.283  1.00  0.00     0.057 A 
HETATM   22  C   UNL     1      43.268 -19.588   2.145  1.00  0.00     0.014 A 
HETATM   23  C   UNL     1      43.762 -20.645   2.923  1.00  0.00     0.001 A 
HETATM   24  C   UNL     1      44.177 -20.435   4.241  1.00  0.00     0.003 A 
ENDBRANCH   2  16
TORSDOF 3
ENDMDL
MODEL 6
REMARK VINA RESULT:      -8.4      2.107      2.805
REMARK  3 active torsions:
REMARK  status: ('A' for Active; 'I' for Inactive)
REMARK       I    between atoms: N_2  and  C_3 
REMARK    1  A    between atoms: C_3  and  C_4 
REMARK    2  A    between atoms: C_6  and  N_7 
REMARK       I    between atoms: N_7  and  C_8 
REMARK    3  A    between atoms: C_8  and  C_9 
ROOT
HETATM    1  N   UNL     1      42.056 -15.769   1.811  1.00  0.00    -0.321 N 
HETATM    2  C   UNL     1      40.707 -15.460   1.822  1.00  0.00     0.280 C 
HETATM    3  O   UNL     1      39.911 -15.783   2.698  1.00  0.00    -0.265 OA
HETATM    4  H   UNL     1      42.554 -15.453   0.985  1.00  0.00     0.169 HD
ENDROOT
BRANCH   1   5
HETATM    5  C   UNL     1      42.785 -16.516   2.756  1.00  0.00     0.036 A 
HETATM    6  C   UNL     1      43.163 -16.028   4.007  1.00  0.00     0.046 A 
HETATM    7  C   UNL     1      43.832 -16.857   4.918  1.00  0.00     0.034 A 
HETATM    8  C   UNL     1      44.185 -18.159   4.551  1.00  0.00     0.017 A 
HETATM    9  C   UNL     1      43.836 -18.643   3.293  1.00  0.00     0.003 A 
HETATM   10  C   UNL     1      43.134 -17.827   2.402  1.00  0.00     0.029 A 
BRANCH   7  11
HETATM   11  C   UNL     1      44.245 -16.369   6.256  1.00  0.00     0.251 C 
HETATM   12  N   UNL     1      43.314 -15.940   7.167  1.00  0.00    -0.361 N 
HETATM   13  C   UNL     1      41.875 -16.071   7.126  1.00  0.00     0.149 C 
HETATM   14  H   UNL     1      43.732 -15.607   8.028  1.00  0.00     0.162 HD
HETATM   15  O   UNL     1      45.437 -16.369   6.556  1.00  0.00    -0.268 OA
ENDBRANCH   7  11
ENDBRANCH   1   5
BRANCH   2  16
HETATM   16  C   UNL     1      40.291 -14.719   0.646  1.00  0.00     0.144 A 
HETATM   17  O   UNL     1      39.628 -15.372  -0.363  1.00  0.00    -0.304 OA
HETATM   18  C   UNL     1      39.339 -14.445  -1.318  1.00  0.00     0.086 A 
HETATM   19  C   UNL     1      39.812 -13.194  -0.938  1.00  0.00     0.001 A 
HETATM   20  C   UNL     1      38.662 -14.695  -2.509  1.00  0.00     0.038 A 
HETATM   21  C   UNL     1      40.427 -13.382   0.325  1.00  0.00     0.057 A 
HETATM   22  C   UNL     1      39.598 -12.104  -1.800  1.00  0.00     0.014 A 
HETATM   23  C   UNL     1      38.918 -12.324  -3.006  1.00  0.00     0.001 A 
HETATM   24  C   UNL     1      38.460 -13.598  -3.353  1.00  0.00     0.003 A 
ENDBRANCH   2  16
TORSDOF 3
ENDMDL
MODEL 7
REMARK VINA RESULT:      -8.3      6.731      9.145
REMARK  3 active torsions:
REMARK  status: ('A' for Active; 'I' for Inactive)
REMARK       I    between atoms: N_2  and  C_3 
REMARK    1  A    between atoms: C_3  and  C_4 
REMARK    2  A    between atoms: C_6  and  N_7 
REMARK       I    between atoms: N_7  and  C_8 
REMARK    3  A    between atoms: C_8  and  C_9 
ROOT
HETATM    1  N   UNL     1      44.347 -12.279   6.621  1.00  0.00    -0.321 N 
HETATM    2  C   UNL     1      43.221 -12.338   5.819  1.00  0.00     0.280 C 
HETATM    3  O   UNL     1      42.346 -11.480   5.759  1.00  0.00    -0.265 OA
HETATM    4  H   UNL     1      44.943 -13.099   6.571  1.00  0.00     0.169 HD
ENDROOT
BRANCH   1   5
HETATM    5  C   UNL     1      44.714 -11.271   7.533  1.00  0.00     0.036 A 
HETATM    6  C   UNL     1      44.020 -11.002   8.714  1.00  0.00     0.046 A 
HETATM    7  C   UNL     1      44.486 -10.023   9.601  1.00  0.00     0.034 A 
HETATM    8  C   UNL     1      45.612  -9.262   9.276  1.00  0.00     0.017 A 
HETATM    9  C   UNL     1      46.294  -9.506   8.086  1.00  0.00     0.003 A 
HETATM   10  C   UNL     1      45.849 -10.510   7.222  1.00  0.00     0.029 A 
BRANCH   7  11
HETATM   11  C   UNL     1      43.772  -9.716  10.865  1.00  0.00     0.251 C 
HETATM   12  N   UNL     1      43.125  -8.519  11.034  1.00  0.00    -0.361 N 
HETATM   13  C   UNL     1      42.825  -7.501  10.052  1.00  0.00     0.149 C 
HETATM   14  H   UNL     1      42.704  -8.426  11.951  1.00  0.00     0.162 HD
HETATM   15  O   UNL     1      43.745 -10.556  11.762  1.00  0.00    -0.268 OA
ENDBRANCH   7  11
ENDBRANCH   1   5
BRANCH   2  16
HETATM   16  C   UNL     1      43.145 -13.563   5.046  1.00  0.00     0.144 A 
HETATM   17  O   UNL     1      43.147 -13.498   3.675  1.00  0.00    -0.304 OA
HETATM   18  C   UNL     1      43.093 -14.778   3.213  1.00  0.00     0.086 A 
HETATM   19  C   UNL     1      43.052 -15.675   4.274  1.00  0.00     0.001 A 
HETATM   20  C   UNL     1      43.083 -15.153   1.872  1.00  0.00     0.038 A 
HETATM   21  C   UNL     1      43.081 -14.884   5.449  1.00  0.00     0.057 A 
HETATM   22  C   UNL     1      43.001 -17.051   3.989  1.00  0.00     0.014 A 
HETATM   23  C   UNL     1      42.992 -17.460   2.648  1.00  0.00     0.001 A 
HETATM   24  C   UNL     1      43.032 -16.526   1.609  1.00  0.00     0.003 A 
ENDBRANCH   2  16
TORSDOF 3
ENDMDL
MODEL 8
REMARK VINA RESULT:      -8.3      2.557      8.392
REMARK  3 active torsions:
REMARK  status: ('A' for Active; 'I' for Inactive)
REMARK       I    between atoms: N_2  and  C_3 
REMARK    1  A    between atoms: C_3  and  C_4 
REMARK    2  A    between atoms: C_6  and  N_7 
REMARK       I    between atoms: N_7  and  C_8 
REMARK    3  A    between atoms: C_8  and  C_9 
ROOT
HETATM    1  N   UNL     1      41.618 -15.257   1.573  1.00  0.00    -0.321 N 
HETATM    2  C   UNL     1      42.940 -15.378   1.969  1.00  0.00     0.280 C 
HETATM    3  O   UNL     1      43.822 -14.552   1.759  1.00  0.00    -0.265 OA
HETATM    4  H   UNL     1      41.037 -16.058   1.799  1.00  0.00     0.169 HD
ENDROOT
BRANCH   1   5
HETATM    5  C   UNL     1      41.021 -14.210   0.847  1.00  0.00     0.036 A 
HETATM    6  C   UNL     1      41.285 -12.858   1.074  1.00  0.00     0.046 A 
HETATM    7  C   UNL     1      40.698 -11.877   0.264  1.00  0.00     0.034 A 
HETATM    8  C   UNL     1      39.789 -12.243  -0.733  1.00  0.00     0.017 A 
HETATM    9  C   UNL     1      39.499 -13.588  -0.946  1.00  0.00     0.003 A 
HETATM   10  C   UNL     1      40.117 -14.567  -0.163  1.00  0.00     0.029 A 
BRANCH   7  11
HETATM   11  C   UNL     1      40.960 -10.433   0.478  1.00  0.00     0.251 C 
HETATM   12  N   UNL     1      40.083  -9.656   1.190  1.00  0.00    -0.361 N 
HETATM   13  C   UNL     1      38.956 -10.065   1.999  1.00  0.00     0.149 C 
HETATM   14  H   UNL     1      40.367  -8.684   1.236  1.00  0.00     0.162 HD
HETATM   15  O   UNL     1      41.990  -9.934   0.027  1.00  0.00    -0.268 OA
ENDBRANCH   7  11
ENDBRANCH   1   5
BRANCH   2  16
HETATM   16  C   UNL     1      43.209 -16.629   2.653  1.00  0.00     0.144 A 
HETATM   17  O   UNL     1      43.156 -17.807   1.950  1.00  0.00    -0.304 OA
HETATM   18  C   UNL     1      43.470 -18.807   2.819  1.00  0.00     0.086 A 
HETATM   19  C   UNL     1      43.724 -18.288   4.084  1.00  0.00     0.001 A 
HETATM   20  C   UNL     1      43.538 -20.161   2.504  1.00  0.00     0.038 A 
HETATM   21  C   UNL     1      43.548 -16.886   3.967  1.00  0.00     0.057 A 
HETATM   22  C   UNL     1      44.073 -19.175   5.117  1.00  0.00     0.014 A 
HETATM   23  C   UNL     1      44.152 -20.545   4.829  1.00  0.00     0.001 A 
HETATM   24  C   UNL     1      43.887 -21.027   3.545  1.00  0.00     0.003 A 
ENDBRANCH   2  16
TORSDOF 3
ENDMDL
MODEL 9
REMARK VINA RESULT:      -8.2      6.741      9.256
REMARK  3 active torsions:
REMARK  status: ('A' for Active; 'I' for Inactive)
REMARK       I    between atoms: N_2  and  C_3 
REMARK    1  A    between atoms: C_3  and  C_4 
REMARK    2  A    between atoms: C_6  and  N_7 
REMARK       I    between atoms: N_7  and  C_8 
REMARK    3  A    between atoms: C_8  and  C_9 
ROOT
HETATM    1  N   UNL     1      43.362 -12.927   7.019  1.00  0.00    -0.321 N 
HETATM    2  C   UNL     1      44.346 -11.964   7.172  1.00  0.00     0.280 C 
HETATM    3  O   UNL     1      45.404 -11.926   6.552  1.00  0.00    -0.265 OA
HETATM    4  H   UNL     1      42.570 -12.822   7.645  1.00  0.00     0.169 HD
ENDROOT
BRANCH   1   5
HETATM    5  C   UNL     1      43.368 -14.048   6.169  1.00  0.00     0.036 A 
HETATM    6  C   UNL     1      43.015 -14.001   4.819  1.00  0.00     0.046 A 
HETATM    7  C   UNL     1      43.108 -15.150   4.022  1.00  0.00     0.034 A 
HETATM    8  C   UNL     1      43.490 -16.368   4.592  1.00  0.00     0.017 A 
HETATM    9  C   UNL     1      43.816 -16.429   5.945  1.00  0.00     0.003 A 
HETATM   10  C   UNL     1      43.760 -15.273   6.727  1.00  0.00     0.029 A 
BRANCH   7  11
HETATM   11  C   UNL     1      42.744 -15.132   2.585  1.00  0.00     0.251 C 
HETATM   12  N   UNL     1      41.485 -15.490   2.174  1.00  0.00    -0.361 N 
HETATM   13  C   UNL     1      40.298 -15.712   2.969  1.00  0.00     0.149 C 
HETATM   14  H   UNL     1      41.378 -15.461   1.167  1.00  0.00     0.162 HD
HETATM   15  O   UNL     1      43.576 -14.771   1.756  1.00  0.00    -0.268 OA
ENDBRANCH   7  11
ENDBRANCH   1   5
BRANCH   2  16
HETATM   16  C   UNL     1      44.019 -10.984   8.189  1.00  0.00     0.144 A 
HETATM   17  O   UNL     1      44.001 -11.361   9.509  1.00  0.00    -0.304 OA
HETATM   18  C   UNL     1      43.693 -10.254  10.239  1.00  0.00     0.086 A 
HETATM   19  C   UNL     1      43.507  -9.159   9.403  1.00  0.00     0.001 A 
HETATM   20  C   UNL     1      43.581 -10.205  11.626  1.00  0.00     0.038 A 
HETATM   21  C   UNL     1      43.714  -9.640   8.086  1.00  0.00     0.057 A 
HETATM   22  C   UNL     1      43.187  -7.918   9.981  1.00  0.00     0.014 A 
HETATM   23  C   UNL     1      43.070  -7.837  11.376  1.00  0.00     0.001 A 
HETATM   24  C   UNL     1      43.262  -8.962  12.182  1.00  0.00     0.003 A 
ENDBRANCH   2  16
TORSDOF 3
ENDMDL
MODEL 10
REMARK VINA RESULT:      -8.1     10.018     12.537
REMARK  3 active torsions:
REMARK  status: ('A' for Active; 'I' for Inactive)
REMARK       I    between atoms: N_2  and  C_3 
REMARK    1  A    between atoms: C_3  and  C_4 
REMARK    2  A    between atoms: C_6  and  N_7 
REMARK       I    between atoms: N_7  and  C_8 
REMARK    3  A    between atoms: C_8  and  C_9 
ROOT
HETATM    1  N   UNL     1      43.957  -9.749   9.712  1.00  0.00    -0.321 N 
HETATM    2  C   UNL     1      43.735 -10.408  10.908  1.00  0.00     0.280 C 
HETATM    3  O   UNL     1      43.851 -11.617  11.085  1.00  0.00    -0.265 OA
HETATM    4  H   UNL     1      43.774  -8.751   9.741  1.00  0.00     0.169 HD
ENDROOT
BRANCH   1   5
HETATM    5  C   UNL     1      44.327 -10.300   8.470  1.00  0.00     0.036 A 
HETATM    6  C   UNL     1      43.419 -10.604   7.454  1.00  0.00     0.046 A 
HETATM    7  C   UNL     1      43.873 -11.091   6.222  1.00  0.00     0.034 A 
HETATM    8  C   UNL     1      45.235 -11.341   6.026  1.00  0.00     0.017 A 
HETATM    9  C   UNL     1      46.143 -11.067   7.045  1.00  0.00     0.003 A 
HETATM   10  C   UNL     1      45.691 -10.544   8.260  1.00  0.00     0.029 A 
BRANCH   7  11
HETATM   11  C   UNL     1      42.934 -11.420   5.122  1.00  0.00     0.251 C 
HETATM   12  N   UNL     1      42.418 -12.684   4.992  1.00  0.00    -0.361 N 
HETATM   13  C   UNL     1      42.476 -13.790   5.922  1.00  0.00     0.149 C 
HETATM   14  H   UNL     1      41.814 -12.781   4.184  1.00  0.00     0.162 HD
HETATM   15  O   UNL     1      42.601 -10.541   4.330  1.00  0.00    -0.268 OA
ENDBRANCH   7  11
ENDBRANCH   1   5
BRANCH   2  16
HETATM   16  C   UNL     1      43.308  -9.517  11.970  1.00  0.00     0.144 A 
HETATM   17  O   UNL     1      42.291  -9.904  12.808  1.00  0.00    -0.304 OA
HETATM   18  C   UNL     1      42.114  -8.903  13.713  1.00  0.00     0.086 A 
HETATM   19  C   UNL     1      43.006  -7.864  13.468  1.00  0.00     0.001 A 
HETATM   20  C   UNL     1      41.180  -8.903  14.746  1.00  0.00     0.038 A 
HETATM   21  C   UNL     1      43.766  -8.267  12.342  1.00  0.00     0.057 A 
HETATM   22  C   UNL     1      42.976  -6.739  14.311  1.00  0.00     0.014 A 
HETATM   23  C   UNL     1      42.048  -6.711  15.362  1.00  0.00     0.001 A 
HETATM   24  C   UNL     1      41.166  -7.775  15.573  1.00  0.00     0.003 A 
ENDBRANCH   2  16
TORSDOF 3
ENDMDL
