MODEL 1
REMARK VINA RESULT:      -9.8      0.000      0.000
REMARK  9 active torsions:
REMARK  status: ('A' for Active; 'I' for Inactive)
REMARK    1  A    between atoms: C_4  and  C_5 
REMARK    2  A    between atoms: C_5  and  N_6 
REMARK    3  A    between atoms: C_11  and  C_12 
REMARK       I    between atoms: C_12  and  N_13 
REMARK    4  A    between atoms: C_15  and  N_16 
REMARK       I    between atoms: N_16  and  C_17 
REMARK    5  A    between atoms: C_17  and  C_18 
REMARK    6  A    between atoms: C_18  and  C_19 
REMARK    7  A    between atoms: C_19  and  C_20 
REMARK    8  A    between atoms: C_20  and  S_21 
REMARK    9  A    between atoms: S_21  and  C_22 
ROOT
HETATM    1  N   UNL     1      41.779 -16.447   2.645  1.00  0.00    -0.063 N 
HETATM    2  H   UNL     1      41.174 -17.218   2.347  1.00  0.00     0.280 HD
HETATM    3  C   UNL     1      41.396 -16.161   4.096  1.00  0.00     0.282 C 
HETATM    4  C   UNL     1      41.865 -14.812   4.516  1.00  0.00     0.018 C 
HETATM    5  C   UNL     1      42.298 -13.813   3.668  1.00  0.00    -0.023 C 
HETATM    6  C   UNL     1      42.818 -12.683   4.404  1.00  0.00     0.073 C 
HETATM    7  C   UNL     1      42.462 -12.780   5.742  1.00  0.00     0.093 C 
HETATM    8  S   UNL     1      41.857 -14.322   6.136  1.00  0.00    -0.074 SA
HETATM    9  C   UNL     1      42.270 -13.993   2.174  1.00  0.00     0.068 C 
HETATM   10  C   UNL     1      41.459 -15.242   1.763  1.00  0.00     0.240 C 
ENDROOT
BRANCH   7  11
HETATM   11  N   UNL     1      42.609 -11.806   6.719  1.00  0.00    -0.320 N 
HETATM   12  C   UNL     1      43.778 -11.540   7.423  1.00  0.00     0.222 C 
HETATM   13  O   UNL     1      44.847 -12.127   7.310  1.00  0.00    -0.273 OA
HETATM   14  H   UNL     1      41.749 -11.481   7.147  1.00  0.00     0.169 HD
BRANCH  12  15
HETATM   15  C   UNL     1      43.593 -10.389   8.402  1.00  0.00     0.104 C 
BRANCH  15  16
HETATM   16  C   UNL     1      44.832 -10.105   9.250  1.00  0.00     0.020 C 
BRANCH  16  17
HETATM   17  C   UNL     1      44.625  -9.798  10.738  1.00  0.00     0.080 C 
BRANCH  17  18
HETATM   18  S   UNL     1      43.052 -10.349  11.493  1.00  0.00    -0.130 SA
BRANCH  18  19
HETATM   19  C   UNL     1      42.770  -9.157  12.788  1.00  0.00     0.000 A 
HETATM   20  C   UNL     1      43.491  -7.967  12.920  1.00  0.00     0.020 A 
HETATM   21  C   UNL     1      43.223  -7.088  13.976  1.00  0.00     0.025 A 
HETATM   22  C   UNL     1      42.216  -7.390  14.890  1.00  0.00     0.034 A 
HETATM   23 CL   UNL     1      41.892  -6.315  16.193  1.00  0.00    -0.084 Cl
HETATM   24  C   UNL     1      41.469  -8.555  14.754  1.00  0.00     0.025 A 
HETATM   25  C   UNL     1      41.745  -9.433  13.703  1.00  0.00     0.020 A 
ENDBRANCH  18  19
ENDBRANCH  17  18
ENDBRANCH  16  17
ENDBRANCH  15  16
ENDBRANCH  12  15
ENDBRANCH   7  11
BRANCH   6  26
HETATM   26  C   UNL     1      43.522 -11.555   3.800  1.00  0.00     0.252 C 
HETATM   27  N   UNL     1      42.729 -10.578   3.261  1.00  0.00    -0.366 N 
HETATM   28  H   UNL     1      41.785 -10.454   3.607  1.00  0.00     0.159 HD
HETATM   29  H   UNL     1      43.221  -9.725   3.013  1.00  0.00     0.159 HD
HETATM   30  O   UNL     1      44.739 -11.428   3.845  1.00  0.00    -0.268 OA
ENDBRANCH   6  26
BRANCH   1  31
HETATM   31  C   UNL     1      43.200 -16.926   2.443  1.00  0.00     0.273 C 
BRANCH  31  32
HETATM   32  C   UNL     1      43.525 -18.282   3.006  1.00  0.00    -0.033 A 
HETATM   33  C   UNL     1      44.001 -18.446   4.314  1.00  0.00     0.009 A 
HETATM   34  C   UNL     1      44.267 -19.725   4.810  1.00  0.00     0.001 A 
HETATM   35  C   UNL     1      44.044 -20.847   4.015  1.00  0.00     0.000 A 
HETATM   36  C   UNL     1      43.557 -20.698   2.721  1.00  0.00     0.001 A 
HETATM   37  C   UNL     1      43.300 -19.423   2.217  1.00  0.00     0.009 A 
ENDBRANCH  31  32
ENDBRANCH   1  31
TORSDOF 9
ENDMDL
MODEL 2
REMARK VINA RESULT:      -9.2      3.665      5.085
REMARK  9 active torsions:
REMARK  status: ('A' for Active; 'I' for Inactive)
REMARK    1  A    between atoms: C_4  and  C_5 
REMARK    2  A    between atoms: C_5  and  N_6 
REMARK    3  A    between atoms: C_11  and  C_12 
REMARK       I    between atoms: C_12  and  N_13 
REMARK    4  A    between atoms: C_15  and  N_16 
REMARK       I    between atoms: N_16  and  C_17 
REMARK    5  A    between atoms: C_17  and  C_18 
REMARK    6  A    between atoms: C_18  and  C_19 
REMARK    7  A    between atoms: C_19  and  C_20 
REMARK    8  A    between atoms: C_20  and  S_21 
REMARK    9  A    between atoms: S_21  and  C_22 
ROOT
HETATM    1  N   UNL     1      41.777 -16.412   2.537  1.00  0.00    -0.063 N 
HETATM    2  H   UNL     1      41.158 -17.160   2.212  1.00  0.00     0.280 HD
HETATM    3  C   UNL     1      41.369 -16.139   3.982  1.00  0.00     0.282 C 
HETATM    4  C   UNL     1      41.865 -14.811   4.436  1.00  0.00     0.018 C 
HETATM    5  C   UNL     1      42.347 -13.811   3.616  1.00  0.00    -0.023 C 
HETATM    6  C   UNL     1      42.882 -12.709   4.382  1.00  0.00     0.073 C 
HETATM    7  C   UNL     1      42.492 -12.817   5.711  1.00  0.00     0.093 C 
HETATM    8  S   UNL     1      41.834 -14.348   6.064  1.00  0.00    -0.074 SA
HETATM    9  C   UNL     1      42.349 -13.966   2.119  1.00  0.00     0.068 C 
HETATM   10  C   UNL     1      41.513 -15.184   1.668  1.00  0.00     0.240 C 
ENDROOT
BRANCH   7  11
HETATM   11  N   UNL     1      42.644 -11.864   6.707  1.00  0.00    -0.320 N 
HETATM   12  C   UNL     1      43.821 -11.600   7.398  1.00  0.00     0.222 C 
HETATM   13  O   UNL     1      44.895 -12.171   7.253  1.00  0.00    -0.273 OA
HETATM   14  H   UNL     1      41.787 -11.559   7.157  1.00  0.00     0.169 HD
BRANCH  12  15
HETATM   15  C   UNL     1      43.639 -10.474   8.405  1.00  0.00     0.104 C 
BRANCH  15  16
HETATM   16  C   UNL     1      42.727  -9.352   7.907  1.00  0.00     0.020 C 
BRANCH  16  17
HETATM   17  C   UNL     1      41.392  -9.142   8.630  1.00  0.00     0.080 C 
BRANCH  17  18
HETATM   18  S   UNL     1      40.012  -8.448   7.651  1.00  0.00    -0.130 SA
BRANCH  18  19
HETATM   19  C   UNL     1      39.697  -9.703   6.425  1.00  0.00     0.000 A 
HETATM   20  C   UNL     1      39.229 -10.985   6.728  1.00  0.00     0.020 A 
HETATM   21  C   UNL     1      39.021 -11.922   5.709  1.00  0.00     0.025 A 
HETATM   22  C   UNL     1      39.261 -11.571   4.382  1.00  0.00     0.034 A 
HETATM   23 CL   UNL     1      39.015 -12.726   3.132  1.00  0.00    -0.084 Cl
HETATM   24  C   UNL     1      39.697 -10.289   4.064  1.00  0.00     0.025 A 
HETATM   25  C   UNL     1      39.910  -9.358   5.083  1.00  0.00     0.020 A 
ENDBRANCH  18  19
ENDBRANCH  17  18
ENDBRANCH  16  17
ENDBRANCH  15  16
ENDBRANCH  12  15
ENDBRANCH   7  11
BRANCH   6  26
HETATM   26  C   UNL     1      43.632 -11.592   3.815  1.00  0.00     0.252 C 
HETATM   27  N   UNL     1      42.890 -10.653   3.149  1.00  0.00    -0.366 N 
HETATM   28  H   UNL     1      41.911 -10.535   3.382  1.00  0.00     0.159 HD
HETATM   29  H   UNL     1      43.393  -9.801   2.922  1.00  0.00     0.159 HD
HETATM   30  O   UNL     1      44.834 -11.439   3.990  1.00  0.00    -0.268 OA
ENDBRANCH   6  26
BRANCH   1  31
HETATM   31  C   UNL     1      43.188 -16.929   2.360  1.00  0.00     0.273 C 
BRANCH  31  32
HETATM   32  C   UNL     1      43.469 -18.289   2.936  1.00  0.00    -0.033 A 
HETATM   33  C   UNL     1      43.302 -19.461   2.185  1.00  0.00     0.009 A 
HETATM   34  C   UNL     1      43.598 -20.704   2.747  1.00  0.00     0.001 A 
HETATM   35  C   UNL     1      44.080 -20.788   4.052  1.00  0.00     0.000 A 
HETATM   36  C   UNL     1      44.266 -19.632   4.801  1.00  0.00     0.001 A 
HETATM   37  C   UNL     1      43.961 -18.388   4.248  1.00  0.00     0.009 A 
ENDBRANCH  31  32
ENDBRANCH   1  31
TORSDOF 9
ENDMDL
MODEL 3
REMARK VINA RESULT:      -9.0      1.758      2.181
REMARK  9 active torsions:
REMARK  status: ('A' for Active; 'I' for Inactive)
REMARK    1  A    between atoms: C_4  and  C_5 
REMARK    2  A    between atoms: C_5  and  N_6 
REMARK    3  A    between atoms: C_11  and  C_12 
REMARK       I    between atoms: C_12  and  N_13 
REMARK    4  A    between atoms: C_15  and  N_16 
REMARK       I    between atoms: N_16  and  C_17 
REMARK    5  A    between atoms: C_17  and  C_18 
REMARK    6  A    between atoms: C_18  and  C_19 
REMARK    7  A    between atoms: C_19  and  C_20 
REMARK    8  A    between atoms: C_20  and  S_21 
REMARK    9  A    between atoms: S_21  and  C_22 
ROOT
HETATM    1  N   UNL     1      41.899 -16.326   2.653  1.00  0.00    -0.063 N 
HETATM    2  H   UNL     1      41.429 -17.124   2.215  1.00  0.00     0.280 HD
HETATM    3  C   UNL     1      41.075 -15.993   3.894  1.00  0.00     0.282 C 
HETATM    4  C   UNL     1      41.368 -14.616   4.378  1.00  0.00     0.018 C 
HETATM    5  C   UNL     1      42.034 -13.641   3.664  1.00  0.00    -0.023 C 
HETATM    6  C   UNL     1      42.281 -12.469   4.473  1.00  0.00     0.073 C 
HETATM    7  C   UNL     1      41.522 -12.522   5.635  1.00  0.00     0.093 C 
HETATM    8  S   UNL     1      40.844 -14.064   5.889  1.00  0.00    -0.074 SA
HETATM    9  C   UNL     1      42.482 -13.880   2.247  1.00  0.00     0.068 C 
HETATM   10  C   UNL     1      41.858 -15.166   1.660  1.00  0.00     0.240 C 
ENDROOT
BRANCH   7  11
HETATM   11  N   UNL     1      41.340 -11.507   6.563  1.00  0.00    -0.320 N 
HETATM   12  C   UNL     1      40.299 -10.586   6.557  1.00  0.00     0.222 C 
HETATM   13  O   UNL     1      39.397 -10.511   5.732  1.00  0.00    -0.273 OA
HETATM   14  H   UNL     1      42.166 -11.241   7.089  1.00  0.00     0.169 HD
BRANCH  12  15
HETATM   15  C   UNL     1      40.392  -9.627   7.736  1.00  0.00     0.104 C 
BRANCH  15  16
HETATM   16  C   UNL     1      41.199  -8.365   7.432  1.00  0.00     0.020 C 
BRANCH  16  17
HETATM   17  C   UNL     1      42.461  -8.106   8.263  1.00  0.00     0.080 C 
BRANCH  17  18
HETATM   18  S   UNL     1      43.170  -9.528   9.168  1.00  0.00    -0.130 SA
BRANCH  18  19
HETATM   19  C   UNL     1      42.759  -9.188  10.869  1.00  0.00     0.000 A 
HETATM   20  C   UNL     1      43.595  -8.492  11.747  1.00  0.00     0.020 A 
HETATM   21  C   UNL     1      43.208  -8.279  13.075  1.00  0.00     0.025 A 
HETATM   22  C   UNL     1      41.973  -8.744  13.521  1.00  0.00     0.034 A 
HETATM   23 CL   UNL     1      41.502  -8.490  15.156  1.00  0.00    -0.084 Cl
HETATM   24  C   UNL     1      41.117  -9.410  12.651  1.00  0.00     0.025 A 
HETATM   25  C   UNL     1      41.509  -9.627  11.327  1.00  0.00     0.020 A 
ENDBRANCH  18  19
ENDBRANCH  17  18
ENDBRANCH  16  17
ENDBRANCH  15  16
ENDBRANCH  12  15
ENDBRANCH   7  11
BRANCH   6  26
HETATM   26  C   UNL     1      43.124 -11.347   4.071  1.00  0.00     0.252 C 
HETATM   27  N   UNL     1      42.465 -10.256   3.569  1.00  0.00    -0.366 N 
HETATM   28  H   UNL     1      41.501 -10.091   3.833  1.00  0.00     0.159 HD
HETATM   29  H   UNL     1      43.041  -9.426   3.467  1.00  0.00     0.159 HD
HETATM   30  O   UNL     1      44.335 -11.327   4.248  1.00  0.00    -0.268 OA
ENDBRANCH   6  26
BRANCH   1  31
HETATM   31  C   UNL     1      43.318 -16.775   2.931  1.00  0.00     0.273 C 
BRANCH  31  32
HETATM   32  C   UNL     1      43.508 -18.246   3.172  1.00  0.00    -0.033 A 
HETATM   33  C   UNL     1      43.284 -19.197   2.168  1.00  0.00     0.009 A 
HETATM   34  C   UNL     1      43.497 -20.554   2.423  1.00  0.00     0.001 A 
HETATM   35  C   UNL     1      43.952 -20.970   3.672  1.00  0.00     0.000 A 
HETATM   36  C   UNL     1      44.195 -20.034   4.672  1.00  0.00     0.001 A 
HETATM   37  C   UNL     1      43.973 -18.680   4.426  1.00  0.00     0.009 A 
ENDBRANCH  31  32
ENDBRANCH   1  31
TORSDOF 9
ENDMDL
MODEL 4
REMARK VINA RESULT:      -9.0      3.644     10.720
REMARK  9 active torsions:
REMARK  status: ('A' for Active; 'I' for Inactive)
REMARK    1  A    between atoms: C_4  and  C_5 
REMARK    2  A    between atoms: C_5  and  N_6 
REMARK    3  A    between atoms: C_11  and  C_12 
REMARK       I    between atoms: C_12  and  N_13 
REMARK    4  A    between atoms: C_15  and  N_16 
REMARK       I    between atoms: N_16  and  C_17 
REMARK    5  A    between atoms: C_17  and  C_18 
REMARK    6  A    between atoms: C_18  and  C_19 
REMARK    7  A    between atoms: C_19  and  C_20 
REMARK    8  A    between atoms: C_20  and  S_21 
REMARK    9  A    between atoms: S_21  and  C_22 
ROOT
HETATM    1  N   UNL     1      44.126  -9.253  10.114  1.00  0.00    -0.063 N 
HETATM    2  H   UNL     1      44.799  -8.705  10.658  1.00  0.00     0.280 HD
HETATM    3  C   UNL     1      44.964 -10.127   9.183  1.00  0.00     0.282 C 
HETATM    4  C   UNL     1      44.145 -10.641   8.051  1.00  0.00     0.018 C 
HETATM    5  C   UNL     1      42.902 -10.168   7.681  1.00  0.00    -0.023 C 
HETATM    6  C   UNL     1      42.319 -10.977   6.636  1.00  0.00     0.073 C 
HETATM    7  C   UNL     1      43.282 -11.811   6.083  1.00  0.00     0.093 C 
HETATM    8  S   UNL     1      44.701 -11.864   7.022  1.00  0.00    -0.074 SA
HETATM    9  C   UNL     1      42.272  -8.998   8.386  1.00  0.00     0.068 C 
HETATM   10  C   UNL     1      43.282  -8.271   9.304  1.00  0.00     0.240 C 
ENDROOT
BRANCH   7  11
HETATM   11  N   UNL     1      43.158 -12.590   4.941  1.00  0.00    -0.320 N 
HETATM   12  C   UNL     1      43.412 -12.164   3.643  1.00  0.00     0.222 C 
HETATM   13  O   UNL     1      43.763 -11.042   3.299  1.00  0.00    -0.273 OA
HETATM   14  H   UNL     1      42.570 -13.411   5.033  1.00  0.00     0.169 HD
BRANCH  12  15
HETATM   15  C   UNL     1      43.201 -13.284   2.634  1.00  0.00     0.104 C 
BRANCH  15  16
HETATM   16  C   UNL     1      41.872 -13.188   1.886  1.00  0.00     0.020 C 
BRANCH  16  17
HETATM   17  C   UNL     1      40.601 -13.612   2.630  1.00  0.00     0.080 C 
BRANCH  17  18
HETATM   18  S   UNL     1      40.030 -15.333   2.394  1.00  0.00    -0.130 SA
BRANCH  18  19
HETATM   19  C   UNL     1      41.361 -16.311   3.066  1.00  0.00     0.000 A 
HETATM   20  C   UNL     1      41.726 -16.303   4.415  1.00  0.00     0.020 A 
HETATM   21  C   UNL     1      42.796 -17.087   4.864  1.00  0.00     0.025 A 
HETATM   22  C   UNL     1      43.487 -17.898   3.966  1.00  0.00     0.034 A 
HETATM   23 CL   UNL     1      44.807 -18.854   4.516  1.00  0.00    -0.084 Cl
HETATM   24  C   UNL     1      43.114 -17.940   2.627  1.00  0.00     0.025 A 
HETATM   25  C   UNL     1      42.051 -17.150   2.181  1.00  0.00     0.020 A 
ENDBRANCH  18  19
ENDBRANCH  17  18
ENDBRANCH  16  17
ENDBRANCH  15  16
ENDBRANCH  12  15
ENDBRANCH   7  11
BRANCH   6  26
HETATM   26  C   UNL     1      40.943 -10.854   6.164  1.00  0.00     0.252 C 
HETATM   27  N   UNL     1      40.036 -11.701   6.744  1.00  0.00    -0.366 N 
HETATM   28  H   UNL     1      40.219 -12.069   7.670  1.00  0.00     0.159 HD
HETATM   29  H   UNL     1      39.066 -11.482   6.543  1.00  0.00     0.159 HD
HETATM   30  O   UNL     1      40.585  -9.994   5.370  1.00  0.00    -0.268 OA
ENDBRANCH   6  26
BRANCH   1  31
HETATM   31  C   UNL     1      43.290 -10.012  11.121  1.00  0.00     0.273 C 
BRANCH  31  32
HETATM   32  C   UNL     1      42.883  -9.248  12.350  1.00  0.00    -0.033 A 
HETATM   33  C   UNL     1      43.559  -8.090  12.760  1.00  0.00     0.009 A 
HETATM   34  C   UNL     1      43.135  -7.392  13.893  1.00  0.00     0.001 A 
HETATM   35  C   UNL     1      42.025  -7.831  14.614  1.00  0.00     0.000 A 
HETATM   36  C   UNL     1      41.336  -8.969  14.207  1.00  0.00     0.001 A 
HETATM   37  C   UNL     1      41.763  -9.675  13.083  1.00  0.00     0.009 A 
ENDBRANCH  31  32
ENDBRANCH   1  31
TORSDOF 9
ENDMDL
MODEL 5
REMARK VINA RESULT:      -8.9      2.709      3.556
REMARK  9 active torsions:
REMARK  status: ('A' for Active; 'I' for Inactive)
REMARK    1  A    between atoms: C_4  and  C_5 
REMARK    2  A    between atoms: C_5  and  N_6 
REMARK    3  A    between atoms: C_11  and  C_12 
REMARK       I    between atoms: C_12  and  N_13 
REMARK    4  A    between atoms: C_15  and  N_16 
REMARK       I    between atoms: N_16  and  C_17 
REMARK    5  A    between atoms: C_17  and  C_18 
REMARK    6  A    between atoms: C_18  and  C_19 
REMARK    7  A    between atoms: C_19  and  C_20 
REMARK    8  A    between atoms: C_20  and  S_21 
REMARK    9  A    between atoms: S_21  and  C_22 
ROOT
HETATM    1  N   UNL     1      41.753 -16.423   2.777  1.00  0.00    -0.063 N 
HETATM    2  H   UNL     1      41.298 -17.272   2.427  1.00  0.00     0.280 HD
HETATM    3  C   UNL     1      40.921 -15.975   3.977  1.00  0.00     0.282 C 
HETATM    4  C   UNL     1      41.189 -14.550   4.311  1.00  0.00     0.018 C 
HETATM    5  C   UNL     1      41.838 -13.643   3.497  1.00  0.00    -0.023 C 
HETATM    6  C   UNL     1      42.062 -12.388   4.176  1.00  0.00     0.073 C 
HETATM    7  C   UNL     1      41.303 -12.331   5.338  1.00  0.00     0.093 C 
HETATM    8  S   UNL     1      40.652 -13.849   5.755  1.00  0.00    -0.074 SA
HETATM    9  C   UNL     1      42.291 -14.024   2.113  1.00  0.00     0.068 C 
HETATM   10  C   UNL     1      41.691 -15.376   1.666  1.00  0.00     0.240 C 
ENDROOT
BRANCH   7  11
HETATM   11  N   UNL     1      41.102 -11.226   6.152  1.00  0.00    -0.320 N 
HETATM   12  C   UNL     1      40.235 -10.172   5.883  1.00  0.00     0.222 C 
HETATM   13  O   UNL     1      39.534 -10.042   4.888  1.00  0.00    -0.273 OA
HETATM   14  H   UNL     1      41.839 -11.035   6.822  1.00  0.00     0.169 HD
BRANCH  12  15
HETATM   15  C   UNL     1      40.243  -9.141   7.003  1.00  0.00     0.104 C 
BRANCH  15  16
HETATM   16  C   UNL     1      39.820  -9.709   8.357  1.00  0.00     0.020 C 
BRANCH  16  17
HETATM   17  C   UNL     1      39.910  -8.786   9.578  1.00  0.00     0.080 C 
BRANCH  17  18
HETATM   18  S   UNL     1      41.114  -9.237  10.879  1.00  0.00    -0.130 SA
BRANCH  18  19
HETATM   19  C   UNL     1      42.686  -9.143  10.044  1.00  0.00     0.000 A 
HETATM   20  C   UNL     1      43.198  -7.970   9.480  1.00  0.00     0.020 A 
HETATM   21  C   UNL     1      44.435  -7.980   8.825  1.00  0.00     0.025 A 
HETATM   22  C   UNL     1      45.172  -9.160   8.751  1.00  0.00     0.034 A 
HETATM   23 CL   UNL     1      46.688  -9.174   7.938  1.00  0.00    -0.084 Cl
HETATM   24  C   UNL     1      44.690 -10.327   9.335  1.00  0.00     0.025 A 
HETATM   25  C   UNL     1      43.452 -10.315   9.982  1.00  0.00     0.020 A 
ENDBRANCH  18  19
ENDBRANCH  17  18
ENDBRANCH  16  17
ENDBRANCH  15  16
ENDBRANCH  12  15
ENDBRANCH   7  11
BRANCH   6  26
HETATM   26  C   UNL     1      42.885 -11.300   3.656  1.00  0.00     0.252 C 
HETATM   27  N   UNL     1      42.216 -10.324   2.967  1.00  0.00    -0.366 N 
HETATM   28  H   UNL     1      41.233 -10.165   3.155  1.00  0.00     0.159 HD
HETATM   29  H   UNL     1      42.766  -9.493   2.773  1.00  0.00     0.159 HD
HETATM   30  O   UNL     1      44.083 -11.201   3.889  1.00  0.00    -0.268 OA
ENDBRANCH   6  26
BRANCH   1  31
HETATM   31  C   UNL     1      43.178 -16.814   3.100  1.00  0.00     0.273 C 
BRANCH  31  32
HETATM   32  C   UNL     1      43.439 -18.285   3.260  1.00  0.00    -0.033 A 
HETATM   33  C   UNL     1      43.323 -19.179   2.186  1.00  0.00     0.009 A 
HETATM   34  C   UNL     1      43.599 -20.536   2.368  1.00  0.00     0.001 A 
HETATM   35  C   UNL     1      44.009 -21.009   3.613  1.00  0.00     0.000 A 
HETATM   36  C   UNL     1      44.143 -20.129   4.682  1.00  0.00     0.001 A 
HETATM   37  C   UNL     1      43.859 -18.775   4.508  1.00  0.00     0.009 A 
ENDBRANCH  31  32
ENDBRANCH   1  31
TORSDOF 9
ENDMDL
MODEL 6
REMARK VINA RESULT:      -8.9      6.446      9.230
REMARK  9 active torsions:
REMARK  status: ('A' for Active; 'I' for Inactive)
REMARK    1  A    between atoms: C_4  and  C_5 
REMARK    2  A    between atoms: C_5  and  N_6 
REMARK    3  A    between atoms: C_11  and  C_12 
REMARK       I    between atoms: C_12  and  N_13 
REMARK    4  A    between atoms: C_15  and  N_16 
REMARK       I    between atoms: N_16  and  C_17 
REMARK    5  A    between atoms: C_17  and  C_18 
REMARK    6  A    between atoms: C_18  and  C_19 
REMARK    7  A    between atoms: C_19  and  C_20 
REMARK    8  A    between atoms: C_20  and  S_21 
REMARK    9  A    between atoms: S_21  and  C_22 
ROOT
HETATM    1  N   UNL     1      43.093 -16.341   5.674  1.00  0.00    -0.063 N 
HETATM    2  H   UNL     1      43.420 -16.839   6.507  1.00  0.00     0.280 HD
HETATM    3  C   UNL     1      43.205 -14.856   6.012  1.00  0.00     0.282 C 
HETATM    4  C   UNL     1      42.372 -14.033   5.093  1.00  0.00     0.018 C 
HETATM    5  C   UNL     1      41.385 -14.516   4.257  1.00  0.00    -0.023 C 
HETATM    6  C   UNL     1      40.869 -13.478   3.395  1.00  0.00     0.073 C 
HETATM    7  C   UNL     1      41.281 -12.231   3.847  1.00  0.00     0.093 C 
HETATM    8  S   UNL     1      42.511 -12.348   5.019  1.00  0.00    -0.074 SA
HETATM    9  C   UNL     1      41.010 -15.973   4.255  1.00  0.00     0.068 C 
HETATM   10  C   UNL     1      41.631 -16.726   5.453  1.00  0.00     0.240 C 
ENDROOT
BRANCH   7  11
HETATM   11  N   UNL     1      40.841 -10.993   3.403  1.00  0.00    -0.320 N 
HETATM   12  C   UNL     1      41.349 -10.301   2.310  1.00  0.00     0.222 C 
HETATM   13  O   UNL     1      42.268 -10.658   1.584  1.00  0.00    -0.273 OA
HETATM   14  H   UNL     1      40.334 -10.438   4.084  1.00  0.00     0.169 HD
BRANCH  12  15
HETATM   15  C   UNL     1      40.616  -8.984   2.091  1.00  0.00     0.104 C 
BRANCH  15  16
HETATM   16  C   UNL     1      39.179  -9.162   1.603  1.00  0.00     0.020 C 
BRANCH  16  17
HETATM   17  C   UNL     1      38.881  -8.857   0.130  1.00  0.00     0.080 C 
BRANCH  17  18
HETATM   18  S   UNL     1      40.198  -9.234  -1.083  1.00  0.00    -0.130 SA
BRANCH  18  19
HETATM   19  C   UNL     1      39.872 -10.926  -1.541  1.00  0.00     0.000 A 
HETATM   20  C   UNL     1      40.785 -11.737  -2.221  1.00  0.00     0.020 A 
HETATM   21  C   UNL     1      40.449 -13.052  -2.562  1.00  0.00     0.025 A 
HETATM   22  C   UNL     1      39.205 -13.566  -2.202  1.00  0.00     0.034 A 
HETATM   23 CL   UNL     1      38.788 -15.179  -2.629  1.00  0.00    -0.084 Cl
HETATM   24  C   UNL     1      38.298 -12.781  -1.497  1.00  0.00     0.025 A 
HETATM   25  C   UNL     1      38.634 -11.466  -1.165  1.00  0.00     0.020 A 
ENDBRANCH  18  19
ENDBRANCH  17  18
ENDBRANCH  16  17
ENDBRANCH  15  16
ENDBRANCH  12  15
ENDBRANCH   7  11
BRANCH   6  26
HETATM   26  C   UNL     1      39.959 -13.708   2.276  1.00  0.00     0.252 C 
HETATM   27  N   UNL     1      38.623 -13.620   2.567  1.00  0.00    -0.366 N 
HETATM   28  H   UNL     1      38.320 -13.060   3.355  1.00  0.00     0.159 HD
HETATM   29  H   UNL     1      38.015 -13.599   1.754  1.00  0.00     0.159 HD
HETATM   30  O   UNL     1      40.344 -13.877   1.127  1.00  0.00    -0.268 OA
ENDBRANCH   6  26
BRANCH   1  31
HETATM   31  C   UNL     1      43.972 -16.804   4.534  1.00  0.00     0.273 C 
BRANCH  31  32
HETATM   32  C   UNL     1      43.888 -18.264   4.187  1.00  0.00    -0.033 A 
HETATM   33  C   UNL     1      43.636 -18.701   2.879  1.00  0.00     0.009 A 
HETATM   34  C   UNL     1      43.590 -20.067   2.591  1.00  0.00     0.001 A 
HETATM   35  C   UNL     1      43.813 -21.005   3.597  1.00  0.00     0.000 A 
HETATM   36  C   UNL     1      44.080 -20.583   4.896  1.00  0.00     0.001 A 
HETATM   37  C   UNL     1      44.116 -19.221   5.191  1.00  0.00     0.009 A 
ENDBRANCH  31  32
ENDBRANCH   1  31
TORSDOF 9
ENDMDL
MODEL 7
REMARK VINA RESULT:      -8.6      6.572      9.668
REMARK  9 active torsions:
REMARK  status: ('A' for Active; 'I' for Inactive)
REMARK    1  A    between atoms: C_4  and  C_5 
REMARK    2  A    between atoms: C_5  and  N_6 
REMARK    3  A    between atoms: C_11  and  C_12 
REMARK       I    between atoms: C_12  and  N_13 
REMARK    4  A    between atoms: C_15  and  N_16 
REMARK       I    between atoms: N_16  and  C_17 
REMARK    5  A    between atoms: C_17  and  C_18 
REMARK    6  A    between atoms: C_18  and  C_19 
REMARK    7  A    between atoms: C_19  and  C_20 
REMARK    8  A    between atoms: C_20  and  S_21 
REMARK    9  A    between atoms: S_21  and  C_22 
ROOT
HETATM    1  N   UNL     1      42.902 -16.164   5.470  1.00  0.00    -0.063 N 
HETATM    2  H   UNL     1      42.972 -16.574   6.406  1.00  0.00     0.280 HD
HETATM    3  C   UNL     1      42.990 -14.653   5.676  1.00  0.00     0.282 C 
HETATM    4  C   UNL     1      42.472 -13.921   4.488  1.00  0.00     0.018 C 
HETATM    5  C   UNL     1      41.723 -14.473   3.469  1.00  0.00    -0.023 C 
HETATM    6  C   UNL     1      41.505 -13.526   2.399  1.00  0.00     0.073 C 
HETATM    7  C   UNL     1      41.840 -12.246   2.819  1.00  0.00     0.093 C 
HETATM    8  S   UNL     1      42.705 -12.257   4.286  1.00  0.00    -0.074 SA
HETATM    9  C   UNL     1      41.294 -15.915   3.510  1.00  0.00     0.068 C 
HETATM   10  C   UNL     1      41.537 -16.545   4.901  1.00  0.00     0.240 C 
ENDROOT
BRANCH   7  11
HETATM   11  N   UNL     1      41.593 -11.055   2.152  1.00  0.00    -0.320 N 
HETATM   12  C   UNL     1      40.541 -10.185   2.417  1.00  0.00     0.222 C 
HETATM   13  O   UNL     1      39.664 -10.337   3.258  1.00  0.00    -0.273 OA
HETATM   14  H   UNL     1      42.021 -10.969   1.236  1.00  0.00     0.169 HD
BRANCH  12  15
HETATM   15  C   UNL     1      40.585  -8.961   1.512  1.00  0.00     0.104 C 
BRANCH  15  16
HETATM   16  C   UNL     1      41.194  -9.241   0.139  1.00  0.00     0.020 C 
BRANCH  16  17
HETATM   17  C   UNL     1      40.470  -8.680  -1.091  1.00  0.00     0.080 C 
BRANCH  17  18
HETATM   18  S   UNL     1      40.960  -9.345  -2.723  1.00  0.00    -0.130 SA
BRANCH  18  19
HETATM   19  C   UNL     1      40.251 -10.980  -2.739  1.00  0.00     0.000 A 
HETATM   20  C   UNL     1      38.882 -11.234  -2.614  1.00  0.00     0.020 A 
HETATM   21  C   UNL     1      38.402 -12.549  -2.618  1.00  0.00     0.025 A 
HETATM   22  C   UNL     1      39.290 -13.612  -2.772  1.00  0.00     0.034 A 
HETATM   23 CL   UNL     1      38.701 -15.228  -2.768  1.00  0.00    -0.084 Cl
HETATM   24  C   UNL     1      40.651 -13.372  -2.930  1.00  0.00     0.025 A 
HETATM   25  C   UNL     1      41.127 -12.059  -2.917  1.00  0.00     0.020 A 
ENDBRANCH  18  19
ENDBRANCH  17  18
ENDBRANCH  16  17
ENDBRANCH  15  16
ENDBRANCH  12  15
ENDBRANCH   7  11
BRANCH   6  26
HETATM   26  C   UNL     1      40.918 -13.860   1.105  1.00  0.00     0.252 C 
HETATM   27  N   UNL     1      41.586 -14.806   0.373  1.00  0.00    -0.366 N 
HETATM   28  H   UNL     1      42.172 -15.482   0.849  1.00  0.00     0.159 HD
HETATM   29  H   UNL     1      41.075 -15.157  -0.430  1.00  0.00     0.159 HD
HETATM   30  O   UNL     1      39.849 -13.404   0.720  1.00  0.00    -0.268 OA
ENDBRANCH   6  26
BRANCH   1  31
HETATM   31  C   UNL     1      44.032 -16.764   4.663  1.00  0.00     0.273 C 
BRANCH  31  32
HETATM   32  C   UNL     1      43.920 -18.233   4.362  1.00  0.00    -0.033 A 
HETATM   33  C   UNL     1      43.779 -18.712   3.052  1.00  0.00     0.009 A 
HETATM   34  C   UNL     1      43.704 -20.086   2.810  1.00  0.00     0.001 A 
HETATM   35  C   UNL     1      43.786 -20.990   3.867  1.00  0.00     0.000 A 
HETATM   36  C   UNL     1      43.942 -20.528   5.170  1.00  0.00     0.001 A 
HETATM   37  C   UNL     1      44.007 -19.157   5.417  1.00  0.00     0.009 A 
ENDBRANCH  31  32
ENDBRANCH   1  31
TORSDOF 9
ENDMDL
MODEL 8
REMARK VINA RESULT:      -8.6      3.913     11.230
REMARK  9 active torsions:
REMARK  status: ('A' for Active; 'I' for Inactive)
REMARK    1  A    between atoms: C_4  and  C_5 
REMARK    2  A    between atoms: C_5  and  N_6 
REMARK    3  A    between atoms: C_11  and  C_12 
REMARK       I    between atoms: C_12  and  N_13 
REMARK    4  A    between atoms: C_15  and  N_16 
REMARK       I    between atoms: N_16  and  C_17 
REMARK    5  A    between atoms: C_17  and  C_18 
REMARK    6  A    between atoms: C_18  and  C_19 
REMARK    7  A    between atoms: C_19  and  C_20 
REMARK    8  A    between atoms: C_20  and  S_21 
REMARK    9  A    between atoms: S_21  and  C_22 
ROOT
HETATM    1  N   UNL     1      43.965  -9.161  10.415  1.00  0.00    -0.063 N 
HETATM    2  H   UNL     1      44.717  -8.765  10.986  1.00  0.00     0.280 HD
HETATM    3  C   UNL     1      44.648 -10.123   9.445  1.00  0.00     0.282 C 
HETATM    4  C   UNL     1      43.765 -10.431   8.287  1.00  0.00     0.018 C 
HETATM    5  C   UNL     1      42.627  -9.732   7.937  1.00  0.00    -0.023 C 
HETATM    6  C   UNL     1      41.924 -10.377   6.851  1.00  0.00     0.073 C 
HETATM    7  C   UNL     1      42.733 -11.339   6.261  1.00  0.00     0.093 C 
HETATM    8  S   UNL     1      44.111 -11.683   7.201  1.00  0.00    -0.074 SA
HETATM    9  C   UNL     1      42.203  -8.504   8.696  1.00  0.00     0.068 C 
HETATM   10  C   UNL     1      43.313  -8.009   9.651  1.00  0.00     0.240 C 
ENDROOT
BRANCH   7  11
HETATM   11  N   UNL     1      42.489 -12.029   5.083  1.00  0.00    -0.320 N 
HETATM   12  C   UNL     1      41.568 -13.059   4.928  1.00  0.00     0.222 C 
HETATM   13  O   UNL     1      40.847 -13.530   5.799  1.00  0.00    -0.273 OA
HETATM   14  H   UNL     1      43.225 -11.983   4.387  1.00  0.00     0.169 HD
BRANCH  12  15
HETATM   15  C   UNL     1      41.540 -13.575   3.496  1.00  0.00     0.104 C 
BRANCH  15  16
HETATM   16  C   UNL     1      40.955 -14.981   3.366  1.00  0.00     0.020 C 
BRANCH  16  17
HETATM   17  C   UNL     1      41.199 -15.737   2.056  1.00  0.00     0.080 C 
BRANCH  17  18
HETATM   18  S   UNL     1      42.935 -16.114   1.619  1.00  0.00    -0.130 SA
BRANCH  18  19
HETATM   19  C   UNL     1      43.368 -17.438   2.730  1.00  0.00     0.000 A 
HETATM   20  C   UNL     1      43.685 -17.249   4.079  1.00  0.00     0.020 A 
HETATM   21  C   UNL     1      44.033 -18.339   4.885  1.00  0.00     0.025 A 
HETATM   22  C   UNL     1      44.042 -19.624   4.348  1.00  0.00     0.034 A 
HETATM   23 CL   UNL     1      44.478 -20.963   5.337  1.00  0.00    -0.084 Cl
HETATM   24  C   UNL     1      43.698 -19.832   3.016  1.00  0.00     0.025 A 
HETATM   25  C   UNL     1      43.359 -18.740   2.213  1.00  0.00     0.020 A 
ENDBRANCH  18  19
ENDBRANCH  17  18
ENDBRANCH  16  17
ENDBRANCH  15  16
ENDBRANCH  12  15
ENDBRANCH   7  11
BRANCH   6  26
HETATM   26  C   UNL     1      40.595  -9.993   6.382  1.00  0.00     0.252 C 
HETATM   27  N   UNL     1      39.564 -10.795   6.793  1.00  0.00    -0.366 N 
HETATM   28  H   UNL     1      39.660 -11.333   7.646  1.00  0.00     0.159 HD
HETATM   29  H   UNL     1      38.639 -10.417   6.615  1.00  0.00     0.159 HD
HETATM   30  O   UNL     1      40.384  -8.974   5.739  1.00  0.00    -0.268 OA
ENDBRANCH   6  26
BRANCH   1  31
HETATM   31  C   UNL     1      42.998  -9.809  11.381  1.00  0.00     0.273 C 
BRANCH  31  32
HETATM   32  C   UNL     1      42.691  -9.029  12.629  1.00  0.00    -0.033 A 
HETATM   33  C   UNL     1      41.663  -9.406  13.504  1.00  0.00     0.009 A 
HETATM   34  C   UNL     1      41.424  -8.670  14.667  1.00  0.00     0.001 A 
HETATM   35  C   UNL     1      42.218  -7.567  14.976  1.00  0.00     0.000 A 
HETATM   36  C   UNL     1      43.252  -7.193  14.124  1.00  0.00     0.001 A 
HETATM   37  C   UNL     1      43.487  -7.918  12.955  1.00  0.00     0.009 A 
ENDBRANCH  31  32
ENDBRANCH   1  31
TORSDOF 9
ENDMDL
MODEL 9
REMARK VINA RESULT:      -8.4      2.152      2.636
REMARK  9 active torsions:
REMARK  status: ('A' for Active; 'I' for Inactive)
REMARK    1  A    between atoms: C_4  and  C_5 
REMARK    2  A    between atoms: C_5  and  N_6 
REMARK    3  A    between atoms: C_11  and  C_12 
REMARK       I    between atoms: C_12  and  N_13 
REMARK    4  A    between atoms: C_15  and  N_16 
REMARK       I    between atoms: N_16  and  C_17 
REMARK    5  A    between atoms: C_17  and  C_18 
REMARK    6  A    between atoms: C_18  and  C_19 
REMARK    7  A    between atoms: C_19  and  C_20 
REMARK    8  A    between atoms: C_20  and  S_21 
REMARK    9  A    between atoms: S_21  and  C_22 
ROOT
HETATM    1  N   UNL     1      41.482 -14.936   2.385  1.00  0.00    -0.063 N 
HETATM    2  H   UNL     1      41.376 -15.282   1.427  1.00  0.00     0.280 HD
HETATM    3  C   UNL     1      40.469 -13.802   2.528  1.00  0.00     0.282 C 
HETATM    4  C   UNL     1      40.802 -12.931   3.689  1.00  0.00     0.018 C 
HETATM    5  C   UNL     1      42.005 -12.921   4.365  1.00  0.00    -0.023 C 
HETATM    6  C   UNL     1      41.951 -12.065   5.528  1.00  0.00     0.073 C 
HETATM    7  C   UNL     1      40.821 -11.261   5.477  1.00  0.00     0.093 C 
HETATM    8  S   UNL     1      39.719 -11.776   4.285  1.00  0.00    -0.074 SA
HETATM    9  C   UNL     1      43.156 -13.784   3.922  1.00  0.00     0.068 C 
HETATM   10  C   UNL     1      42.905 -14.399   2.526  1.00  0.00     0.240 C 
ENDROOT
BRANCH   7  11
HETATM   11  N   UNL     1      40.520 -10.188   6.304  1.00  0.00    -0.320 N 
HETATM   12  C   UNL     1      39.591 -10.203   7.338  1.00  0.00     0.222 C 
HETATM   13  O   UNL     1      38.885 -11.146   7.671  1.00  0.00    -0.273 OA
HETATM   14  H   UNL     1      40.768  -9.273   5.943  1.00  0.00     0.169 HD
BRANCH  12  15
HETATM   15  C   UNL     1      39.532  -8.862   8.057  1.00  0.00     0.104 C 
BRANCH  15  16
HETATM   16  C   UNL     1      40.105  -8.904   9.473  1.00  0.00     0.020 C 
BRANCH  16  17
HETATM   17  C   UNL     1      41.608  -8.655   9.644  1.00  0.00     0.080 C 
BRANCH  17  18
HETATM   18  S   UNL     1      42.519  -9.779  10.763  1.00  0.00    -0.130 SA
BRANCH  18  19
HETATM   19  C   UNL     1      42.440  -8.954  12.341  1.00  0.00     0.000 A 
HETATM   20  C   UNL     1      43.301  -7.920  12.722  1.00  0.00     0.020 A 
HETATM   21  C   UNL     1      43.187  -7.332  13.987  1.00  0.00     0.025 A 
HETATM   22  C   UNL     1      42.195  -7.763  14.865  1.00  0.00     0.034 A 
HETATM   23 CL   UNL     1      42.061  -7.046  16.423  1.00  0.00    -0.084 Cl
HETATM   24  C   UNL     1      41.311  -8.768  14.488  1.00  0.00     0.025 A 
HETATM   25  C   UNL     1      41.432  -9.358  13.227  1.00  0.00     0.020 A 
ENDBRANCH  18  19
ENDBRANCH  17  18
ENDBRANCH  16  17
ENDBRANCH  15  16
ENDBRANCH  12  15
ENDBRANCH   7  11
BRANCH   6  26
HETATM   26  C   UNL     1      42.992 -11.989   6.549  1.00  0.00     0.252 C 
HETATM   27  N   UNL     1      43.178 -13.123   7.295  1.00  0.00    -0.366 N 
HETATM   28  H   UNL     1      42.917 -14.022   6.909  1.00  0.00     0.159 HD
HETATM   29  H   UNL     1      44.016 -13.117   7.868  1.00  0.00     0.159 HD
HETATM   30  O   UNL     1      43.723 -11.017   6.684  1.00  0.00    -0.268 OA
ENDBRANCH   6  26
BRANCH   1  31
HETATM   31  C   UNL     1      41.241 -16.125   3.290  1.00  0.00     0.273 C 
BRANCH  31  32
HETATM   32  C   UNL     1      42.340 -17.148   3.341  1.00  0.00    -0.033 A 
HETATM   33  C   UNL     1      43.152 -17.308   4.473  1.00  0.00     0.009 A 
HETATM   34  C   UNL     1      44.147 -18.288   4.492  1.00  0.00     0.001 A 
HETATM   35  C   UNL     1      44.329 -19.126   3.394  1.00  0.00     0.000 A 
HETATM   36  C   UNL     1      43.519 -18.988   2.271  1.00  0.00     0.001 A 
HETATM   37  C   UNL     1      42.531 -18.004   2.243  1.00  0.00     0.009 A 
ENDBRANCH  31  32
ENDBRANCH   1  31
TORSDOF 9
ENDMDL
MODEL 10
REMARK VINA RESULT:      -8.3      3.456      4.555
REMARK  9 active torsions:
REMARK  status: ('A' for Active; 'I' for Inactive)
REMARK    1  A    between atoms: C_4  and  C_5 
REMARK    2  A    between atoms: C_5  and  N_6 
REMARK    3  A    between atoms: C_11  and  C_12 
REMARK       I    between atoms: C_12  and  N_13 
REMARK    4  A    between atoms: C_15  and  N_16 
REMARK       I    between atoms: N_16  and  C_17 
REMARK    5  A    between atoms: C_17  and  C_18 
REMARK    6  A    between atoms: C_18  and  C_19 
REMARK    7  A    between atoms: C_19  and  C_20 
REMARK    8  A    between atoms: C_20  and  S_21 
REMARK    9  A    between atoms: S_21  and  C_22 
ROOT
HETATM    1  N   UNL     1      42.938 -16.522   5.755  1.00  0.00    -0.063 N 
HETATM    2  H   UNL     1      43.207 -17.140   6.527  1.00  0.00     0.280 HD
HETATM    3  C   UNL     1      43.059 -15.102   6.304  1.00  0.00     0.282 C 
HETATM    4  C   UNL     1      42.296 -14.138   5.466  1.00  0.00     0.018 C 
HETATM    5  C   UNL     1      41.350 -14.472   4.517  1.00  0.00    -0.023 C 
HETATM    6  C   UNL     1      40.905 -13.311   3.782  1.00  0.00     0.073 C 
HETATM    7  C   UNL     1      41.314 -12.151   4.427  1.00  0.00     0.093 C 
HETATM    8  S   UNL     1      42.472 -12.463   5.636  1.00  0.00    -0.074 SA
HETATM    9  C   UNL     1      40.948 -15.904   4.289  1.00  0.00     0.068 C 
HETATM   10  C   UNL     1      41.484 -16.833   5.402  1.00  0.00     0.240 C 
ENDROOT
BRANCH   7  11
HETATM   11  N   UNL     1      40.924 -10.851   4.138  1.00  0.00    -0.320 N 
HETATM   12  C   UNL     1      39.784 -10.223   4.628  1.00  0.00     0.222 C 
HETATM   13  O   UNL     1      38.942 -10.716   5.368  1.00  0.00    -0.273 OA
HETATM   14  H   UNL     1      41.327 -10.449   3.298  1.00  0.00     0.169 HD
BRANCH  12  15
HETATM   15  C   UNL     1      39.677  -8.789   4.129  1.00  0.00     0.104 C 
BRANCH  15  16
HETATM   16  C   UNL     1      41.029  -8.093   3.981  1.00  0.00     0.020 C 
BRANCH  16  17
HETATM   17  C   UNL     1      41.357  -6.954   4.954  1.00  0.00     0.080 C 
BRANCH  17  18
HETATM   18  S   UNL     1      40.673  -7.078   6.645  1.00  0.00    -0.130 SA
BRANCH  18  19
HETATM   19  C   UNL     1      41.981  -7.861   7.569  1.00  0.00     0.000 A 
HETATM   20  C   UNL     1      42.207  -9.241   7.581  1.00  0.00     0.020 A 
HETATM   21  C   UNL     1      43.246  -9.782   8.346  1.00  0.00     0.025 A 
HETATM   22  C   UNL     1      44.076  -8.941   9.084  1.00  0.00     0.034 A 
HETATM   23 CL   UNL     1      45.347  -9.608  10.032  1.00  0.00    -0.084 Cl
HETATM   24  C   UNL     1      43.883  -7.564   9.057  1.00  0.00     0.025 A 
HETATM   25  C   UNL     1      42.840  -7.027   8.298  1.00  0.00     0.020 A 
ENDBRANCH  18  19
ENDBRANCH  17  18
ENDBRANCH  16  17
ENDBRANCH  15  16
ENDBRANCH  12  15
ENDBRANCH   7  11
BRANCH   6  26
HETATM   26  C   UNL     1      40.057 -13.358   2.594  1.00  0.00     0.252 C 
HETATM   27  N   UNL     1      38.709 -13.419   2.826  1.00  0.00    -0.366 N 
HETATM   28  H   UNL     1      38.336 -13.057   3.696  1.00  0.00     0.159 HD
HETATM   29  H   UNL     1      38.132 -13.267   2.005  1.00  0.00     0.159 HD
HETATM   30  O   UNL     1      40.498 -13.257   1.456  1.00  0.00    -0.268 OA
ENDBRANCH   6  26
BRANCH   1  31
HETATM   31  C   UNL     1      43.873 -16.845   4.611  1.00  0.00     0.273 C 
BRANCH  31  32
HETATM   32  C   UNL     1      43.811 -18.252   4.086  1.00  0.00    -0.033 A 
HETATM   33  C   UNL     1      43.516 -18.530   2.744  1.00  0.00     0.009 A 
HETATM   34  C   UNL     1      43.492 -19.850   2.288  1.00  0.00     0.001 A 
HETATM   35  C   UNL     1      43.780 -20.900   3.159  1.00  0.00     0.000 A 
HETATM   36  C   UNL     1      44.091 -20.636   4.489  1.00  0.00     0.001 A 
HETATM   37  C   UNL     1      44.104 -19.320   4.952  1.00  0.00     0.009 A 
ENDBRANCH  31  32
ENDBRANCH   1  31
TORSDOF 9
ENDMDL
