MODEL 1
REMARK VINA RESULT:      -9.2      0.000      0.000
REMARK  9 active torsions:
REMARK  status: ('A' for Active; 'I' for Inactive)
REMARK    1  A    between atoms: C_2  and  N_3 
REMARK    2  A    between atoms: N_3  and  C_4 
REMARK    3  A    between atoms: N_3  and  C_32 
REMARK    4  A    between atoms: C_7  and  C_8 
REMARK       I    between atoms: C_8  and  N_9 
REMARK    5  A    between atoms: N_9  and  C_10 
REMARK    6  A    between atoms: C_10  and  N_11 
REMARK    7  A    between atoms: N_11  and  C_12 
REMARK    8  A    between atoms: C_14  and  C_15 
REMARK    9  A    between atoms: C_24  and  O_25 
ROOT
HETATM    1  N   UNL     1      42.666 -11.913   6.595  1.00  0.00    -0.337 N 
HETATM    2  H   UNL     1      42.492 -12.481   7.420  1.00  0.00     0.168 HD
ENDROOT
BRANCH   1   3
HETATM    3  C   UNL     1      42.646 -10.558   6.839  1.00  0.00     0.157 C 
HETATM    4  S   UNL     1      41.216  -9.736   6.576  1.00  0.00    -0.047 SA
BRANCH   3   5
HETATM    5  N   UNL     1      43.812 -10.042   7.376  1.00  0.00    -0.201 NA
HETATM    6  C   UNL     1      44.372 -10.425   8.581  1.00  0.00     0.237 C 
HETATM    7  O   UNL     1      45.394 -11.108   8.591  1.00  0.00    -0.274 OA
HETATM    8  H   UNL     1      44.531 -10.137   6.666  1.00  0.00     0.139 HD
BRANCH   6   9
HETATM    9  C   UNL     1      43.799  -9.890   9.848  1.00  0.00     0.026 A 
HETATM   10  C   UNL     1      43.562 -10.785  10.892  1.00  0.00     0.019 A 
HETATM   11  C   UNL     1      43.154 -10.322  12.150  1.00  0.00     0.030 A 
HETATM   12  C   UNL     1      42.990  -8.955  12.422  1.00  0.00     0.030 A 
HETATM   13  C   UNL     1      43.177  -8.082  11.333  1.00  0.00     0.030 A 
HETATM   14  C   UNL     1      43.585  -8.530  10.067  1.00  0.00     0.019 A 
BRANCH  12  15
HETATM   15  N   UNL     1      42.645  -8.466  13.685  1.00  0.00    -0.382 N 
BRANCH  15  16
HETATM   16  C   UNL     1      41.373  -8.921  14.272  1.00  0.00     0.118 C 
HETATM   17  C   UNL     1      40.214  -8.567  13.352  1.00  0.00     0.026 C 
ENDBRANCH  15  16
BRANCH  15  18
HETATM   18  C   UNL     1      43.107  -7.145  14.142  1.00  0.00     0.118 C 
HETATM   19  C   UNL     1      42.516  -6.796  15.500  1.00  0.00     0.026 C 
ENDBRANCH  15  18
ENDBRANCH  12  15
ENDBRANCH   6   9
ENDBRANCH   3   5
ENDBRANCH   1   3
BRANCH   1  20
HETATM   20  C   UNL     1      42.837 -12.612   5.381  1.00  0.00     0.035 A 
HETATM   21  C   UNL     1      42.867 -14.012   5.312  1.00  0.00     0.046 A 
HETATM   22  C   UNL     1      43.114 -14.688   4.100  1.00  0.00     0.035 A 
HETATM   23  C   UNL     1      43.294 -13.900   2.949  1.00  0.00     0.078 A 
HETATM   24  C   UNL     1      43.270 -12.507   3.006  1.00  0.00     0.040 A 
HETATM   25  C   UNL     1      43.068 -11.863   4.227  1.00  0.00     0.032 A 
BRANCH  22  26
HETATM   26  C   UNL     1      43.251 -16.161   4.025  1.00  0.00     0.112 A 
HETATM   27  S   UNL     1      43.844 -17.108   5.336  1.00  0.00    -0.067 SA
HETATM   28  C   UNL     1      43.797 -18.522   4.362  1.00  0.00     0.035 A 
HETATM   29  C   UNL     1      43.287 -18.189   3.108  1.00  0.00     0.075 A 
HETATM   30  C   UNL     1      44.189 -19.831   4.683  1.00  0.00     0.021 A 
HETATM   31  N   UNL     1      42.962 -16.853   2.935  1.00  0.00    -0.239 NA
HETATM   32  C   UNL     1      43.160 -19.204   2.137  1.00  0.00     0.033 A 
HETATM   33  C   UNL     1      43.555 -20.511   2.442  1.00  0.00     0.002 A 
HETATM   34  C   UNL     1      44.063 -20.818   3.700  1.00  0.00     0.002 A 
ENDBRANCH  22  26
BRANCH  23  35
HETATM   35  O   UNL     1      43.526 -14.433   1.705  1.00  0.00    -0.360 OA
HETATM   36  H   UNL     1      42.667 -14.479   1.231  1.00  0.00     0.217 HD
ENDBRANCH  23  35
ENDBRANCH   1  20
TORSDOF 9
ENDMDL
MODEL 2
REMARK VINA RESULT:      -9.2      3.150      9.521
REMARK  9 active torsions:
REMARK  status: ('A' for Active; 'I' for Inactive)
REMARK    1  A    between atoms: C_2  and  N_3 
REMARK    2  A    between atoms: N_3  and  C_4 
REMARK    3  A    between atoms: N_3  and  C_32 
REMARK    4  A    between atoms: C_7  and  C_8 
REMARK       I    between atoms: C_8  and  N_9 
REMARK    5  A    between atoms: N_9  and  C_10 
REMARK    6  A    between atoms: C_10  and  N_11 
REMARK    7  A    between atoms: N_11  and  C_12 
REMARK    8  A    between atoms: C_14  and  C_15 
REMARK    9  A    between atoms: C_24  and  O_25 
ROOT
HETATM    1  N   UNL     1      41.393 -11.717   1.580  1.00  0.00    -0.337 N 
HETATM    2  H   UNL     1      42.322 -11.372   1.352  1.00  0.00     0.168 HD
ENDROOT
BRANCH   1   3
HETATM    3  C   UNL     1      40.634 -12.042   0.478  1.00  0.00     0.157 C 
HETATM    4  S   UNL     1      39.509 -10.928  -0.054  1.00  0.00    -0.047 SA
BRANCH   3   5
HETATM    5  N   UNL     1      40.968 -13.240  -0.130  1.00  0.00    -0.201 NA
HETATM    6  C   UNL     1      40.440 -14.475   0.199  1.00  0.00     0.237 C 
HETATM    7  O   UNL     1      39.640 -15.019  -0.558  1.00  0.00    -0.274 OA
HETATM    8  H   UNL     1      40.834 -13.110  -1.127  1.00  0.00     0.139 HD
BRANCH   6   9
HETATM    9  C   UNL     1      40.955 -15.184   1.404  1.00  0.00     0.026 A 
HETATM   10  C   UNL     1      42.335 -15.203   1.616  1.00  0.00     0.019 A 
HETATM   11  C   UNL     1      42.868 -15.734   2.798  1.00  0.00     0.030 A 
HETATM   12  C   UNL     1      42.051 -16.242   3.820  1.00  0.00     0.030 A 
HETATM   13  C   UNL     1      40.668 -16.264   3.552  1.00  0.00     0.030 A 
HETATM   14  C   UNL     1      40.119 -15.737   2.372  1.00  0.00     0.019 A 
BRANCH  12  15
HETATM   15  N   UNL     1      42.556 -16.718   5.032  1.00  0.00    -0.382 N 
BRANCH  15  16
HETATM   16  C   UNL     1      41.895 -16.274   6.271  1.00  0.00     0.118 C 
HETATM   17  C   UNL     1      42.413 -14.903   6.681  1.00  0.00     0.026 C 
ENDBRANCH  15  16
BRANCH  15  18
HETATM   18  C   UNL     1      43.976 -17.080   5.177  1.00  0.00     0.118 C 
HETATM   19  C   UNL     1      44.214 -18.533   4.791  1.00  0.00     0.026 C 
ENDBRANCH  15  18
ENDBRANCH  12  15
ENDBRANCH   6   9
ENDBRANCH   3   5
ENDBRANCH   1   3
BRANCH   1  20
HETATM   20  C   UNL     1      41.056 -11.740   2.951  1.00  0.00     0.035 A 
HETATM   21  C   UNL     1      41.891 -11.210   3.944  1.00  0.00     0.046 A 
HETATM   22  C   UNL     1      41.569 -11.311   5.313  1.00  0.00     0.035 A 
HETATM   23  C   UNL     1      40.353 -11.936   5.643  1.00  0.00     0.078 A 
HETATM   24  C   UNL     1      39.517 -12.471   4.663  1.00  0.00     0.040 A 
HETATM   25  C   UNL     1      39.882 -12.396   3.320  1.00  0.00     0.032 A 
BRANCH  22  26
HETATM   26  C   UNL     1      42.486 -10.849   6.381  1.00  0.00     0.112 A 
HETATM   27  S   UNL     1      44.136 -11.332   6.464  1.00  0.00    -0.067 SA
HETATM   28  C   UNL     1      44.322 -10.510   7.961  1.00  0.00     0.035 A 
HETATM   29  C   UNL     1      43.121  -9.879   8.281  1.00  0.00     0.075 A 
HETATM   30  C   UNL     1      45.449 -10.434   8.795  1.00  0.00     0.021 A 
HETATM   31  N   UNL     1      42.094 -10.061   7.368  1.00  0.00    -0.239 NA
HETATM   32  C   UNL     1      43.044  -9.139   9.479  1.00  0.00     0.033 A 
HETATM   33  C   UNL     1      44.157  -9.063  10.322  1.00  0.00     0.002 A 
HETATM   34  C   UNL     1      45.344  -9.704   9.982  1.00  0.00     0.002 A 
ENDBRANCH  22  26
BRANCH  23  35
HETATM   35  O   UNL     1      39.916 -12.086   6.936  1.00  0.00    -0.360 OA
HETATM   36  H   UNL     1      39.308 -12.857   6.961  1.00  0.00     0.217 HD
ENDBRANCH  23  35
ENDBRANCH   1  20
TORSDOF 9
ENDMDL
MODEL 3
REMARK VINA RESULT:      -9.0      3.509      9.906
REMARK  9 active torsions:
REMARK  status: ('A' for Active; 'I' for Inactive)
REMARK    1  A    between atoms: C_2  and  N_3 
REMARK    2  A    between atoms: N_3  and  C_4 
REMARK    3  A    between atoms: N_3  and  C_32 
REMARK    4  A    between atoms: C_7  and  C_8 
REMARK       I    between atoms: C_8  and  N_9 
REMARK    5  A    between atoms: N_9  and  C_10 
REMARK    6  A    between atoms: C_10  and  N_11 
REMARK    7  A    between atoms: N_11  and  C_12 
REMARK    8  A    between atoms: C_14  and  C_15 
REMARK    9  A    between atoms: C_24  and  O_25 
ROOT
HETATM    1  N   UNL     1      39.447 -13.345   3.305  1.00  0.00    -0.337 N 
HETATM    2  H   UNL     1      38.703 -14.019   3.145  1.00  0.00     0.168 HD
ENDROOT
BRANCH   1   3
HETATM    3  C   UNL     1      39.510 -12.350   2.354  1.00  0.00     0.157 C 
HETATM    4  S   UNL     1      38.559 -10.996   2.576  1.00  0.00    -0.047 SA
BRANCH   3   5
HETATM    5  N   UNL     1      40.447 -12.552   1.356  1.00  0.00    -0.201 NA
HETATM    6  C   UNL     1      40.613 -13.727   0.645  1.00  0.00     0.237 C 
HETATM    7  O   UNL     1      40.252 -13.787  -0.528  1.00  0.00    -0.274 OA
HETATM    8  H   UNL     1      40.322 -11.805   0.681  1.00  0.00     0.139 HD
BRANCH   6   9
HETATM    9  C   UNL     1      41.350 -14.856   1.276  1.00  0.00     0.026 A 
HETATM   10  C   UNL     1      42.670 -14.638   1.677  1.00  0.00     0.019 A 
HETATM   11  C   UNL     1      43.368 -15.616   2.397  1.00  0.00     0.030 A 
HETATM   12  C   UNL     1      42.775 -16.833   2.766  1.00  0.00     0.030 A 
HETATM   13  C   UNL     1      41.465 -17.050   2.296  1.00  0.00     0.030 A 
HETATM   14  C   UNL     1      40.752 -16.080   1.572  1.00  0.00     0.019 A 
BRANCH  12  15
HETATM   15  N   UNL     1      43.429 -17.796   3.537  1.00  0.00    -0.382 N 
BRANCH  15  16
HETATM   16  C   UNL     1      43.815 -17.429   4.910  1.00  0.00     0.118 C 
HETATM   17  C   UNL     1      43.653 -18.623   5.840  1.00  0.00     0.026 C 
ENDBRANCH  15  16
BRANCH  15  18
HETATM   18  C   UNL     1      44.264 -18.836   2.911  1.00  0.00     0.118 C 
HETATM   19  C   UNL     1      43.408 -19.959   2.343  1.00  0.00     0.026 C 
ENDBRANCH  15  18
ENDBRANCH  12  15
ENDBRANCH   6   9
ENDBRANCH   3   5
ENDBRANCH   1   3
BRANCH   1  20
HETATM   20  C   UNL     1      40.282 -13.591   4.415  1.00  0.00     0.035 A 
HETATM   21  C   UNL     1      41.144 -12.619   4.943  1.00  0.00     0.046 A 
HETATM   22  C   UNL     1      42.024 -12.909   6.006  1.00  0.00     0.035 A 
HETATM   23  C   UNL     1      41.977 -14.208   6.543  1.00  0.00     0.078 A 
HETATM   24  C   UNL     1      41.128 -15.184   6.023  1.00  0.00     0.040 A 
HETATM   25  C   UNL     1      40.300 -14.882   4.942  1.00  0.00     0.032 A 
BRANCH  22  26
HETATM   26  C   UNL     1      43.012 -11.927   6.510  1.00  0.00     0.112 A 
HETATM   27  S   UNL     1      44.710 -12.209   6.461  1.00  0.00    -0.067 SA
HETATM   28  C   UNL     1      44.997 -10.747   7.316  1.00  0.00     0.035 A 
HETATM   29  C   UNL     1      43.778 -10.112   7.546  1.00  0.00     0.075 A 
HETATM   30  C   UNL     1      46.214 -10.204   7.757  1.00  0.00     0.021 A 
HETATM   31  N   UNL     1      42.662 -10.780   7.067  1.00  0.00    -0.239 NA
HETATM   32  C   UNL     1      43.773  -8.885   8.240  1.00  0.00     0.033 A 
HETATM   33  C   UNL     1      44.979  -8.337   8.692  1.00  0.00     0.002 A 
HETATM   34  C   UNL     1      46.183  -8.992   8.453  1.00  0.00     0.002 A 
ENDBRANCH  22  26
BRANCH  23  35
HETATM   35  O   UNL     1      42.770 -14.615   7.588  1.00  0.00    -0.360 OA
HETATM   36  H   UNL     1      42.184 -14.985   8.285  1.00  0.00     0.217 HD
ENDBRANCH  23  35
ENDBRANCH   1  20
TORSDOF 9
ENDMDL
MODEL 4
REMARK VINA RESULT:      -8.8      3.865      9.373
REMARK  9 active torsions:
REMARK  status: ('A' for Active; 'I' for Inactive)
REMARK    1  A    between atoms: C_2  and  N_3 
REMARK    2  A    between atoms: N_3  and  C_4 
REMARK    3  A    between atoms: N_3  and  C_32 
REMARK    4  A    between atoms: C_7  and  C_8 
REMARK       I    between atoms: C_8  and  N_9 
REMARK    5  A    between atoms: N_9  and  C_10 
REMARK    6  A    between atoms: C_10  and  N_11 
REMARK    7  A    between atoms: N_11  and  C_12 
REMARK    8  A    between atoms: C_14  and  C_15 
REMARK    9  A    between atoms: C_24  and  O_25 
ROOT
HETATM    1  N   UNL     1      40.017 -11.061   1.592  1.00  0.00    -0.337 N 
HETATM    2  H   UNL     1      40.337 -10.118   1.385  1.00  0.00     0.168 HD
ENDROOT
BRANCH   1   3
HETATM    3  C   UNL     1      39.473 -11.713   0.508  1.00  0.00     0.157 C 
HETATM    4  S   UNL     1      37.910 -11.325   0.065  1.00  0.00    -0.047 SA
BRANCH   3   5
HETATM    5  N   UNL     1      40.338 -12.562  -0.160  1.00  0.00    -0.201 NA
HETATM    6  C   UNL     1      40.321 -13.942  -0.080  1.00  0.00     0.237 C 
HETATM    7  O   UNL     1      39.913 -14.605  -1.031  1.00  0.00    -0.274 OA
HETATM    8  H   UNL     1      40.291 -12.316  -1.143  1.00  0.00     0.139 HD
BRANCH   6   9
HETATM    9  C   UNL     1      40.922 -14.605   1.111  1.00  0.00     0.026 A 
HETATM   10  C   UNL     1      42.151 -14.133   1.576  1.00  0.00     0.019 A 
HETATM   11  C   UNL     1      42.699 -14.623   2.768  1.00  0.00     0.030 A 
HETATM   12  C   UNL     1      42.038 -15.582   3.552  1.00  0.00     0.030 A 
HETATM   13  C   UNL     1      40.831 -16.084   3.026  1.00  0.00     0.030 A 
HETATM   14  C   UNL     1      40.269 -15.602   1.833  1.00  0.00     0.019 A 
BRANCH  12  15
HETATM   15  N   UNL     1      42.535 -16.039   4.775  1.00  0.00    -0.382 N 
BRANCH  15  16
HETATM   16  C   UNL     1      43.857 -16.687   4.778  1.00  0.00     0.118 C 
HETATM   17  C   UNL     1      43.750 -18.103   4.230  1.00  0.00     0.026 C 
ENDBRANCH  15  16
BRANCH  15  18
HETATM   18  C   UNL     1      41.628 -16.465   5.854  1.00  0.00     0.118 C 
HETATM   19  C   UNL     1      42.155 -16.038   7.216  1.00  0.00     0.026 C 
ENDBRANCH  15  18
ENDBRANCH  12  15
ENDBRANCH   6   9
ENDBRANCH   3   5
ENDBRANCH   1   3
BRANCH   1  20
HETATM   20  C   UNL     1      40.144 -11.483   2.933  1.00  0.00     0.035 A 
HETATM   21  C   UNL     1      41.123 -10.973   3.796  1.00  0.00     0.046 A 
HETATM   22  C   UNL     1      41.280 -11.463   5.109  1.00  0.00     0.035 A 
HETATM   23  C   UNL     1      40.387 -12.463   5.533  1.00  0.00     0.078 A 
HETATM   24  C   UNL     1      39.412 -12.981   4.681  1.00  0.00     0.040 A 
HETATM   25  C   UNL     1      39.309 -12.509   3.373  1.00  0.00     0.032 A 
BRANCH  22  26
HETATM   26  C   UNL     1      42.372 -11.009   6.002  1.00  0.00     0.112 A 
HETATM   27  S   UNL     1      42.163  -9.756   7.164  1.00  0.00    -0.067 SA
HETATM   28  C   UNL     1      43.833  -9.819   7.561  1.00  0.00     0.035 A 
HETATM   29  C   UNL     1      44.438 -10.827   6.812  1.00  0.00     0.075 A 
HETATM   30  C   UNL     1      44.558  -9.029   8.468  1.00  0.00     0.021 A 
HETATM   31  N   UNL     1      43.596 -11.508   5.947  1.00  0.00    -0.239 NA
HETATM   32  C   UNL     1      45.819 -11.059   6.976  1.00  0.00     0.033 A 
HETATM   33  C   UNL     1      46.553 -10.272   7.871  1.00  0.00     0.002 A 
HETATM   34  C   UNL     1      45.928  -9.270   8.605  1.00  0.00     0.002 A 
ENDBRANCH  22  26
BRANCH  23  35
HETATM   35  O   UNL     1      40.422 -13.014   6.790  1.00  0.00    -0.360 OA
HETATM   36  H   UNL     1      41.088 -12.521   7.317  1.00  0.00     0.217 HD
ENDBRANCH  23  35
ENDBRANCH   1  20
TORSDOF 9
ENDMDL
MODEL 5
REMARK VINA RESULT:      -8.7      2.198     11.041
REMARK  9 active torsions:
REMARK  status: ('A' for Active; 'I' for Inactive)
REMARK    1  A    between atoms: C_2  and  N_3 
REMARK    2  A    between atoms: N_3  and  C_4 
REMARK    3  A    between atoms: N_3  and  C_32 
REMARK    4  A    between atoms: C_7  and  C_8 
REMARK       I    between atoms: C_8  and  N_9 
REMARK    5  A    between atoms: N_9  and  C_10 
REMARK    6  A    between atoms: C_10  and  N_11 
REMARK    7  A    between atoms: N_11  and  C_12 
REMARK    8  A    between atoms: C_14  and  C_15 
REMARK    9  A    between atoms: C_24  and  O_25 
ROOT
HETATM    1  N   UNL     1      42.446 -10.846   4.161  1.00  0.00    -0.337 N 
HETATM    2  H   UNL     1      42.423  -9.947   3.686  1.00  0.00     0.168 HD
ENDROOT
BRANCH   1   3
HETATM    3  C   UNL     1      41.707 -11.824   3.534  1.00  0.00     0.157 C 
HETATM    4  S   UNL     1      40.339 -12.388   4.308  1.00  0.00    -0.047 SA
BRANCH   3   5
HETATM    5  N   UNL     1      42.142 -12.163   2.265  1.00  0.00    -0.201 NA
HETATM    6  C   UNL     1      41.574 -13.134   1.461  1.00  0.00     0.237 C 
HETATM    7  O   UNL     1      40.911 -12.805   0.480  1.00  0.00    -0.274 OA
HETATM    8  H   UNL     1      42.172 -11.304   1.726  1.00  0.00     0.139 HD
BRANCH   6   9
HETATM    9  C   UNL     1      41.889 -14.566   1.724  1.00  0.00     0.026 A 
HETATM   10  C   UNL     1      43.211 -14.988   1.568  1.00  0.00     0.019 A 
HETATM   11  C   UNL     1      43.593 -16.286   1.931  1.00  0.00     0.030 A 
HETATM   12  C   UNL     1      42.685 -17.202   2.483  1.00  0.00     0.030 A 
HETATM   13  C   UNL     1      41.347 -16.769   2.571  1.00  0.00     0.030 A 
HETATM   14  C   UNL     1      40.948 -15.472   2.211  1.00  0.00     0.019 A 
BRANCH  12  15
HETATM   15  N   UNL     1      43.056 -18.479   2.911  1.00  0.00    -0.382 N 
BRANCH  15  16
HETATM   16  C   UNL     1      44.219 -18.590   3.807  1.00  0.00     0.118 C 
HETATM   17  C   UNL     1      43.980 -17.792   5.080  1.00  0.00     0.026 C 
ENDBRANCH  15  16
BRANCH  15  18
HETATM   18  C   UNL     1      42.789 -19.667   2.083  1.00  0.00     0.118 C 
HETATM   19  C   UNL     1      44.035 -20.530   1.942  1.00  0.00     0.026 C 
ENDBRANCH  15  18
ENDBRANCH  12  15
ENDBRANCH   6   9
ENDBRANCH   3   5
ENDBRANCH   1   3
BRANCH   1  20
HETATM   20  C   UNL     1      43.171 -10.894   5.371  1.00  0.00     0.035 A 
HETATM   21  C   UNL     1      42.781 -10.185   6.515  1.00  0.00     0.046 A 
HETATM   22  C   UNL     1      43.560 -10.188   7.690  1.00  0.00     0.035 A 
HETATM   23  C   UNL     1      44.733 -10.965   7.681  1.00  0.00     0.078 A 
HETATM   24  C   UNL     1      45.133 -11.671   6.547  1.00  0.00     0.040 A 
HETATM   25  C   UNL     1      44.365 -11.615   5.385  1.00  0.00     0.032 A 
BRANCH  22  26
HETATM   26  C   UNL     1      43.219  -9.365   8.873  1.00  0.00     0.112 A 
HETATM   27  S   UNL     1      42.654  -7.743   8.746  1.00  0.00    -0.067 SA
HETATM   28  C   UNL     1      42.677  -7.580  10.455  1.00  0.00     0.035 A 
HETATM   29  C   UNL     1      43.073  -8.791  11.019  1.00  0.00     0.075 A 
HETATM   30  C   UNL     1      42.373  -6.457  11.242  1.00  0.00     0.021 A 
HETATM   31  N   UNL     1      43.358  -9.801  10.114  1.00  0.00    -0.239 NA
HETATM   32  C   UNL     1      43.165  -8.888  12.423  1.00  0.00     0.033 A 
HETATM   33  C   UNL     1      42.872  -7.773  13.217  1.00  0.00     0.002 A 
HETATM   34  C   UNL     1      42.482  -6.574  12.630  1.00  0.00     0.002 A 
ENDBRANCH  22  26
BRANCH  23  35
HETATM   35  O   UNL     1      45.572 -11.066   8.763  1.00  0.00    -0.360 OA
HETATM   36  H   UNL     1      46.472 -10.801   8.473  1.00  0.00     0.217 HD
ENDBRANCH  23  35
ENDBRANCH   1  20
TORSDOF 9
ENDMDL
MODEL 6
REMARK VINA RESULT:      -8.6      2.393     10.830
REMARK  9 active torsions:
REMARK  status: ('A' for Active; 'I' for Inactive)
REMARK    1  A    between atoms: C_2  and  N_3 
REMARK    2  A    between atoms: N_3  and  C_4 
REMARK    3  A    between atoms: N_3  and  C_32 
REMARK    4  A    between atoms: C_7  and  C_8 
REMARK       I    between atoms: C_8  and  N_9 
REMARK    5  A    between atoms: N_9  and  C_10 
REMARK    6  A    between atoms: C_10  and  N_11 
REMARK    7  A    between atoms: N_11  and  C_12 
REMARK    8  A    between atoms: C_14  and  C_15 
REMARK    9  A    between atoms: C_24  and  O_25 
ROOT
HETATM    1  N   UNL     1      42.980 -12.374   5.677  1.00  0.00    -0.337 N 
HETATM    2  H   UNL     1      43.153 -13.376   5.667  1.00  0.00     0.168 HD
ENDROOT
BRANCH   1   3
HETATM    3  C   UNL     1      41.994 -11.972   4.803  1.00  0.00     0.157 C 
HETATM    4  S   UNL     1      42.321 -10.680   3.796  1.00  0.00    -0.047 SA
BRANCH   3   5
HETATM    5  N   UNL     1      40.860 -12.764   4.796  1.00  0.00    -0.201 NA
HETATM    6  C   UNL     1      40.651 -13.864   5.606  1.00  0.00     0.237 C 
HETATM    7  O   UNL     1      39.851 -13.795   6.537  1.00  0.00    -0.274 OA
HETATM    8  H   UNL     1      40.067 -12.142   4.920  1.00  0.00     0.139 HD
BRANCH   6   9
HETATM    9  C   UNL     1      41.301 -15.157   5.252  1.00  0.00     0.026 A 
HETATM   10  C   UNL     1      41.318 -15.538   3.909  1.00  0.00     0.019 A 
HETATM   11  C   UNL     1      42.032 -16.672   3.498  1.00  0.00     0.030 A 
HETATM   12  C   UNL     1      42.772 -17.452   4.400  1.00  0.00     0.030 A 
HETATM   13  C   UNL     1      42.686 -17.078   5.755  1.00  0.00     0.030 A 
HETATM   14  C   UNL     1      41.975 -15.945   6.183  1.00  0.00     0.019 A 
BRANCH  12  15
HETATM   15  N   UNL     1      43.541 -18.549   4.004  1.00  0.00    -0.382 N 
BRANCH  15  16
HETATM   16  C   UNL     1      44.454 -19.140   4.998  1.00  0.00     0.118 C 
HETATM   17  C   UNL     1      43.957 -20.517   5.414  1.00  0.00     0.026 C 
ENDBRANCH  15  16
BRANCH  15  18
HETATM   18  C   UNL     1      43.946 -18.729   2.600  1.00  0.00     0.118 C 
HETATM   19  C   UNL     1      43.231 -19.916   1.971  1.00  0.00     0.026 C 
ENDBRANCH  15  18
ENDBRANCH  12  15
ENDBRANCH   6   9
ENDBRANCH   3   5
ENDBRANCH   1   3
BRANCH   1  20
HETATM   20  C   UNL     1      43.805 -11.606   6.527  1.00  0.00     0.035 A 
HETATM   21  C   UNL     1      43.295 -10.835   7.580  1.00  0.00     0.046 A 
HETATM   22  C   UNL     1      44.129 -10.017   8.370  1.00  0.00     0.035 A 
HETATM   23  C   UNL     1      45.506 -10.034   8.082  1.00  0.00     0.078 A 
HETATM   24  C   UNL     1      46.023 -10.795   7.033  1.00  0.00     0.040 A 
HETATM   25  C   UNL     1      45.169 -11.560   6.240  1.00  0.00     0.032 A 
BRANCH  22  26
HETATM   26  C   UNL     1      43.597  -9.118   9.420  1.00  0.00     0.112 A 
HETATM   27  S   UNL     1      42.731  -7.675   9.057  1.00  0.00    -0.067 SA
HETATM   28  C   UNL     1      42.669  -7.269  10.725  1.00  0.00     0.035 A 
HETATM   29  C   UNL     1      43.276  -8.286  11.460  1.00  0.00     0.075 A 
HETATM   30  C   UNL     1      42.127  -6.128  11.339  1.00  0.00     0.021 A 
HETATM   31  N   UNL     1      43.779  -9.338  10.711  1.00  0.00    -0.239 NA
HETATM   32  C   UNL     1      43.340  -8.162  12.863  1.00  0.00     0.033 A 
HETATM   33  C   UNL     1      42.811  -7.026  13.485  1.00  0.00     0.002 A 
HETATM   34  C   UNL     1      42.213  -6.023  12.730  1.00  0.00     0.002 A 
ENDBRANCH  22  26
BRANCH  23  35
HETATM   35  O   UNL     1      46.426  -9.297   8.784  1.00  0.00    -0.360 OA
HETATM   36  H   UNL     1      47.321  -9.625   8.545  1.00  0.00     0.217 HD
ENDBRANCH  23  35
ENDBRANCH   1  20
TORSDOF 9
ENDMDL
MODEL 7
REMARK VINA RESULT:      -8.5      1.831      2.267
REMARK  9 active torsions:
REMARK  status: ('A' for Active; 'I' for Inactive)
REMARK    1  A    between atoms: C_2  and  N_3 
REMARK    2  A    between atoms: N_3  and  C_4 
REMARK    3  A    between atoms: N_3  and  C_32 
REMARK    4  A    between atoms: C_7  and  C_8 
REMARK       I    between atoms: C_8  and  N_9 
REMARK    5  A    between atoms: N_9  and  C_10 
REMARK    6  A    between atoms: C_10  and  N_11 
REMARK    7  A    between atoms: N_11  and  C_12 
REMARK    8  A    between atoms: C_14  and  C_15 
REMARK    9  A    between atoms: C_24  and  O_25 
ROOT
HETATM    1  N   UNL     1      43.207 -11.294   7.514  1.00  0.00    -0.337 N 
HETATM    2  H   UNL     1      42.900 -11.273   8.484  1.00  0.00     0.168 HD
ENDROOT
BRANCH   1   3
HETATM    3  C   UNL     1      44.305 -10.503   7.262  1.00  0.00     0.157 C 
HETATM    4  S   UNL     1      45.706 -11.251   6.743  1.00  0.00    -0.047 SA
BRANCH   3   5
HETATM    5  N   UNL     1      44.086  -9.142   7.377  1.00  0.00    -0.201 NA
HETATM    6  C   UNL     1      44.424  -8.370   8.473  1.00  0.00     0.237 C 
HETATM    7  O   UNL     1      45.371  -7.590   8.403  1.00  0.00    -0.274 OA
HETATM    8  H   UNL     1      44.503  -8.706   6.561  1.00  0.00     0.139 HD
BRANCH   6   9
HETATM    9  C   UNL     1      43.548  -8.401   9.678  1.00  0.00     0.026 A 
HETATM   10  C   UNL     1      44.032  -9.031  10.826  1.00  0.00     0.019 A 
HETATM   11  C   UNL     1      43.314  -8.974  12.028  1.00  0.00     0.030 A 
HETATM   12  C   UNL     1      42.104  -8.272  12.139  1.00  0.00     0.030 A 
HETATM   13  C   UNL     1      41.611  -7.699  10.950  1.00  0.00     0.030 A 
HETATM   14  C   UNL     1      42.319  -7.747   9.738  1.00  0.00     0.019 A 
BRANCH  12  15
HETATM   15  N   UNL     1      41.402  -8.149  13.340  1.00  0.00    -0.382 N 
BRANCH  15  16
HETATM   16  C   UNL     1      41.675  -6.966  14.175  1.00  0.00     0.118 C 
HETATM   17  C   UNL     1      41.733  -7.363  15.643  1.00  0.00     0.026 C 
ENDBRANCH  15  16
BRANCH  15  18
HETATM   18  C   UNL     1      40.932  -9.336  14.073  1.00  0.00     0.118 C 
HETATM   19  C   UNL     1      39.997 -10.176  13.216  1.00  0.00     0.026 C 
ENDBRANCH  15  18
ENDBRANCH  12  15
ENDBRANCH   6   9
ENDBRANCH   3   5
ENDBRANCH   1   3
BRANCH   1  20
HETATM   20  C   UNL     1      42.429 -12.073   6.631  1.00  0.00     0.035 A 
HETATM   21  C   UNL     1      42.761 -13.391   6.293  1.00  0.00     0.046 A 
HETATM   22  C   UNL     1      42.012 -14.125   5.351  1.00  0.00     0.035 A 
HETATM   23  C   UNL     1      40.889 -13.491   4.788  1.00  0.00     0.078 A 
HETATM   24  C   UNL     1      40.552 -12.178   5.114  1.00  0.00     0.040 A 
HETATM   25  C   UNL     1      41.337 -11.461   6.016  1.00  0.00     0.032 A 
BRANCH  22  26
HETATM   26  C   UNL     1      42.405 -15.481   4.904  1.00  0.00     0.112 A 
HETATM   27  S   UNL     1      43.211 -16.602   5.934  1.00  0.00    -0.067 SA
HETATM   28  C   UNL     1      43.376 -17.710   4.631  1.00  0.00     0.035 A 
HETATM   29  C   UNL     1      42.765 -17.172   3.500  1.00  0.00     0.075 A 
HETATM   30  C   UNL     1      44.008 -18.964   4.611  1.00  0.00     0.021 A 
HETATM   31  N   UNL     1      42.200 -15.918   3.672  1.00  0.00    -0.239 NA
HETATM   32  C   UNL     1      42.780 -17.916   2.303  1.00  0.00     0.033 A 
HETATM   33  C   UNL     1      43.414 -19.163   2.267  1.00  0.00     0.002 A 
HETATM   34  C   UNL     1      44.020 -19.678   3.409  1.00  0.00     0.002 A 
ENDBRANCH  22  26
BRANCH  23  35
HETATM   35  O   UNL     1      40.068 -14.099   3.871  1.00  0.00    -0.360 OA
HETATM   36  H   UNL     1      39.153 -13.777   4.025  1.00  0.00     0.217 HD
ENDBRANCH  23  35
ENDBRANCH   1  20
TORSDOF 9
ENDMDL
MODEL 8
REMARK VINA RESULT:      -8.3      4.458      7.385
REMARK  9 active torsions:
REMARK  status: ('A' for Active; 'I' for Inactive)
REMARK    1  A    between atoms: C_2  and  N_3 
REMARK    2  A    between atoms: N_3  and  C_4 
REMARK    3  A    between atoms: N_3  and  C_32 
REMARK    4  A    between atoms: C_7  and  C_8 
REMARK       I    between atoms: C_8  and  N_9 
REMARK    5  A    between atoms: N_9  and  C_10 
REMARK    6  A    between atoms: C_10  and  N_11 
REMARK    7  A    between atoms: N_11  and  C_12 
REMARK    8  A    between atoms: C_14  and  C_15 
REMARK    9  A    between atoms: C_24  and  O_25 
ROOT
HETATM    1  N   UNL     1      42.966 -11.560   4.930  1.00  0.00    -0.337 N 
HETATM    2  H   UNL     1      43.415 -10.699   4.629  1.00  0.00     0.168 HD
ENDROOT
BRANCH   1   3
HETATM    3  C   UNL     1      42.587 -11.555   6.254  1.00  0.00     0.157 C 
HETATM    4  S   UNL     1      43.736 -11.952   7.399  1.00  0.00    -0.047 SA
BRANCH   3   5
HETATM    5  N   UNL     1      41.296 -11.119   6.491  1.00  0.00    -0.201 NA
HETATM    6  C   UNL     1      40.146 -11.779   6.098  1.00  0.00     0.237 C 
HETATM    7  O   UNL     1      39.452 -12.351   6.936  1.00  0.00    -0.274 OA
HETATM    8  H   UNL     1      41.221 -10.951   7.489  1.00  0.00     0.139 HD
BRANCH   6   9
HETATM    9  C   UNL     1      39.698 -11.671   4.682  1.00  0.00     0.026 A 
HETATM   10  C   UNL     1      39.761 -10.420   4.066  1.00  0.00     0.019 A 
HETATM   11  C   UNL     1      39.484 -10.282   2.699  1.00  0.00     0.030 A 
HETATM   12  C   UNL     1      39.160 -11.383   1.892  1.00  0.00     0.030 A 
HETATM   13  C   UNL     1      39.045 -12.622   2.553  1.00  0.00     0.030 A 
HETATM   14  C   UNL     1      39.319 -12.776   3.921  1.00  0.00     0.019 A 
BRANCH  12  15
HETATM   15  N   UNL     1      38.941 -11.280   0.516  1.00  0.00    -0.382 N 
BRANCH  15  16
HETATM   16  C   UNL     1      37.568 -11.481   0.022  1.00  0.00     0.118 C 
HETATM   17  C   UNL     1      36.607 -10.553   0.751  1.00  0.00     0.026 C 
ENDBRANCH  15  16
BRANCH  15  18
HETATM   18  C   UNL     1      40.005 -11.600  -0.450  1.00  0.00     0.118 C 
HETATM   19  C   UNL     1      39.680 -12.869  -1.225  1.00  0.00     0.026 C 
ENDBRANCH  15  18
ENDBRANCH  12  15
ENDBRANCH   6   9
ENDBRANCH   3   5
ENDBRANCH   1   3
BRANCH   1  20
HETATM   20  C   UNL     1      42.873 -12.586   3.965  1.00  0.00     0.035 A 
HETATM   21  C   UNL     1      42.962 -13.945   4.294  1.00  0.00     0.046 A 
HETATM   22  C   UNL     1      42.941 -14.949   3.305  1.00  0.00     0.035 A 
HETATM   23  C   UNL     1      42.789 -14.534   1.970  1.00  0.00     0.078 A 
HETATM   24  C   UNL     1      42.704 -13.184   1.630  1.00  0.00     0.040 A 
HETATM   25  C   UNL     1      42.772 -12.210   2.626  1.00  0.00     0.032 A 
BRANCH  22  26
HETATM   26  C   UNL     1      43.137 -16.383   3.624  1.00  0.00     0.112 A 
HETATM   27  S   UNL     1      43.480 -16.944   5.215  1.00  0.00    -0.067 SA
HETATM   28  C   UNL     1      43.677 -18.546   4.629  1.00  0.00     0.035 A 
HETATM   29  C   UNL     1      43.422 -18.560   3.259  1.00  0.00     0.075 A 
HETATM   30  C   UNL     1      44.036 -19.708   5.332  1.00  0.00     0.021 A 
HETATM   31  N   UNL     1      43.097 -17.332   2.704  1.00  0.00    -0.239 NA
HETATM   32  C   UNL     1      43.527 -19.782   2.563  1.00  0.00     0.033 A 
HETATM   33  C   UNL     1      43.892 -20.944   3.250  1.00  0.00     0.002 A 
HETATM   34  C   UNL     1      44.144 -20.905   4.618  1.00  0.00     0.002 A 
ENDBRANCH  22  26
BRANCH  23  35
HETATM   35  O   UNL     1      42.739 -15.410   0.915  1.00  0.00    -0.360 OA
HETATM   36  H   UNL     1      43.647 -15.497   0.550  1.00  0.00     0.217 HD
ENDBRANCH  23  35
ENDBRANCH   1  20
TORSDOF 9
ENDMDL
MODEL 9
REMARK VINA RESULT:      -8.3      2.198      2.969
REMARK  9 active torsions:
REMARK  status: ('A' for Active; 'I' for Inactive)
REMARK    1  A    between atoms: C_2  and  N_3 
REMARK    2  A    between atoms: N_3  and  C_4 
REMARK    3  A    between atoms: N_3  and  C_32 
REMARK    4  A    between atoms: C_7  and  C_8 
REMARK       I    between atoms: C_8  and  N_9 
REMARK    5  A    between atoms: N_9  and  C_10 
REMARK    6  A    between atoms: C_10  and  N_11 
REMARK    7  A    between atoms: N_11  and  C_12 
REMARK    8  A    between atoms: C_14  and  C_15 
REMARK    9  A    between atoms: C_24  and  O_25 
ROOT
HETATM    1  N   UNL     1      43.742 -11.038   8.222  1.00  0.00    -0.337 N 
HETATM    2  H   UNL     1      43.030 -10.798   8.907  1.00  0.00     0.168 HD
ENDROOT
BRANCH   1   3
HETATM    3  C   UNL     1      45.022 -10.719   8.616  1.00  0.00     0.157 C 
HETATM    4  S   UNL     1      46.131 -10.326   7.430  1.00  0.00    -0.047 SA
BRANCH   3   5
HETATM    5  N   UNL     1      45.217 -10.665   9.985  1.00  0.00    -0.201 NA
HETATM    6  C   UNL     1      44.221 -10.479  10.925  1.00  0.00     0.237 C 
HETATM    7  O   UNL     1      43.863 -11.420  11.631  1.00  0.00    -0.274 OA
HETATM    8  H   UNL     1      45.723 -11.506  10.242  1.00  0.00     0.139 HD
BRANCH   6   9
HETATM    9  C   UNL     1      43.692  -9.106  11.158  1.00  0.00     0.026 A 
HETATM   10  C   UNL     1      43.456  -8.296  10.046  1.00  0.00     0.019 A 
HETATM   11  C   UNL     1      42.833  -7.049  10.190  1.00  0.00     0.030 A 
HETATM   12  C   UNL     1      42.402  -6.574  11.439  1.00  0.00     0.030 A 
HETATM   13  C   UNL     1      42.708  -7.386  12.548  1.00  0.00     0.030 A 
HETATM   14  C   UNL     1      43.332  -8.637  12.420  1.00  0.00     0.019 A 
BRANCH  12  15
HETATM   15  N   UNL     1      41.723  -5.364  11.599  1.00  0.00    -0.382 N 
BRANCH  15  16
HETATM   16  C   UNL     1      42.503  -4.193  12.034  1.00  0.00     0.118 C 
HETATM   17  C   UNL     1      43.010  -3.421  10.824  1.00  0.00     0.026 C 
ENDBRANCH  15  16
BRANCH  15  18
HETATM   18  C   UNL     1      40.296  -5.333  11.961  1.00  0.00     0.118 C 
HETATM   19  C   UNL     1      39.441  -5.982  10.882  1.00  0.00     0.026 C 
ENDBRANCH  15  18
ENDBRANCH  12  15
ENDBRANCH   6   9
ENDBRANCH   3   5
ENDBRANCH   1   3
BRANCH   1  20
HETATM   20  C   UNL     1      43.279 -11.591   7.008  1.00  0.00     0.035 A 
HETATM   21  C   UNL     1      43.359 -12.960   6.722  1.00  0.00     0.046 A 
HETATM   22  C   UNL     1      42.959 -13.480   5.474  1.00  0.00     0.035 A 
HETATM   23  C   UNL     1      42.441 -12.570   4.535  1.00  0.00     0.078 A 
HETATM   24  C   UNL     1      42.361 -11.205   4.807  1.00  0.00     0.040 A 
HETATM   25  C   UNL     1      42.805 -10.713   6.034  1.00  0.00     0.032 A 
BRANCH  22  26
HETATM   26  C   UNL     1      43.130 -14.907   5.115  1.00  0.00     0.112 A 
HETATM   27  S   UNL     1      43.482 -16.123   6.282  1.00  0.00    -0.067 SA
HETATM   28  C   UNL     1      43.640 -17.298   5.039  1.00  0.00     0.035 A 
HETATM   29  C   UNL     1      43.368 -16.696   3.812  1.00  0.00     0.075 A 
HETATM   30  C   UNL     1      43.984 -18.656   5.143  1.00  0.00     0.021 A 
HETATM   31  N   UNL     1      43.061 -15.346   3.869  1.00  0.00    -0.239 NA
HETATM   32  C   UNL     1      43.440 -17.480   2.642  1.00  0.00     0.033 A 
HETATM   33  C   UNL     1      43.791 -18.832   2.731  1.00  0.00     0.002 A 
HETATM   34  C   UNL     1      44.060 -19.409   3.968  1.00  0.00     0.002 A 
ENDBRANCH  22  26
BRANCH  23  35
HETATM   35  O   UNL     1      42.003 -12.948   3.290  1.00  0.00    -0.360 OA
HETATM   36  H   UNL     1      42.392 -12.330   2.633  1.00  0.00     0.217 HD
ENDBRANCH  23  35
ENDBRANCH   1  20
TORSDOF 9
ENDMDL
MODEL 10
REMARK VINA RESULT:      -8.1      2.380     11.107
REMARK  9 active torsions:
REMARK  status: ('A' for Active; 'I' for Inactive)
REMARK    1  A    between atoms: C_2  and  N_3 
REMARK    2  A    between atoms: N_3  and  C_4 
REMARK    3  A    between atoms: N_3  and  C_32 
REMARK    4  A    between atoms: C_7  and  C_8 
REMARK       I    between atoms: C_8  and  N_9 
REMARK    5  A    between atoms: N_9  and  C_10 
REMARK    6  A    between atoms: C_10  and  N_11 
REMARK    7  A    between atoms: N_11  and  C_12 
REMARK    8  A    between atoms: C_14  and  C_15 
REMARK    9  A    between atoms: C_24  and  O_25 
ROOT
HETATM    1  N   UNL     1      42.948 -10.602   5.741  1.00  0.00    -0.337 N 
HETATM    2  H   UNL     1      43.501  -9.864   5.312  1.00  0.00     0.168 HD
ENDROOT
BRANCH   1   3
HETATM    3  C   UNL     1      43.284 -11.867   5.316  1.00  0.00     0.157 C 
HETATM    4  S   UNL     1      43.978 -12.907   6.425  1.00  0.00    -0.047 SA
BRANCH   3   5
HETATM    5  N   UNL     1      42.911 -12.168   4.018  1.00  0.00    -0.201 NA
HETATM    6  C   UNL     1      41.935 -13.080   3.660  1.00  0.00     0.237 C 
HETATM    7  O   UNL     1      40.855 -12.682   3.228  1.00  0.00    -0.274 OA
HETATM    8  H   UNL     1      42.682 -11.288   3.567  1.00  0.00     0.139 HD
BRANCH   6   9
HETATM    9  C   UNL     1      42.260 -14.533   3.681  1.00  0.00     0.026 A 
HETATM   10  C   UNL     1      42.868 -15.086   2.552  1.00  0.00     0.019 A 
HETATM   11  C   UNL     1      43.321 -16.412   2.563  1.00  0.00     0.030 A 
HETATM   12  C   UNL     1      43.209 -17.227   3.700  1.00  0.00     0.030 A 
HETATM   13  C   UNL     1      42.538 -16.661   4.802  1.00  0.00     0.030 A 
HETATM   14  C   UNL     1      42.078 -15.335   4.806  1.00  0.00     0.019 A 
BRANCH  12  15
HETATM   15  N   UNL     1      43.709 -18.530   3.755  1.00  0.00    -0.382 N 
BRANCH  15  16
HETATM   16  C   UNL     1      44.382 -18.954   4.995  1.00  0.00     0.118 C 
HETATM   17  C   UNL     1      43.738 -20.223   5.535  1.00  0.00     0.026 C 
ENDBRANCH  15  16
BRANCH  15  18
HETATM   18  C   UNL     1      44.147 -19.230   2.536  1.00  0.00     0.118 C 
HETATM   19  C   UNL     1      43.047 -20.133   1.997  1.00  0.00     0.026 C 
ENDBRANCH  15  18
ENDBRANCH  12  15
ENDBRANCH   6   9
ENDBRANCH   3   5
ENDBRANCH   1   3
BRANCH   1  20
HETATM   20  C   UNL     1      41.933 -10.184   6.628  1.00  0.00     0.035 A 
HETATM   21  C   UNL     1      42.207  -9.644   7.892  1.00  0.00     0.046 A 
HETATM   22  C   UNL     1      41.176  -9.302   8.791  1.00  0.00     0.035 A 
HETATM   23  C   UNL     1      39.853  -9.492   8.353  1.00  0.00     0.078 A 
HETATM   24  C   UNL     1      39.568 -10.033   7.100  1.00  0.00     0.040 A 
HETATM   25  C   UNL     1      40.608 -10.402   6.248  1.00  0.00     0.032 A 
BRANCH  22  26
HETATM   26  C   UNL     1      41.447  -8.827  10.167  1.00  0.00     0.112 A 
HETATM   27  S   UNL     1      42.534  -7.536  10.508  1.00  0.00    -0.067 SA
HETATM   28  C   UNL     1      42.335  -7.787  12.195  1.00  0.00     0.035 A 
HETATM   29  C   UNL     1      41.413  -8.814  12.393  1.00  0.00     0.075 A 
HETATM   30  C   UNL     1      42.954  -7.126  13.268  1.00  0.00     0.021 A 
HETATM   31  N   UNL     1      40.902  -9.382  11.237  1.00  0.00    -0.239 NA
HETATM   32  C   UNL     1      41.095  -9.193  13.713  1.00  0.00     0.033 A 
HETATM   33  C   UNL     1      41.712  -8.548  14.790  1.00  0.00     0.002 A 
HETATM   34  C   UNL     1      42.631  -7.527  14.567  1.00  0.00     0.002 A 
ENDBRANCH  22  26
BRANCH  23  35
HETATM   35  O   UNL     1      38.759  -9.186   9.124  1.00  0.00    -0.360 OA
HETATM   36  H   UNL     1      38.183  -9.981   9.160  1.00  0.00     0.217 HD
ENDBRANCH  23  35
ENDBRANCH   1  20
TORSDOF 9
ENDMDL
