MODEL 1
REMARK VINA RESULT:      -9.1      0.000      0.000
REMARK  8 active torsions:
REMARK  status: ('A' for Active; 'I' for Inactive)
REMARK    1  A    between atoms: C_3  and  C_27 
REMARK       I    between atoms: N_12  and  C_13 
REMARK    2  A    between atoms: C_13  and  C_14 
REMARK    3  A    between atoms: C_14  and  O_15 
REMARK    4  A    between atoms: C_18  and  C_36 
REMARK    5  A    between atoms: O_19  and  C_36 
REMARK    6  A    between atoms: C_20  and  O_21 
REMARK    7  A    between atoms: C_27  and  C_28 
REMARK       I    between atoms: C_28  and  N_29 
REMARK    8  A    between atoms: N_29  and  C_30 
ROOT
HETATM    1  C           1      40.386 -13.920   5.606  0.00  0.00     0.016 C 
HETATM    2  C           1      41.504 -14.479   4.686  0.00  0.00    -0.030 C 
HETATM    3  C           1      42.834 -14.493   5.507  0.00  0.00     0.056 C 
HETATM    4  C           1      43.392 -13.102   5.523  0.00  0.00     0.056 A 
HETATM    5  C           1      43.478 -12.366   4.418  0.00  0.00     0.012 A 
HETATM    6  S           1      44.051 -11.053   4.727  0.00  0.00    -0.055 SA
HETATM    7  C           1      44.210 -11.349   6.156  0.00  0.00     0.174 A 
HETATM    8  N           1      44.734 -10.401   6.957  0.00  0.00    -0.304 N 
HETATM    9  C           1      44.949 -10.420   8.304  0.00  0.00     0.247 C 
HETATM   10  O           1      44.667 -11.351   9.015  0.00  0.00    -0.271 OA
HETATM   11  N           1      43.821 -12.492   6.536  0.00  0.00    -0.227 NA
HETATM   12  C           1      40.970 -14.173   2.071  0.00  0.00     0.008 C 
HETATM   13  C           1      39.718 -15.016   2.377  0.00  0.00     0.128 C 
HETATM   14  C           1      41.140 -15.932   4.321  0.00  0.00     0.013 C 
HETATM   15  H           1      45.000  -9.574   6.443  0.00  0.00     0.171 HD
HETATM   16  C           1      41.961 -15.038   1.252  0.00  0.00     0.020 C 
HETATM   17  C           1      42.974 -12.934   3.129  0.00  0.00     0.055 C 
HETATM   18  C           1      41.597 -13.596   3.383  0.00  0.00     0.012 C 
HETATM   19  C           1      39.865 -16.063   3.482  0.00  0.00     0.033 C 
ENDROOT
BRANCH   3  20
HETATM   20  C           1      42.802 -15.091   6.930  0.00  0.00     0.114 C 
BRANCH  20  21
HETATM   21  C           1      43.394 -16.498   6.985  0.00  0.00     0.222 C 
HETATM   22  O           1      43.976 -16.886   7.965  0.00  0.00    -0.273 OA
HETATM   23  N           1      43.187 -17.236   5.858  0.00  0.00    -0.327 N 
HETATM   24  H           1      42.666 -16.803   5.109  0.00  0.00     0.169 HD
BRANCH  23  25
HETATM   25  C           1      43.518 -18.495   5.503  0.00  0.00     0.034 A 
HETATM   26  C           1      43.879 -18.660   4.216  0.00  0.00     0.029 A 
HETATM   27  C           1      44.225 -19.863   3.733  0.00  0.00     0.002 A 
HETATM   28  C           1      44.219 -20.932   4.541  0.00  0.00     0.000 A 
HETATM   29  C           1      43.867 -20.785   5.826  0.00  0.00     0.002 A 
HETATM   30  C           1      43.522 -19.577   6.301  0.00  0.00     0.029 A 
ENDBRANCH  23  25
ENDBRANCH  20  21
ENDBRANCH   3  20
BRANCH  12  31
HETATM   31  C           1      40.568 -12.993   1.148  0.00  0.00     0.176 C 
BRANCH  31  32
HETATM   32  O           1      39.564 -13.383   0.232  0.00  0.00    -0.400 OA
HETATM   33  H           1      39.951 -13.519  -0.634  0.00  0.00     0.209 HD
ENDBRANCH  31  32
ENDBRANCH  12  31
BRANCH  13  34
HETATM   34  O           1      38.643 -14.153   2.672  0.00  0.00    -0.395 OA
HETATM   35  H           1      38.721 -13.893   3.595  0.00  0.00     0.210 HD
ENDBRANCH  13  34
BRANCH   9  36
HETATM   36  C           1      45.581  -9.146   8.846  0.00  0.00     0.270 C 
BRANCH  36  37
HETATM   37  O           1      45.007  -8.002   8.240  0.00  0.00    -0.387 OA
HETATM   38  C           1      43.928  -7.486   8.988  0.00  0.00     0.202 C 
ENDBRANCH  36  37
ENDBRANCH   9  36
TORSDOF 8
ENDMDL
MODEL 2
REMARK VINA RESULT:      -8.6      3.467      6.842
REMARK  8 active torsions:
REMARK  status: ('A' for Active; 'I' for Inactive)
REMARK    1  A    between atoms: C_3  and  C_27 
REMARK       I    between atoms: N_12  and  C_13 
REMARK    2  A    between atoms: C_13  and  C_14 
REMARK    3  A    between atoms: C_14  and  O_15 
REMARK    4  A    between atoms: C_18  and  C_36 
REMARK    5  A    between atoms: O_19  and  C_36 
REMARK    6  A    between atoms: C_20  and  O_21 
REMARK    7  A    between atoms: C_27  and  C_28 
REMARK       I    between atoms: C_28  and  N_29 
REMARK    8  A    between atoms: N_29  and  C_30 
ROOT
HETATM    1  C           1      42.634 -10.604   4.027  0.00  0.00     0.016 C 
HETATM    2  C           1      41.652 -11.330   4.986  0.00  0.00    -0.030 C 
HETATM    3  C           1      41.392 -12.759   4.409  0.00  0.00     0.056 C 
HETATM    4  C           1      40.392 -12.643   3.298  0.00  0.00     0.056 A 
HETATM    5  C           1      39.276 -11.929   3.427  0.00  0.00     0.012 A 
HETATM    6  S           1      38.494 -11.985   2.190  0.00  0.00    -0.055 SA
HETATM    7  C           1      39.455 -12.855   1.503  0.00  0.00     0.174 A 
HETATM    8  N           1      39.193 -13.234   0.237  0.00  0.00    -0.304 N 
HETATM    9  C           1      39.935 -14.001  -0.613  0.00  0.00     0.247 C 
HETATM   10  O           1      41.011 -14.465  -0.333  0.00  0.00    -0.271 OA
HETATM   11  N           1      40.486 -13.177   2.163  0.00  0.00    -0.227 NA
HETATM   12  C           1      40.151  -9.639   6.436  0.00  0.00     0.008 C 
HETATM   13  C           1      41.503  -9.114   6.955  0.00  0.00     0.128 C 
HETATM   14  C           1      42.344 -11.475   6.356  0.00  0.00     0.013 C 
HETATM   15  H           1      38.304 -12.885  -0.088  0.00  0.00     0.171 HD
HETATM   16  C           1      39.459 -10.432   7.573  0.00  0.00     0.020 C 
HETATM   17  C           1      39.030 -11.198   4.709  0.00  0.00     0.055 C 
HETATM   18  C           1      40.335 -10.476   5.127  0.00  0.00     0.012 C 
HETATM   19  C           1      42.630 -10.142   7.054  0.00  0.00     0.033 C 
ENDROOT
BRANCH   3  20
HETATM   20  C           1      42.611 -13.597   3.969  0.00  0.00     0.114 C 
BRANCH  20  21
HETATM   21  C           1      42.415 -15.090   4.220  0.00  0.00     0.222 C 
HETATM   22  O           1      41.523 -15.487   4.925  0.00  0.00    -0.273 OA
HETATM   23  N           1      43.312 -15.889   3.575  0.00  0.00    -0.327 N 
HETATM   24  H           1      44.004 -15.436   2.996  0.00  0.00     0.169 HD
BRANCH  23  25
HETATM   25  C           1      43.482 -17.226   3.512  0.00  0.00     0.034 A 
HETATM   26  C           1      43.002 -17.821   2.404  0.00  0.00     0.029 A 
HETATM   27  C           1      43.101 -19.147   2.220  0.00  0.00     0.002 A 
HETATM   28  C           1      43.693 -19.906   3.152  0.00  0.00     0.000 A 
HETATM   29  C           1      44.183 -19.329   4.259  0.00  0.00     0.002 A 
HETATM   30  C           1      44.078 -18.001   4.435  0.00  0.00     0.029 A 
ENDBRANCH  23  25
ENDBRANCH  20  21
ENDBRANCH   3  20
BRANCH  12  31
HETATM   31  C           1      39.226  -8.432   6.132  0.00  0.00     0.176 C 
BRANCH  31  32
HETATM   32  O           1      38.510  -8.036   7.286  0.00  0.00    -0.400 OA
HETATM   33  H           1      38.547  -8.733   7.944  0.00  0.00     0.209 HD
ENDBRANCH  31  32
ENDBRANCH  12  31
BRANCH  13  34
HETATM   34  O           1      41.911  -8.027   6.156  0.00  0.00    -0.395 OA
HETATM   35  H           1      42.373  -7.403   6.725  0.00  0.00     0.210 HD
ENDBRANCH  13  34
BRANCH   9  36
HETATM   36  C           1      39.284 -14.220  -1.972  0.00  0.00     0.270 C 
BRANCH  36  37
HETATM   37  O           1      40.206 -13.976  -3.018  0.00  0.00    -0.387 OA
HETATM   38  C           1      40.575 -12.617  -3.099  0.00  0.00     0.202 C 
ENDBRANCH  36  37
ENDBRANCH   9  36
TORSDOF 8
ENDMDL
MODEL 3
REMARK VINA RESULT:      -8.4      3.053      4.174
REMARK  8 active torsions:
REMARK  status: ('A' for Active; 'I' for Inactive)
REMARK    1  A    between atoms: C_3  and  C_27 
REMARK       I    between atoms: N_12  and  C_13 
REMARK    2  A    between atoms: C_13  and  C_14 
REMARK    3  A    between atoms: C_14  and  O_15 
REMARK    4  A    between atoms: C_18  and  C_36 
REMARK    5  A    between atoms: O_19  and  C_36 
REMARK    6  A    between atoms: C_20  and  O_21 
REMARK    7  A    between atoms: C_27  and  C_28 
REMARK       I    between atoms: C_28  and  N_29 
REMARK    8  A    between atoms: N_29  and  C_30 
ROOT
HETATM    1  C           1      39.137 -13.057   1.826  0.00  0.00     0.016 C 
HETATM    2  C           1      40.366 -12.749   0.931  0.00  0.00    -0.030 C 
HETATM    3  C           1      41.542 -12.320   1.868  0.00  0.00     0.056 C 
HETATM    4  C           1      41.333 -10.889   2.262  0.00  0.00     0.056 A 
HETATM    5  C           1      41.018  -9.952   1.369  0.00  0.00     0.012 A 
HETATM    6  S           1      40.866  -8.654   2.030  0.00  0.00    -0.055 SA
HETATM    7  C           1      41.179  -9.183   3.363  0.00  0.00     0.174 A 
HETATM    8  N           1      41.176  -8.337   4.411  0.00  0.00    -0.304 N 
HETATM    9  C           1      41.398  -8.588   5.733  0.00  0.00     0.247 C 
HETATM   10  O           1      41.631  -9.683   6.178  0.00  0.00    -0.271 OA
HETATM   11  N           1      41.419 -10.424   3.428  0.00  0.00    -0.227 NA
HETATM   12  C           1      39.701 -12.094  -1.588  0.00  0.00     0.008 C 
HETATM   13  C           1      39.042 -13.486  -1.620  0.00  0.00     0.128 C 
HETATM   14  C           1      40.768 -14.049   0.208  0.00  0.00     0.013 C 
HETATM   15  H           1      40.984  -7.386   4.131  0.00  0.00     0.171 HD
HETATM   16  C           1      40.974 -12.129  -2.468  0.00  0.00     0.020 C 
HETATM   17  C           1      40.840 -10.349  -0.062  0.00  0.00     0.055 C 
HETATM   18  C           1      39.981 -11.637  -0.118  0.00  0.00     0.012 C 
HETATM   19  C           1      39.713 -14.567  -0.774  0.00  0.00     0.033 C 
ENDROOT
BRANCH   3  20
HETATM   20  C           1      41.840 -13.194   3.105  0.00  0.00     0.114 C 
BRANCH  20  21
HETATM   21  C           1      42.768 -14.363   2.784  0.00  0.00     0.222 C 
HETATM   22  O           1      43.705 -14.223   2.041  0.00  0.00    -0.273 OA
HETATM   23  N           1      42.440 -15.527   3.414  0.00  0.00    -0.327 N 
HETATM   24  H           1      41.640 -15.512   4.029  0.00  0.00     0.169 HD
BRANCH  23  25
HETATM   25  C           1      42.987 -16.760   3.422  0.00  0.00     0.034 A 
HETATM   26  C           1      42.695 -17.533   2.359  0.00  0.00     0.029 A 
HETATM   27  C           1      43.169 -18.783   2.248  0.00  0.00     0.002 A 
HETATM   28  C           1      43.958 -19.284   3.209  0.00  0.00     0.000 A 
HETATM   29  C           1      44.264 -18.527   4.272  0.00  0.00     0.002 A 
HETATM   30  C           1      43.783 -17.276   4.376  0.00  0.00     0.029 A 
ENDBRANCH  23  25
ENDBRANCH  20  21
ENDBRANCH   3  20
BRANCH  12  31
HETATM   31  C           1      38.746 -11.070  -2.256  0.00  0.00     0.176 C 
BRANCH  31  32
HETATM   32  O           1      38.249 -11.565  -3.484  0.00  0.00    -0.400 OA
HETATM   33  H           1      38.954 -11.588  -4.132  0.00  0.00     0.209 HD
ENDBRANCH  31  32
ENDBRANCH  12  31
BRANCH  13  34
HETATM   34  O           1      37.686 -13.361  -1.256  0.00  0.00    -0.395 OA
HETATM   35  H           1      37.430 -12.444  -1.390  0.00  0.00     0.210 HD
ENDBRANCH  13  34
BRANCH   9  36
HETATM   36  C           1      41.321  -7.351   6.617  0.00  0.00     0.270 C 
BRANCH  36  37
HETATM   37  O           1      42.595  -7.023   7.138  0.00  0.00    -0.387 OA
HETATM   38  C           1      42.661  -7.197   8.537  0.00  0.00     0.202 C 
ENDBRANCH  36  37
ENDBRANCH   9  36
TORSDOF 8
ENDMDL
MODEL 4
REMARK VINA RESULT:      -8.3      2.729      7.644
REMARK  8 active torsions:
REMARK  status: ('A' for Active; 'I' for Inactive)
REMARK    1  A    between atoms: C_3  and  C_27 
REMARK       I    between atoms: N_12  and  C_13 
REMARK    2  A    between atoms: C_13  and  C_14 
REMARK    3  A    between atoms: C_14  and  O_15 
REMARK    4  A    between atoms: C_18  and  C_36 
REMARK    5  A    between atoms: O_19  and  C_36 
REMARK    6  A    between atoms: C_20  and  O_21 
REMARK    7  A    between atoms: C_27  and  C_28 
REMARK       I    between atoms: C_28  and  N_29 
REMARK    8  A    between atoms: N_29  and  C_30 
ROOT
HETATM    1  C           1      43.084 -11.541   3.719  0.00  0.00     0.016 C 
HETATM    2  C           1      42.120 -11.468   4.933  0.00  0.00    -0.030 C 
HETATM    3  C           1      42.641 -12.470   6.015  0.00  0.00     0.056 C 
HETATM    4  C           1      42.214 -13.852   5.621  0.00  0.00     0.056 A 
HETATM    5  C           1      40.971 -14.119   5.228  0.00  0.00     0.012 A 
HETATM    6  S           1      40.839 -15.540   4.897  0.00  0.00    -0.055 SA
HETATM    7  C           1      42.236 -15.849   5.225  0.00  0.00     0.174 A 
HETATM    8  N           1      42.668 -17.117   5.083  0.00  0.00    -0.304 N 
HETATM    9  C           1      43.910 -17.641   5.288  0.00  0.00     0.247 C 
HETATM   10  O           1      44.864 -16.992   5.635  0.00  0.00    -0.271 OA
HETATM   11  N           1      42.946 -14.874   5.610  0.00  0.00    -0.227 NA
HETATM   12  C           1      39.668 -10.587   4.282  0.00  0.00     0.008 C 
HETATM   13  C           1      40.408  -9.327   3.797  0.00  0.00     0.128 C 
HETATM   14  C           1      42.192 -10.042   5.514  0.00  0.00     0.013 C 
HETATM   15  H           1      41.929 -17.738   4.788  0.00  0.00     0.171 HD
HETATM   16  C           1      38.899 -10.240   5.581  0.00  0.00     0.020 C 
HETATM   17  C           1      39.981 -13.000   5.149  0.00  0.00     0.055 C 
HETATM   18  C           1      40.654 -11.790   4.454  0.00  0.00     0.012 C 
HETATM   19  C           1      41.678  -8.956   4.564  0.00  0.00     0.033 C 
ENDROOT
BRANCH   3  20
HETATM   20  C           1      44.142 -12.437   6.372  0.00  0.00     0.114 C 
BRANCH  20  21
HETATM   21  C           1      44.488 -11.302   7.334  0.00  0.00     0.222 C 
HETATM   22  O           1      45.468 -10.623   7.162  0.00  0.00    -0.273 OA
HETATM   23  N           1      43.597 -11.142   8.353  0.00  0.00    -0.327 N 
HETATM   24  H           1      42.803 -11.765   8.378  0.00  0.00     0.169 HD
BRANCH  23  25
HETATM   25  C           1      43.517 -10.275   9.384  0.00  0.00     0.034 A 
HETATM   26  C           1      42.935  -9.093   9.107  0.00  0.00     0.029 A 
HETATM   27  C           1      42.799  -8.141  10.042  0.00  0.00     0.002 A 
HETATM   28  C           1      43.246  -8.360  11.286  0.00  0.00     0.000 A 
HETATM   29  C           1      43.824  -9.534  11.582  0.00  0.00     0.002 A 
HETATM   30  C           1      43.956 -10.481  10.639  0.00  0.00     0.029 A 
ENDBRANCH  23  25
ENDBRANCH  20  21
ENDBRANCH   3  20
BRANCH  12  31
HETATM   31  C           1      38.589 -10.971   3.235  0.00  0.00     0.176 C 
BRANCH  31  32
HETATM   32  O           1      37.758  -9.867   2.934  0.00  0.00    -0.400 OA
HETATM   33  H           1      37.749  -9.258   3.674  0.00  0.00     0.209 HD
ENDBRANCH  31  32
ENDBRANCH  12  31
BRANCH  13  34
HETATM   34  O           1      40.696  -9.463   2.424  0.00  0.00    -0.395 OA
HETATM   35  H           1      40.605 -10.393   2.196  0.00  0.00     0.210 HD
ENDBRANCH  13  34
BRANCH   9  36
HETATM   36  C           1      43.996 -19.139   5.031  0.00  0.00     0.270 C 
BRANCH  36  37
HETATM   37  O           1      43.843 -19.424   3.653  0.00  0.00    -0.387 OA
HETATM   38  C           1      43.699 -20.805   3.405  0.00  0.00     0.202 C 
ENDBRANCH  36  37
ENDBRANCH   9  36
TORSDOF 8
ENDMDL
MODEL 5
REMARK VINA RESULT:      -8.3      3.420      6.659
REMARK  8 active torsions:
REMARK  status: ('A' for Active; 'I' for Inactive)
REMARK    1  A    between atoms: C_3  and  C_27 
REMARK       I    between atoms: N_12  and  C_13 
REMARK    2  A    between atoms: C_13  and  C_14 
REMARK    3  A    between atoms: C_14  and  O_15 
REMARK    4  A    between atoms: C_18  and  C_36 
REMARK    5  A    between atoms: O_19  and  C_36 
REMARK    6  A    between atoms: C_20  and  O_21 
REMARK    7  A    between atoms: C_27  and  C_28 
REMARK       I    between atoms: C_28  and  N_29 
REMARK    8  A    between atoms: N_29  and  C_30 
ROOT
HETATM    1  C           1      43.596 -12.608   3.134  0.00  0.00     0.016 C 
HETATM    2  C           1      42.169 -13.024   3.581  0.00  0.00    -0.030 C 
HETATM    3  C           1      41.418 -13.575   2.326  0.00  0.00     0.056 C 
HETATM    4  C           1      40.942 -12.410   1.512  0.00  0.00     0.056 A 
HETATM    5  C           1      40.322 -11.371   2.068  0.00  0.00     0.012 A 
HETATM    6  S           1      39.978 -10.381   1.044  0.00  0.00    -0.055 SA
HETATM    7  C           1      40.545 -11.173  -0.055  0.00  0.00     0.174 A 
HETATM    8  N           1      40.485 -10.676  -1.305  0.00  0.00    -0.304 N 
HETATM    9  C           1      40.963 -11.197  -2.472  0.00  0.00     0.247 C 
HETATM   10  O           1      41.560 -12.241  -2.546  0.00  0.00    -0.271 OA
HETATM   11  N           1      41.070 -12.278   0.268  0.00  0.00    -0.227 NA
HETATM   12  C           1      41.342 -11.744   5.794  0.00  0.00     0.008 C 
HETATM   13  C           1      42.582 -12.382   6.449  0.00  0.00     0.128 C 
HETATM   14  C           1      42.305 -14.164   4.609  0.00  0.00     0.013 C 
HETATM   15  H           1      40.001  -9.791  -1.340  0.00  0.00     0.171 HD
HETATM   16  C           1      40.076 -12.451   6.338  0.00  0.00     0.020 C 
HETATM   17  C           1      40.123 -11.355   3.550  0.00  0.00     0.055 C 
HETATM   18  C           1      41.446 -11.784   4.233  0.00  0.00     0.012 C 
HETATM   19  C           1      42.998 -13.751   5.911  0.00  0.00     0.033 C 
ENDROOT
BRANCH   3  20
HETATM   20  C           1      42.149 -14.606   1.438  0.00  0.00     0.114 C 
BRANCH  20  21
HETATM   21  C           1      41.939 -16.041   1.916  0.00  0.00     0.222 C 
HETATM   22  O           1      40.834 -16.514   1.985  0.00  0.00    -0.273 OA
HETATM   23  N           1      43.090 -16.700   2.230  0.00  0.00    -0.327 N 
HETATM   24  H           1      43.959 -16.198   2.113  0.00  0.00     0.169 HD
BRANCH  23  25
HETATM   25  C           1      43.352 -17.950   2.664  0.00  0.00     0.034 A 
HETATM   26  C           1      43.849 -18.040   3.913  0.00  0.00     0.029 A 
HETATM   27  C           1      44.158 -19.224   4.462  0.00  0.00     0.002 A 
HETATM   28  C           1      43.968 -20.352   3.763  0.00  0.00     0.000 A 
HETATM   29  C           1      43.469 -20.282   2.520  0.00  0.00     0.002 A 
HETATM   30  C           1      43.163 -19.091   1.978  0.00  0.00     0.029 A 
ENDBRANCH  23  25
ENDBRANCH  20  21
ENDBRANCH   3  20
BRANCH  12  31
HETATM   31  C           1      41.237 -10.266   6.250  0.00  0.00     0.176 C 
BRANCH  31  32
HETATM   32  O           1      41.420 -10.151   7.648  0.00  0.00    -0.400 OA
HETATM   33  H           1      42.307  -9.836   7.832  0.00  0.00     0.209 HD
ENDBRANCH  31  32
ENDBRANCH  12  31
BRANCH  13  34
HETATM   34  O           1      43.662 -11.481   6.363  0.00  0.00    -0.395 OA
HETATM   35  H           1      44.415 -11.882   6.808  0.00  0.00     0.210 HD
ENDBRANCH  13  34
BRANCH   9  36
HETATM   36  C           1      40.683 -10.332  -3.693  0.00  0.00     0.270 C 
BRANCH  36  37
HETATM   37  O           1      40.501  -8.978  -3.322  0.00  0.00    -0.387 OA
HETATM   38  C           1      41.590  -8.168  -3.708  0.00  0.00     0.202 C 
ENDBRANCH  36  37
ENDBRANCH   9  36
TORSDOF 8
ENDMDL
MODEL 6
REMARK VINA RESULT:      -8.2      3.283      6.577
REMARK  8 active torsions:
REMARK  status: ('A' for Active; 'I' for Inactive)
REMARK    1  A    between atoms: C_3  and  C_27 
REMARK       I    between atoms: N_12  and  C_13 
REMARK    2  A    between atoms: C_13  and  C_14 
REMARK    3  A    between atoms: C_14  and  O_15 
REMARK    4  A    between atoms: C_18  and  C_36 
REMARK    5  A    between atoms: O_19  and  C_36 
REMARK    6  A    between atoms: C_20  and  O_21 
REMARK    7  A    between atoms: C_27  and  C_28 
REMARK       I    between atoms: C_28  and  N_29 
REMARK    8  A    between atoms: N_29  and  C_30 
ROOT
HETATM    1  C           1      41.440 -11.152   2.564  0.00  0.00     0.016 C 
HETATM    2  C           1      40.599 -12.297   3.189  0.00  0.00    -0.030 C 
HETATM    3  C           1      40.287 -11.905   4.670  0.00  0.00     0.056 C 
HETATM    4  C           1      41.501 -12.196   5.500  0.00  0.00     0.056 A 
HETATM    5  C           1      42.162 -13.347   5.401  0.00  0.00     0.012 A 
HETATM    6  S           1      43.305 -13.355   6.318  0.00  0.00    -0.055 SA
HETATM    7  C           1      43.022 -12.014   6.841  0.00  0.00     0.174 A 
HETATM    8  N           1      43.838 -11.504   7.784  0.00  0.00    -0.304 N 
HETATM    9  C           1      43.807 -10.284   8.395  0.00  0.00     0.247 C 
HETATM   10  O           1      42.994  -9.430   8.147  0.00  0.00    -0.271 OA
HETATM   11  N           1      42.020 -11.421   6.345  0.00  0.00    -0.227 NA
HETATM   12  C           1      40.947 -14.657   1.955  0.00  0.00     0.008 C 
HETATM   13  C           1      40.443 -13.913   0.705  0.00  0.00     0.128 C 
HETATM   14  C           1      39.268 -12.387   2.417  0.00  0.00     0.013 C 
HETATM   15  H           1      44.560 -12.155   8.054  0.00  0.00     0.171 HD
HETATM   16  C           1      39.844 -15.637   2.426  0.00  0.00     0.020 C 
HETATM   17  C           1      41.694 -14.366   4.410  0.00  0.00     0.055 C 
HETATM   18  C           1      41.394 -13.652   3.068  0.00  0.00     0.012 C 
HETATM   19  C           1      39.425 -12.799   0.951  0.00  0.00     0.033 C 
ENDROOT
BRANCH   3  20
HETATM   20  C           1      39.758 -10.481   4.948  0.00  0.00     0.114 C 
BRANCH  20  21
HETATM   21  C           1      39.146 -10.347   6.340  0.00  0.00     0.222 C 
HETATM   22  O           1      38.216 -11.034   6.676  0.00  0.00    -0.273 OA
HETATM   23  N           1      39.752  -9.415   7.129  0.00  0.00    -0.327 N 
HETATM   24  H           1      40.537  -8.915   6.738  0.00  0.00     0.169 HD
BRANCH  23  25
HETATM   25  C           1      39.545  -9.000   8.396  0.00  0.00     0.034 A 
HETATM   26  C           1      39.067  -7.747   8.527  0.00  0.00     0.029 A 
HETATM   27  C           1      38.825  -7.212   9.733  0.00  0.00     0.002 A 
HETATM   28  C           1      39.055  -7.930  10.841  0.00  0.00     0.000 A 
HETATM   29  C           1      39.526  -9.181  10.729  0.00  0.00     0.002 A 
HETATM   30  C           1      39.767  -9.709   9.517  0.00  0.00     0.029 A 
ENDBRANCH  23  25
ENDBRANCH  20  21
ENDBRANCH   3  20
BRANCH  12  31
HETATM   31  C           1      42.162 -15.538   1.560  0.00  0.00     0.176 C 
BRANCH  31  32
HETATM   32  O           1      43.344 -14.767   1.480  0.00  0.00    -0.400 OA
HETATM   33  H           1      43.782 -14.757   2.334  0.00  0.00     0.209 HD
ENDBRANCH  31  32
ENDBRANCH  12  31
BRANCH  13  34
HETATM   34  O           1      41.550 -13.406  -0.007  0.00  0.00    -0.395 OA
HETATM   35  H           1      41.769 -14.039  -0.696  0.00  0.00     0.210 HD
ENDBRANCH  13  34
BRANCH   9  36
HETATM   36  C           1      44.906 -10.085   9.429  0.00  0.00     0.270 C 
BRANCH  36  37
HETATM   37  O           1      44.708 -10.934  10.545  0.00  0.00    -0.387 OA
HETATM   38  C           1      43.575 -10.567  11.301  0.00  0.00     0.202 C 
ENDBRANCH  36  37
ENDBRANCH   9  36
TORSDOF 8
ENDMDL
MODEL 7
REMARK VINA RESULT:      -8.0      2.640      7.856
REMARK  8 active torsions:
REMARK  status: ('A' for Active; 'I' for Inactive)
REMARK    1  A    between atoms: C_3  and  C_27 
REMARK       I    between atoms: N_12  and  C_13 
REMARK    2  A    between atoms: C_13  and  C_14 
REMARK    3  A    between atoms: C_14  and  O_15 
REMARK    4  A    between atoms: C_18  and  C_36 
REMARK    5  A    between atoms: O_19  and  C_36 
REMARK    6  A    between atoms: C_20  and  O_21 
REMARK    7  A    between atoms: C_27  and  C_28 
REMARK       I    between atoms: C_28  and  N_29 
REMARK    8  A    between atoms: N_29  and  C_30 
ROOT
HETATM    1  C           1      41.101 -15.337   5.908  0.00  0.00     0.016 C 
HETATM    2  C           1      42.549 -15.166   5.376  0.00  0.00    -0.030 C 
HETATM    3  C           1      42.591 -13.858   4.520  0.00  0.00     0.056 C 
HETATM    4  C           1      42.014 -14.160   3.170  0.00  0.00     0.056 A 
HETATM    5  C           1      42.371 -15.240   2.478  0.00  0.00     0.012 A 
HETATM    6  S           1      41.647 -15.286   1.205  0.00  0.00    -0.055 SA
HETATM    7  C           1      40.922 -14.035   1.457  0.00  0.00     0.174 A 
HETATM    8  N           1      40.056 -13.592   0.524  0.00  0.00    -0.304 N 
HETATM    9  C           1      39.250 -12.492   0.538  0.00  0.00     0.247 C 
HETATM   10  O           1      39.187 -11.718   1.460  0.00  0.00    -0.271 OA
HETATM   11  N           1      41.160 -13.466   2.561  0.00  0.00    -0.227 NA
HETATM   12  C           1      43.906 -17.481   5.250  0.00  0.00     0.008 C 
HETATM   13  C           1      43.636 -17.554   6.764  0.00  0.00     0.128 C 
HETATM   14  C           1      43.485 -14.987   6.588  0.00  0.00     0.013 C 
HETATM   15  H           1      40.039 -14.187  -0.291  0.00  0.00     0.171 HD
HETATM   16  C           1      45.407 -17.170   5.030  0.00  0.00     0.020 C 
HETATM   17  C           1      43.353 -16.193   3.080  0.00  0.00     0.055 C 
HETATM   18  C           1      42.957 -16.449   4.556  0.00  0.00     0.012 C 
HETATM   19  C           1      43.565 -16.215   7.499  0.00  0.00     0.033 C 
ENDROOT
BRANCH   3  20
HETATM   20  C           1      41.961 -12.581   5.116  0.00  0.00     0.114 C 
BRANCH  20  21
HETATM   21  C           1      42.992 -11.480   5.356  0.00  0.00     0.222 C 
HETATM   22  O           1      43.388 -10.795   4.448  0.00  0.00    -0.273 OA
HETATM   23  N           1      43.385 -11.355   6.655  0.00  0.00    -0.327 N 
HETATM   24  H           1      42.965 -11.979   7.329  0.00  0.00     0.169 HD
BRANCH  23  25
HETATM   25  C           1      44.240 -10.525   7.288  0.00  0.00     0.034 A 
HETATM   26  C           1      43.672  -9.500   7.951  0.00  0.00     0.029 A 
HETATM   27  C           1      44.410  -8.598   8.615  0.00  0.00     0.002 A 
HETATM   28  C           1      45.746  -8.712   8.631  0.00  0.00     0.000 A 
HETATM   29  C           1      46.328  -9.730   7.981  0.00  0.00     0.002 A 
HETATM   30  C           1      45.581 -10.628   7.318  0.00  0.00     0.029 A 
ENDBRANCH  23  25
ENDBRANCH  20  21
ENDBRANCH   3  20
BRANCH  12  31
HETATM   31  C           1      43.663 -18.881   4.628  0.00  0.00     0.176 C 
BRANCH  31  32
HETATM   32  O           1      44.097 -19.907   5.499  0.00  0.00    -0.400 OA
HETATM   33  H           1      44.338 -19.530   6.347  0.00  0.00     0.209 HD
ENDBRANCH  31  32
ENDBRANCH  12  31
BRANCH  13  34
HETATM   34  O           1      42.453 -18.288   6.985  0.00  0.00    -0.395 OA
HETATM   35  H           1      41.748 -17.660   7.171  0.00  0.00     0.210 HD
ENDBRANCH  13  34
BRANCH   9  36
HETATM   36  C           1      38.417 -12.322  -0.724  0.00  0.00     0.270 C 
BRANCH  36  37
HETATM   37  O           1      38.950 -13.091  -1.787  0.00  0.00    -0.387 OA
HETATM   38  C           1      37.942 -13.651  -2.600  0.00  0.00     0.202 C 
ENDBRANCH  36  37
ENDBRANCH   9  36
TORSDOF 8
ENDMDL
MODEL 8
REMARK VINA RESULT:      -7.7      3.398      7.735
REMARK  8 active torsions:
REMARK  status: ('A' for Active; 'I' for Inactive)
REMARK    1  A    between atoms: C_3  and  C_27 
REMARK       I    between atoms: N_12  and  C_13 
REMARK    2  A    between atoms: C_13  and  C_14 
REMARK    3  A    between atoms: C_14  and  O_15 
REMARK    4  A    between atoms: C_18  and  C_36 
REMARK    5  A    between atoms: O_19  and  C_36 
REMARK    6  A    between atoms: C_20  and  O_21 
REMARK    7  A    between atoms: C_27  and  C_28 
REMARK       I    between atoms: C_28  and  N_29 
REMARK    8  A    between atoms: N_29  and  C_30 
ROOT
HETATM    1  C           1      39.028 -12.064   6.023  0.00  0.00     0.016 C 
HETATM    2  C           1      40.037 -11.123   5.313  0.00  0.00    -0.030 C 
HETATM    3  C           1      40.719 -11.936   4.164  0.00  0.00     0.056 C 
HETATM    4  C           1      41.783 -12.802   4.766  0.00  0.00     0.056 A 
HETATM    5  C           1      42.658 -12.329   5.651  0.00  0.00     0.012 A 
HETATM    6  S           1      43.573 -13.391   6.076  0.00  0.00    -0.055 SA
HETATM    7  C           1      42.952 -14.407   5.216  0.00  0.00     0.174 A 
HETATM    8  N           1      43.453 -15.657   5.230  0.00  0.00    -0.304 N 
HETATM    9  C           1      43.037 -16.769   4.558  0.00  0.00     0.247 C 
HETATM   10  O           1      42.087 -16.788   3.816  0.00  0.00    -0.271 OA
HETATM   11  N           1      41.964 -14.023   4.525  0.00  0.00    -0.227 NA
HETATM   12  C           1      40.877  -9.104   6.874  0.00  0.00     0.008 C 
HETATM   13  C           1      39.384  -8.734   6.946  0.00  0.00     0.128 C 
HETATM   14  C           1      39.245  -9.960   4.684  0.00  0.00     0.013 C 
HETATM   15  H           1      44.257 -15.738   5.834  0.00  0.00     0.171 HD
HETATM   16  C           1      41.604  -8.059   5.992  0.00  0.00     0.020 C 
HETATM   17  C           1      42.555 -10.898   6.076  0.00  0.00     0.055 C 
HETATM   18  C           1      41.069 -10.573   6.370  0.00  0.00     0.012 C 
HETATM   19  C           1      38.549  -9.056   5.707  0.00  0.00     0.033 C 
ENDROOT
BRANCH   3  20
HETATM   20  C           1      39.813 -12.753   3.217  0.00  0.00     0.114 C 
BRANCH  20  21
HETATM   21  C           1      40.132 -12.504   1.745  0.00  0.00     0.222 C 
HETATM   22  O           1      41.008 -11.744   1.422  0.00  0.00    -0.273 OA
HETATM   23  N           1      39.358 -13.216   0.877  0.00  0.00    -0.327 N 
HETATM   24  H           1      38.667 -13.836   1.273  0.00  0.00     0.169 HD
BRANCH  23  25
HETATM   25  C           1      39.319 -13.305  -0.468  0.00  0.00     0.034 A 
HETATM   26  C           1      38.413 -12.515  -1.077  0.00  0.00     0.029 A 
HETATM   27  C           1      38.268 -12.513  -2.411  0.00  0.00     0.002 A 
HETATM   28  C           1      39.038 -13.307  -3.167  0.00  0.00     0.000 A 
HETATM   29  C           1      39.949 -14.096  -2.578  0.00  0.00     0.002 A 
HETATM   30  C           1      40.087 -14.093  -1.242  0.00  0.00     0.029 A 
ENDBRANCH  23  25
ENDBRANCH  20  21
ENDBRANCH   3  20
BRANCH  12  31
HETATM   31  C           1      41.496  -8.976   8.290  0.00  0.00     0.176 C 
BRANCH  31  32
HETATM   32  O           1      41.134  -7.750   8.894  0.00  0.00    -0.400 OA
HETATM   33  H           1      41.537  -7.023   8.416  0.00  0.00     0.209 HD
ENDBRANCH  31  32
ENDBRANCH  12  31
BRANCH  13  34
HETATM   34  O           1      38.814  -9.342   8.083  0.00  0.00    -0.395 OA
HETATM   35  H           1      39.364  -9.121   8.840  0.00  0.00     0.210 HD
ENDBRANCH  13  34
BRANCH   9  36
HETATM   36  C           1      43.881 -18.006   4.830  0.00  0.00     0.270 C 
BRANCH  36  37
HETATM   37  O           1      43.475 -18.639   6.029  0.00  0.00    -0.387 OA
HETATM   38  C           1      43.642 -20.039   5.976  0.00  0.00     0.202 C 
ENDBRANCH  36  37
ENDBRANCH   9  36
TORSDOF 8
ENDMDL
MODEL 9
REMARK VINA RESULT:      -7.5     16.327     18.136
REMARK  8 active torsions:
REMARK  status: ('A' for Active; 'I' for Inactive)
REMARK    1  A    between atoms: C_3  and  C_27 
REMARK       I    between atoms: N_12  and  C_13 
REMARK    2  A    between atoms: C_13  and  C_14 
REMARK    3  A    between atoms: C_14  and  O_15 
REMARK    4  A    between atoms: C_18  and  C_36 
REMARK    5  A    between atoms: O_19  and  C_36 
REMARK    6  A    between atoms: C_20  and  O_21 
REMARK    7  A    between atoms: C_27  and  C_28 
REMARK       I    between atoms: C_28  and  N_29 
REMARK    8  A    between atoms: N_29  and  C_30 
ROOT
HETATM    1  C           1      44.632 -32.274  -1.389  0.00  0.00     0.016 C 
HETATM    2  C           1      45.502 -31.142  -0.780  0.00  0.00    -0.030 C 
HETATM    3  C           1      45.470 -31.301   0.775  0.00  0.00     0.056 C 
HETATM    4  C           1      44.179 -30.729   1.280  0.00  0.00     0.056 A 
HETATM    5  C           1      43.728 -29.544   0.874  0.00  0.00     0.012 A 
HETATM    6  S           1      42.448 -29.242   1.520  0.00  0.00    -0.055 SA
HETATM    7  C           1      42.425 -30.494   2.286  0.00  0.00     0.174 A 
HETATM    8  N           1      41.380 -30.732   3.102  0.00  0.00    -0.304 N 
HETATM    9  C           1      41.114 -31.819   3.881  0.00  0.00     0.247 C 
HETATM   10  O           1      41.823 -32.793   3.939  0.00  0.00    -0.271 OA
HETATM   11  N           1      43.403 -31.277   2.104  0.00  0.00    -0.227 NA
HETATM   12  C           1      45.747 -29.012  -2.398  0.00  0.00     0.008 C 
HETATM   13  C           1      46.359 -30.019  -3.390  0.00  0.00     0.128 C 
HETATM   14  C           1      46.952 -31.345  -1.261  0.00  0.00     0.013 C 
HETATM   15  H           1      40.726 -29.963   3.115  0.00  0.00     0.171 HD
HETATM   16  C           1      46.876 -28.100  -1.859  0.00  0.00     0.020 C 
HETATM   17  C           1      44.519 -28.777  -0.138  0.00  0.00     0.055 C 
HETATM   18  C           1      44.955 -29.746  -1.265  0.00  0.00     0.012 C 
HETATM   19  C           1      47.135 -31.183  -2.773  0.00  0.00     0.033 C 
ENDROOT
BRANCH   3  20
HETATM   20  C           1      45.720 -32.705   1.366  0.00  0.00     0.114 C 
BRANCH  20  21
HETATM   21  C           1      47.050 -32.797   2.110  0.00  0.00     0.222 C 
HETATM   22  O           1      47.559 -33.863   2.338  0.00  0.00    -0.273 OA
HETATM   23  N           1      47.580 -31.590   2.458  0.00  0.00    -0.327 N 
HETATM   24  H           1      47.065 -30.763   2.193  0.00  0.00     0.169 HD
BRANCH  23  25
HETATM   25  C           1      48.713 -31.225   3.093  0.00  0.00     0.034 A 
HETATM   26  C           1      49.604 -30.543   2.348  0.00  0.00     0.029 A 
HETATM   27  C           1      50.773 -30.128   2.857  0.00  0.00     0.002 A 
HETATM   28  C           1      51.073 -30.389   4.137  0.00  0.00     0.000 A 
HETATM   29  C           1      50.196 -31.063   4.895  0.00  0.00     0.002 A 
HETATM   30  C           1      49.027 -31.475   4.377  0.00  0.00     0.029 A 
ENDBRANCH  23  25
ENDBRANCH  20  21
ENDBRANCH   3  20
BRANCH  12  31
HETATM   31  C           1      44.773 -28.080  -3.165  0.00  0.00     0.176 C 
BRANCH  31  32
HETATM   32  O           1      45.449 -27.360  -4.177  0.00  0.00    -0.400 OA
HETATM   33  H           1      46.370 -27.250  -3.935  0.00  0.00     0.209 HD
ENDBRANCH  31  32
ENDBRANCH  12  31
BRANCH  13  34
HETATM   34  O           1      45.342 -30.511  -4.233  0.00  0.00    -0.395 OA
HETATM   35  H           1      45.203 -31.438  -4.015  0.00  0.00     0.210 HD
ENDBRANCH  13  34
BRANCH   9  36
HETATM   36  C           1      39.824 -31.704   4.681  0.00  0.00     0.270 C 
BRANCH  36  37
HETATM   37  O           1      39.225 -32.974   4.858  0.00  0.00    -0.387 OA
HETATM   38  C           1      38.396 -33.329   3.774  0.00  0.00     0.202 C 
ENDBRANCH  36  37
ENDBRANCH   9  36
TORSDOF 8
ENDMDL
MODEL 10
REMARK VINA RESULT:      -7.4      3.636      7.037
REMARK  8 active torsions:
REMARK  status: ('A' for Active; 'I' for Inactive)
REMARK    1  A    between atoms: C_3  and  C_27 
REMARK       I    between atoms: N_12  and  C_13 
REMARK    2  A    between atoms: C_13  and  C_14 
REMARK    3  A    between atoms: C_14  and  O_15 
REMARK    4  A    between atoms: C_18  and  C_36 
REMARK    5  A    between atoms: O_19  and  C_36 
REMARK    6  A    between atoms: C_20  and  O_21 
REMARK    7  A    between atoms: C_27  and  C_28 
REMARK       I    between atoms: C_28  and  N_29 
REMARK    8  A    between atoms: N_29  and  C_30 
ROOT
HETATM    1  C           1      39.697 -13.012   5.212  0.00  0.00     0.016 C 
HETATM    2  C           1      41.226 -13.231   5.064  0.00  0.00    -0.030 C 
HETATM    3  C           1      41.904 -11.824   4.991  0.00  0.00     0.056 C 
HETATM    4  C           1      41.736 -11.292   3.600  0.00  0.00     0.056 A 
HETATM    5  C           1      41.983 -12.039   2.526  0.00  0.00     0.012 A 
HETATM    6  S           1      41.728 -11.270   1.305  0.00  0.00    -0.055 SA
HETATM    7  C           1      41.337 -10.056   2.032  0.00  0.00     0.174 A 
HETATM    8  N           1      40.980  -8.967   1.325  0.00  0.00    -0.304 N 
HETATM    9  C           1      40.551  -7.747   1.761  0.00  0.00     0.247 C 
HETATM   10  O           1      40.410  -7.462   2.923  0.00  0.00    -0.271 OA
HETATM   11  N           1      41.353 -10.133   3.295  0.00  0.00    -0.227 NA
HETATM   12  C           1      41.852 -15.622   4.011  0.00  0.00     0.008 C 
HETATM   13  C           1      41.097 -16.192   5.227  0.00  0.00     0.128 C 
HETATM   14  C           1      41.729 -13.951   6.330  0.00  0.00     0.013 C 
HETATM   15  H           1      41.063  -9.116   0.330  0.00  0.00     0.171 HD
HETATM   16  C           1      43.367 -15.875   4.208  0.00  0.00     0.020 C 
HETATM   17  C           1      42.412 -13.459   2.716  0.00  0.00     0.055 C 
HETATM   18  C           1      41.504 -14.113   3.788  0.00  0.00     0.012 C 
HETATM   19  C           1      41.166 -15.364   6.510  0.00  0.00     0.033 C 
ENDROOT
BRANCH   3  20
HETATM   20  C           1      41.496 -10.767   6.039  0.00  0.00     0.114 C 
BRANCH  20  21
HETATM   21  C           1      42.602 -10.499   7.058  0.00  0.00     0.222 C 
HETATM   22  O           1      43.757 -10.696   6.783  0.00  0.00    -0.273 OA
HETATM   23  N           1      42.156 -10.019   8.254  0.00  0.00    -0.327 N 
HETATM   24  H           1      41.161  -9.878   8.355  0.00  0.00     0.169 HD
BRANCH  23  25
HETATM   25  C           1      42.778  -9.646   9.391  0.00  0.00     0.034 A 
HETATM   26  C           1      42.470  -8.416   9.846  0.00  0.00     0.029 A 
HETATM   27  C           1      43.025  -7.922  10.963  0.00  0.00     0.002 A 
HETATM   28  C           1      43.905  -8.660  11.653  0.00  0.00     0.000 A 
HETATM   29  C           1      44.220  -9.889  11.218  0.00  0.00     0.002 A 
HETATM   30  C           1      43.660 -10.376  10.097  0.00  0.00     0.029 A 
ENDBRANCH  23  25
ENDBRANCH  20  21
ENDBRANCH   3  20
BRANCH  12  31
HETATM   31  C           1      41.445 -16.422   2.746  0.00  0.00     0.176 C 
BRANCH  31  32
HETATM   32  O           1      42.338 -17.494   2.513  0.00  0.00    -0.400 OA
HETATM   33  H           1      43.116 -17.172   2.054  0.00  0.00     0.209 HD
ENDBRANCH  31  32
ENDBRANCH  12  31
BRANCH  13  34
HETATM   34  O           1      39.751 -16.415   4.869  0.00  0.00    -0.395 OA
HETATM   35  H           1      39.199 -15.927   5.487  0.00  0.00     0.210 HD
ENDBRANCH  13  34
BRANCH   9  36
HETATM   36  C           1      40.254  -6.762   0.640  0.00  0.00     0.270 C 
BRANCH  36  37
HETATM   37  O           1      41.450  -6.331   0.017  0.00  0.00    -0.387 OA
HETATM   38  C           1      42.005  -5.200   0.651  0.00  0.00     0.202 C 
ENDBRANCH  36  37
ENDBRANCH   9  36
TORSDOF 8
ENDMDL
