MODEL 1
REMARK VINA RESULT:      -9.3      0.000      0.000
REMARK  3 active torsions:
REMARK  status: ('A' for Active; 'I' for Inactive)
REMARK    1  A    between atoms: C_4  and  N_5 
REMARK       I    between atoms: N_5  and  C_6 
REMARK    2  A    between atoms: C_6  and  C_7 
REMARK    3  A    between atoms: C_7  and  N_8 
ROOT
HETATM    1  N   UNL     1      42.571 -14.106   2.800  1.00  0.00    -0.224 N 
HETATM    2  N   UNL     1      42.534 -14.805   1.579  1.00  0.00    -0.180 NA
HETATM    3  C   UNL     1      42.783 -16.085   1.572  1.00  0.00     0.153 A 
HETATM    4  C   UNL     1      43.111 -16.785   2.782  1.00  0.00     0.028 A 
HETATM    5  C   UNL     1      43.158 -16.081   3.959  1.00  0.00     0.116 A 
HETATM    6  N   UNL     1      43.476 -16.943   4.968  1.00  0.00    -0.350 N 
HETATM    7  H   UNL     1      43.563 -16.683   5.942  1.00  0.00     0.166 HD
HETATM    8  C   UNL     1      43.650 -18.211   4.453  1.00  0.00     0.044 A 
HETATM    9  C   UNL     1      43.425 -18.138   3.073  1.00  0.00     0.005 A 
HETATM   10  C   UNL     1      43.984 -19.405   5.103  1.00  0.00     0.030 A 
HETATM   11  C   UNL     1      44.095 -20.557   4.319  1.00  0.00     0.002 A 
HETATM   12  C   UNL     1      43.879 -20.517   2.944  1.00  0.00     0.001 A 
HETATM   13  C   UNL     1      43.543 -19.315   2.308  1.00  0.00     0.014 A 
HETATM   14  C   UNL     1      42.900 -14.676   4.044  1.00  0.00     0.291 A 
HETATM   15  O   UNL     1      42.980 -14.046   5.095  1.00  0.00    -0.264 OA
ENDROOT
BRANCH   1  16
HETATM   16  C   UNL     1      42.237 -12.689   2.768  1.00  0.00     0.258 C 
BRANCH  16  17
HETATM   17  C   UNL     1      41.413 -12.343   1.516  1.00  0.00     0.244 C 
HETATM   18  N   UNL     1      40.072 -12.784   1.508  1.00  0.00    -0.320 N 
HETATM   19  C   UNL     1      39.440 -13.375   2.683  1.00  0.00     0.159 C 
HETATM   20  O   UNL     1      41.909 -11.679   0.600  1.00  0.00    -0.271 OA
BRANCH  18  21
HETATM   21  C   UNL     1      39.299 -12.716   0.293  1.00  0.00     0.043 A 
HETATM   22  C   UNL     1      39.420 -13.777  -0.630  1.00  0.00     0.037 A 
HETATM   23  C   UNL     1      38.654 -13.838  -1.802  1.00  0.00    -0.060 A 
HETATM   24  C   UNL     1      38.809 -14.980  -2.763  1.00  0.00     0.048 C 
HETATM   25  C   UNL     1      37.729 -12.829  -2.054  1.00  0.00     0.007 A 
HETATM   26  C   UNL     1      37.600 -11.762  -1.166  1.00  0.00     0.009 A 
HETATM   27  C   UNL     1      38.392 -11.674  -0.002  1.00  0.00    -0.035 A 
HETATM   28  C   UNL     1      38.247 -10.424   0.821  1.00  0.00     0.050 C 
ENDBRANCH  18  21
ENDBRANCH  16  17
ENDBRANCH   1  16
TORSDOF 3
ENDMDL
MODEL 2
REMARK VINA RESULT:      -9.1      4.404      7.967
REMARK  3 active torsions:
REMARK  status: ('A' for Active; 'I' for Inactive)
REMARK    1  A    between atoms: C_4  and  N_5 
REMARK       I    between atoms: N_5  and  C_6 
REMARK    2  A    between atoms: C_6  and  C_7 
REMARK    3  A    between atoms: C_7  and  N_8 
ROOT
HETATM    1  N   UNL     1      42.670 -12.040   4.806  1.00  0.00    -0.224 N 
HETATM    2  N   UNL     1      44.062 -12.144   4.986  1.00  0.00    -0.180 NA
HETATM    3  C   UNL     1      44.605 -11.636   6.056  1.00  0.00     0.153 A 
HETATM    4  C   UNL     1      43.810 -10.957   7.042  1.00  0.00     0.028 A 
HETATM    5  C   UNL     1      42.457 -10.852   6.839  1.00  0.00     0.116 A 
HETATM    6  N   UNL     1      41.910 -10.186   7.896  1.00  0.00    -0.350 N 
HETATM    7  H   UNL     1      40.924  -9.984   8.003  1.00  0.00     0.166 HD
HETATM    8  C   UNL     1      42.904  -9.841   8.788  1.00  0.00     0.044 A 
HETATM    9  C   UNL     1      44.116 -10.318   8.271  1.00  0.00     0.005 A 
HETATM   10  C   UNL     1      42.821  -9.152  10.004  1.00  0.00     0.030 A 
HETATM   11  C   UNL     1      44.008  -8.941  10.710  1.00  0.00     0.002 A 
HETATM   12  C   UNL     1      45.228  -9.400  10.221  1.00  0.00     0.001 A 
HETATM   13  C   UNL     1      45.297 -10.091   9.004  1.00  0.00     0.014 A 
HETATM   14  C   UNL     1      41.792 -11.382   5.688  1.00  0.00     0.291 A 
HETATM   15  O   UNL     1      40.586 -11.253   5.496  1.00  0.00    -0.264 OA
ENDROOT
BRANCH   1  16
HETATM   16  C   UNL     1      42.101 -12.666   3.622  1.00  0.00     0.258 C 
BRANCH  16  17
HETATM   17  C   UNL     1      42.732 -14.046   3.369  1.00  0.00     0.244 C 
HETATM   18  N   UNL     1      42.240 -15.113   4.153  1.00  0.00    -0.320 N 
HETATM   19  C   UNL     1      41.080 -14.965   5.026  1.00  0.00     0.159 C 
HETATM   20  O   UNL     1      43.589 -14.195   2.492  1.00  0.00    -0.271 OA
BRANCH  18  21
HETATM   21  C   UNL     1      42.927 -16.380   4.156  1.00  0.00     0.043 A 
HETATM   22  C   UNL     1      42.640 -17.293   3.120  1.00  0.00     0.037 A 
HETATM   23  C   UNL     1      43.310 -18.517   2.995  1.00  0.00    -0.060 A 
HETATM   24  C   UNL     1      42.978 -19.465   1.880  1.00  0.00     0.048 C 
HETATM   25  C   UNL     1      44.307 -18.834   3.914  1.00  0.00     0.007 A 
HETATM   26  C   UNL     1      44.600 -17.957   4.956  1.00  0.00     0.009 A 
HETATM   27  C   UNL     1      43.905 -16.739   5.110  1.00  0.00    -0.035 A 
HETATM   28  C   UNL     1      44.228 -15.927   6.335  1.00  0.00     0.050 C 
ENDBRANCH  18  21
ENDBRANCH  16  17
ENDBRANCH   1  16
TORSDOF 3
ENDMDL
MODEL 3
REMARK VINA RESULT:      -9.0      2.322      3.412
REMARK  3 active torsions:
REMARK  status: ('A' for Active; 'I' for Inactive)
REMARK    1  A    between atoms: C_4  and  N_5 
REMARK       I    between atoms: N_5  and  C_6 
REMARK    2  A    between atoms: C_6  and  C_7 
REMARK    3  A    between atoms: C_7  and  N_8 
ROOT
HETATM    1  N   UNL     1      43.152 -14.404   4.932  1.00  0.00    -0.224 N 
HETATM    2  N   UNL     1      42.944 -14.557   3.549  1.00  0.00    -0.180 NA
HETATM    3  C   UNL     1      43.036 -15.745   3.020  1.00  0.00     0.153 A 
HETATM    4  C   UNL     1      43.363 -16.892   3.822  1.00  0.00     0.028 A 
HETATM    5  C   UNL     1      43.578 -16.717   5.165  1.00  0.00     0.116 A 
HETATM    6  N   UNL     1      43.860 -17.931   5.721  1.00  0.00    -0.350 N 
HETATM    7  H   UNL     1      44.047 -18.086   6.703  1.00  0.00     0.166 HD
HETATM    8  C   UNL     1      43.844 -18.901   4.741  1.00  0.00     0.044 A 
HETATM    9  C   UNL     1      43.532 -18.270   3.530  1.00  0.00     0.005 A 
HETATM   10  C   UNL     1      44.078 -20.278   4.837  1.00  0.00     0.030 A 
HETATM   11  C   UNL     1      43.993 -21.032   3.663  1.00  0.00     0.002 A 
HETATM   12  C   UNL     1      43.686 -20.433   2.444  1.00  0.00     0.001 A 
HETATM   13  C   UNL     1      43.453 -19.055   2.362  1.00  0.00     0.014 A 
HETATM   14  C   UNL     1      43.498 -15.445   5.814  1.00  0.00     0.291 A 
HETATM   15  O   UNL     1      43.727 -15.290   7.011  1.00  0.00    -0.264 OA
ENDROOT
BRANCH   1  16
HETATM   16  C   UNL     1      42.989 -13.068   5.487  1.00  0.00     0.258 C 
BRANCH  16  17
HETATM   17  C   UNL     1      42.065 -12.211   4.605  1.00  0.00     0.244 C 
HETATM   18  N   UNL     1      40.679 -12.333   4.846  1.00  0.00    -0.320 N 
HETATM   19  C   UNL     1      40.151 -13.084   5.980  1.00  0.00     0.159 C 
HETATM   20  O   UNL     1      42.537 -11.436   3.766  1.00  0.00    -0.271 OA
BRANCH  18  21
HETATM   21  C   UNL     1      39.734 -11.757   3.922  1.00  0.00     0.043 A 
HETATM   22  C   UNL     1      39.280 -10.444   4.169  1.00  0.00     0.037 A 
HETATM   23  C   UNL     1      38.421  -9.773   3.288  1.00  0.00    -0.060 A 
HETATM   24  C   UNL     1      37.957  -8.377   3.583  1.00  0.00     0.048 C 
HETATM   25  C   UNL     1      38.018 -10.417   2.122  1.00  0.00     0.007 A 
HETATM   26  C   UNL     1      38.439 -11.720   1.862  1.00  0.00     0.009 A 
HETATM   27  C   UNL     1      39.275 -12.415   2.759  1.00  0.00    -0.035 A 
HETATM   28  C   UNL     1      39.573 -13.853   2.430  1.00  0.00     0.050 C 
ENDBRANCH  18  21
ENDBRANCH  16  17
ENDBRANCH   1  16
TORSDOF 3
ENDMDL
MODEL 4
REMARK VINA RESULT:      -8.8      2.618      8.130
REMARK  3 active torsions:
REMARK  status: ('A' for Active; 'I' for Inactive)
REMARK    1  A    between atoms: C_4  and  N_5 
REMARK       I    between atoms: N_5  and  C_6 
REMARK    2  A    between atoms: C_6  and  C_7 
REMARK    3  A    between atoms: C_7  and  N_8 
ROOT
HETATM    1  N   UNL     1      41.226 -12.679   1.974  1.00  0.00    -0.224 N 
HETATM    2  N   UNL     1      40.661 -13.392   0.899  1.00  0.00    -0.180 NA
HETATM    3  C   UNL     1      40.564 -12.814  -0.265  1.00  0.00     0.153 A 
HETATM    4  C   UNL     1      41.006 -11.461  -0.463  1.00  0.00     0.028 A 
HETATM    5  C   UNL     1      41.537 -10.779   0.602  1.00  0.00     0.116 A 
HETATM    6  N   UNL     1      41.893  -9.530   0.184  1.00  0.00    -0.350 N 
HETATM    7  H   UNL     1      42.322  -8.826   0.770  1.00  0.00     0.166 HD
HETATM    8  C   UNL     1      41.584  -9.386  -1.153  1.00  0.00     0.044 A 
HETATM    9  C   UNL     1      41.021 -10.594  -1.586  1.00  0.00     0.005 A 
HETATM   10  C   UNL     1      41.762  -8.288  -2.002  1.00  0.00     0.030 A 
HETATM   11  C   UNL     1      41.350  -8.426  -3.331  1.00  0.00     0.002 A 
HETATM   12  C   UNL     1      40.786  -9.613  -3.791  1.00  0.00     0.001 A 
HETATM   13  C   UNL     1      40.616 -10.704  -2.931  1.00  0.00     0.014 A 
HETATM   14  C   UNL     1      41.672 -11.346   1.909  1.00  0.00     0.291 A 
HETATM   15  O   UNL     1      42.116 -10.717   2.866  1.00  0.00    -0.264 OA
ENDROOT
BRANCH   1  16
HETATM   16  C   UNL     1      41.360 -13.381   3.242  1.00  0.00     0.258 C 
BRANCH  16  17
HETATM   17  C   UNL     1      42.288 -14.600   3.104  1.00  0.00     0.244 C 
HETATM   18  N   UNL     1      41.798 -15.821   3.615  1.00  0.00    -0.320 N 
HETATM   19  C   UNL     1      40.424 -15.972   4.084  1.00  0.00     0.159 C 
HETATM   20  O   UNL     1      43.380 -14.498   2.536  1.00  0.00    -0.271 OA
BRANCH  18  21
HETATM   21  C   UNL     1      42.680 -16.954   3.746  1.00  0.00     0.043 A 
HETATM   22  C   UNL     1      42.631 -17.952   2.750  1.00  0.00     0.037 A 
HETATM   23  C   UNL     1      43.500 -19.050   2.749  1.00  0.00    -0.060 A 
HETATM   24  C   UNL     1      43.419 -20.094   1.674  1.00  0.00     0.048 C 
HETATM   25  C   UNL     1      44.459 -19.149   3.754  1.00  0.00     0.007 A 
HETATM   26  C   UNL     1      44.519 -18.185   4.758  1.00  0.00     0.009 A 
HETATM   27  C   UNL     1      43.625 -17.095   4.787  1.00  0.00    -0.035 A 
HETATM   28  C   UNL     1      43.711 -16.181   5.978  1.00  0.00     0.050 C 
ENDBRANCH  18  21
ENDBRANCH  16  17
ENDBRANCH   1  16
TORSDOF 3
ENDMDL
MODEL 5
REMARK VINA RESULT:      -8.7      3.350      7.624
REMARK  3 active torsions:
REMARK  status: ('A' for Active; 'I' for Inactive)
REMARK    1  A    between atoms: C_4  and  N_5 
REMARK       I    between atoms: N_5  and  C_6 
REMARK    2  A    between atoms: C_6  and  C_7 
REMARK    3  A    between atoms: C_7  and  N_8 
ROOT
HETATM    1  N   UNL     1      41.902 -12.734   3.003  1.00  0.00    -0.224 N 
HETATM    2  N   UNL     1      43.181 -12.401   3.488  1.00  0.00    -0.180 NA
HETATM    3  C   UNL     1      43.282 -11.670   4.563  1.00  0.00     0.153 A 
HETATM    4  C   UNL     1      42.115 -11.186   5.246  1.00  0.00     0.028 A 
HETATM    5  C   UNL     1      40.878 -11.508   4.746  1.00  0.00     0.116 A 
HETATM    6  N   UNL     1      39.927 -10.955   5.553  1.00  0.00    -0.350 N 
HETATM    7  H   UNL     1      38.929 -11.051   5.416  1.00  0.00     0.166 HD
HETATM    8  C   UNL     1      40.537 -10.258   6.575  1.00  0.00     0.044 A 
HETATM    9  C   UNL     1      41.921 -10.389   6.404  1.00  0.00     0.005 A 
HETATM   10  C   UNL     1      39.972  -9.533   7.630  1.00  0.00     0.030 A 
HETATM   11  C   UNL     1      40.844  -8.919   8.533  1.00  0.00     0.002 A 
HETATM   12  C   UNL     1      42.224  -9.029   8.389  1.00  0.00     0.001 A 
HETATM   13  C   UNL     1      42.777  -9.761   7.330  1.00  0.00     0.014 A 
HETATM   14  C   UNL     1      40.689 -12.302   3.571  1.00  0.00     0.291 A 
HETATM   15  O   UNL     1      39.579 -12.556   3.110  1.00  0.00    -0.264 OA
ENDROOT
BRANCH   1  16
HETATM   16  C   UNL     1      41.837 -13.593   1.830  1.00  0.00     0.258 C 
BRANCH  16  17
HETATM   17  C   UNL     1      42.657 -14.877   2.039  1.00  0.00     0.244 C 
HETATM   18  N   UNL     1      42.003 -15.937   2.704  1.00  0.00    -0.320 N 
HETATM   19  C   UNL     1      40.579 -15.896   3.020  1.00  0.00     0.159 C 
HETATM   20  O   UNL     1      43.809 -14.966   1.601  1.00  0.00    -0.271 OA
BRANCH  18  21
HETATM   21  C   UNL     1      42.758 -17.081   3.152  1.00  0.00     0.043 A 
HETATM   22  C   UNL     1      42.823 -18.206   2.304  1.00  0.00     0.037 A 
HETATM   23  C   UNL     1      43.593 -19.335   2.618  1.00  0.00    -0.060 A 
HETATM   24  C   UNL     1      43.638 -20.515   1.693  1.00  0.00     0.048 C 
HETATM   25  C   UNL     1      44.333 -19.336   3.796  1.00  0.00     0.007 A 
HETATM   26  C   UNL     1      44.275 -18.243   4.659  1.00  0.00     0.009 A 
HETATM   27  C   UNL     1      43.475 -17.119   4.369  1.00  0.00    -0.035 A 
HETATM   28  C   UNL     1      43.402 -16.051   5.426  1.00  0.00     0.050 C 
ENDBRANCH  18  21
ENDBRANCH  16  17
ENDBRANCH   1  16
TORSDOF 3
ENDMDL
MODEL 6
REMARK VINA RESULT:      -8.7      1.712      7.924
REMARK  3 active torsions:
REMARK  status: ('A' for Active; 'I' for Inactive)
REMARK    1  A    between atoms: C_4  and  N_5 
REMARK       I    between atoms: N_5  and  C_6 
REMARK    2  A    between atoms: C_6  and  C_7 
REMARK    3  A    between atoms: C_7  and  N_8 
ROOT
HETATM    1  N   UNL     1      40.658 -14.236   3.102  1.00  0.00    -0.224 N 
HETATM    2  N   UNL     1      41.256 -15.032   2.108  1.00  0.00    -0.180 NA
HETATM    3  C   UNL     1      40.967 -14.809   0.856  1.00  0.00     0.153 A 
HETATM    4  C   UNL     1      40.037 -13.780   0.480  1.00  0.00     0.028 A 
HETATM    5  C   UNL     1      39.452 -13.028   1.467  1.00  0.00     0.116 A 
HETATM    6  N   UNL     1      38.623 -12.116   0.883  1.00  0.00    -0.350 N 
HETATM    7  H   UNL     1      38.077 -11.427   1.385  1.00  0.00     0.166 HD
HETATM    8  C   UNL     1      38.651 -12.277  -0.487  1.00  0.00     0.044 A 
HETATM    9  C   UNL     1      39.539 -13.324  -0.768  1.00  0.00     0.005 A 
HETATM   10  C   UNL     1      37.966 -11.579  -1.488  1.00  0.00     0.030 A 
HETATM   11  C   UNL     1      38.191 -11.962  -2.813  1.00  0.00     0.002 A 
HETATM   12  C   UNL     1      39.066 -13.000  -3.124  1.00  0.00     0.001 A 
HETATM   13  C   UNL     1      39.747 -13.689  -2.113  1.00  0.00     0.014 A 
HETATM   14  C   UNL     1      39.718 -13.216   2.860  1.00  0.00     0.291 A 
HETATM   15  O   UNL     1      39.164 -12.562   3.739  1.00  0.00    -0.264 OA
ENDROOT
BRANCH   1  16
HETATM   16  C   UNL     1      41.048 -14.487   4.482  1.00  0.00     0.258 C 
BRANCH  16  17
HETATM   17  C   UNL     1      41.397 -15.970   4.697  1.00  0.00     0.244 C 
HETATM   18  N   UNL     1      42.767 -16.307   4.631  1.00  0.00    -0.320 N 
HETATM   19  C   UNL     1      43.813 -15.294   4.544  1.00  0.00     0.159 C 
HETATM   20  O   UNL     1      40.513 -16.793   4.954  1.00  0.00    -0.271 OA
BRANCH  18  21
HETATM   21  C   UNL     1      43.166 -17.691   4.583  1.00  0.00     0.043 A 
HETATM   22  C   UNL     1      43.224 -18.322   3.322  1.00  0.00     0.037 A 
HETATM   23  C   UNL     1      43.672 -19.640   3.166  1.00  0.00    -0.060 A 
HETATM   24  C   UNL     1      43.720 -20.280   1.810  1.00  0.00     0.048 C 
HETATM   25  C   UNL     1      44.094 -20.344   4.290  1.00  0.00     0.007 A 
HETATM   26  C   UNL     1      44.033 -19.749   5.550  1.00  0.00     0.009 A 
HETATM   27  C   UNL     1      43.550 -18.436   5.721  1.00  0.00    -0.035 A 
HETATM   28  C   UNL     1      43.423 -17.941   7.135  1.00  0.00     0.050 C 
ENDBRANCH  18  21
ENDBRANCH  16  17
ENDBRANCH   1  16
TORSDOF 3
ENDMDL
MODEL 7
REMARK VINA RESULT:      -8.5      3.274      8.366
REMARK  3 active torsions:
REMARK  status: ('A' for Active; 'I' for Inactive)
REMARK    1  A    between atoms: C_4  and  N_5 
REMARK       I    between atoms: N_5  and  C_6 
REMARK    2  A    between atoms: C_6  and  C_7 
REMARK    3  A    between atoms: C_7  and  N_8 
ROOT
HETATM    1  N   UNL     1      40.120 -13.140   3.253  1.00  0.00    -0.224 N 
HETATM    2  N   UNL     1      40.954 -13.086   4.386  1.00  0.00    -0.180 NA
HETATM    3  C   UNL     1      40.848 -12.078   5.206  1.00  0.00     0.153 A 
HETATM    4  C   UNL     1      39.911 -11.016   4.962  1.00  0.00     0.028 A 
HETATM    5  C   UNL     1      39.120 -11.080   3.842  1.00  0.00     0.116 A 
HETATM    6  N   UNL     1      38.309  -9.983   3.821  1.00  0.00    -0.350 N 
HETATM    7  H   UNL     1      37.618  -9.791   3.108  1.00  0.00     0.166 HD
HETATM    8  C   UNL     1      38.576  -9.191   4.919  1.00  0.00     0.044 A 
HETATM    9  C   UNL     1      39.585  -9.823   5.656  1.00  0.00     0.005 A 
HETATM   10  C   UNL     1      38.001  -7.977   5.310  1.00  0.00     0.030 A 
HETATM   11  C   UNL     1      38.473  -7.388   6.487  1.00  0.00     0.002 A 
HETATM   12  C   UNL     1      39.477  -7.990   7.241  1.00  0.00     0.001 A 
HETATM   13  C   UNL     1      40.042  -9.207   6.839  1.00  0.00     0.014 A 
HETATM   14  C   UNL     1      39.182 -12.153   2.897  1.00  0.00     0.291 A 
HETATM   15  O   UNL     1      38.496 -12.185   1.879  1.00  0.00    -0.264 OA
ENDROOT
BRANCH   1  16
HETATM   16  C   UNL     1      40.238 -14.308   2.393  1.00  0.00     0.258 C 
BRANCH  16  17
HETATM   17  C   UNL     1      40.918 -15.473   3.132  1.00  0.00     0.244 C 
HETATM   18  N   UNL     1      42.280 -15.695   2.832  1.00  0.00    -0.320 N 
HETATM   19  C   UNL     1      43.055 -14.772   2.009  1.00  0.00     0.159 C 
HETATM   20  O   UNL     1      40.297 -16.136   3.969  1.00  0.00    -0.271 OA
BRANCH  18  21
HETATM   21  C   UNL     1      42.932 -16.897   3.289  1.00  0.00     0.043 A 
HETATM   22  C   UNL     1      42.954 -18.011   2.423  1.00  0.00     0.037 A 
HETATM   23  C   UNL     1      43.627 -19.196   2.747  1.00  0.00    -0.060 A 
HETATM   24  C   UNL     1      43.630 -20.361   1.803  1.00  0.00     0.048 C 
HETATM   25  C   UNL     1      44.314 -19.269   3.956  1.00  0.00     0.007 A 
HETATM   26  C   UNL     1      44.295 -18.189   4.836  1.00  0.00     0.009 A 
HETATM   27  C   UNL     1      43.591 -17.005   4.534  1.00  0.00    -0.035 A 
HETATM   28  C   UNL     1      43.547 -15.952   5.607  1.00  0.00     0.050 C 
ENDBRANCH  18  21
ENDBRANCH  16  17
ENDBRANCH   1  16
TORSDOF 3
ENDMDL
MODEL 8
REMARK VINA RESULT:      -8.5      6.407      9.090
REMARK  3 active torsions:
REMARK  status: ('A' for Active; 'I' for Inactive)
REMARK    1  A    between atoms: C_4  and  N_5 
REMARK       I    between atoms: N_5  and  C_6 
REMARK    2  A    between atoms: C_6  and  C_7 
REMARK    3  A    between atoms: C_7  and  N_8 
ROOT
HETATM    1  N   UNL     1      43.936 -10.511   7.405  1.00  0.00    -0.224 N 
HETATM    2  N   UNL     1      42.634 -10.014   7.208  1.00  0.00    -0.180 NA
HETATM    3  C   UNL     1      42.043  -9.375   8.178  1.00  0.00     0.153 A 
HETATM    4  C   UNL     1      42.691  -9.188   9.447  1.00  0.00     0.028 A 
HETATM    5  C   UNL     1      43.954  -9.695   9.624  1.00  0.00     0.116 A 
HETATM    6  N   UNL     1      44.370  -9.392  10.887  1.00  0.00    -0.350 N 
HETATM    7  H   UNL     1      45.273  -9.639  11.272  1.00  0.00     0.166 HD
HETATM    8  C   UNL     1      43.376  -8.698  11.546  1.00  0.00     0.044 A 
HETATM    9  C   UNL     1      42.304  -8.555  10.657  1.00  0.00     0.005 A 
HETATM   10  C   UNL     1      43.350  -8.188  12.849  1.00  0.00     0.030 A 
HETATM   11  C   UNL     1      42.194  -7.516  13.258  1.00  0.00     0.002 A 
HETATM   12  C   UNL     1      41.111  -7.360  12.397  1.00  0.00     0.001 A 
HETATM   13  C   UNL     1      41.151  -7.873  11.095  1.00  0.00     0.014 A 
HETATM   14  C   UNL     1      44.662 -10.409   8.607  1.00  0.00     0.291 A 
HETATM   15  O   UNL     1      45.778 -10.891   8.784  1.00  0.00    -0.264 OA
ENDROOT
BRANCH   1  16
HETATM   16  C   UNL     1      44.576 -11.173   6.278  1.00  0.00     0.258 C 
BRANCH  16  17
HETATM   17  C   UNL     1      43.952 -12.555   6.021  1.00  0.00     0.244 C 
HETATM   18  N   UNL     1      43.289 -12.723   4.785  1.00  0.00    -0.320 N 
HETATM   19  C   UNL     1      43.341 -11.715   3.732  1.00  0.00     0.159 C 
HETATM   20  O   UNL     1      44.074 -13.464   6.848  1.00  0.00    -0.271 OA
BRANCH  18  21
HETATM   21  C   UNL     1      42.477 -13.892   4.557  1.00  0.00     0.043 A 
HETATM   22  C   UNL     1      43.006 -14.920   3.748  1.00  0.00     0.037 A 
HETATM   23  C   UNL     1      42.325 -16.124   3.529  1.00  0.00    -0.060 A 
HETATM   24  C   UNL     1      42.918 -17.196   2.662  1.00  0.00     0.048 C 
HETATM   25  C   UNL     1      41.094 -16.322   4.148  1.00  0.00     0.007 A 
HETATM   26  C   UNL     1      40.542 -15.317   4.940  1.00  0.00     0.009 A 
HETATM   27  C   UNL     1      41.203 -14.087   5.136  1.00  0.00    -0.035 A 
HETATM   28  C   UNL     1      40.461 -13.037   5.916  1.00  0.00     0.050 C 
ENDBRANCH  18  21
ENDBRANCH  16  17
ENDBRANCH   1  16
TORSDOF 3
ENDMDL
MODEL 9
REMARK VINA RESULT:      -8.4      3.590      6.400
REMARK  3 active torsions:
REMARK  status: ('A' for Active; 'I' for Inactive)
REMARK    1  A    between atoms: C_4  and  N_5 
REMARK       I    between atoms: N_5  and  C_6 
REMARK    2  A    between atoms: C_6  and  C_7 
REMARK    3  A    between atoms: C_7  and  N_8 
ROOT
HETATM    1  N   UNL     1      41.439 -14.180   4.039  1.00  0.00    -0.224 N 
HETATM    2  N   UNL     1      42.131 -14.533   5.213  1.00  0.00    -0.180 NA
HETATM    3  C   UNL     1      42.731 -15.688   5.274  1.00  0.00     0.153 A 
HETATM    4  C   UNL     1      42.681 -16.611   4.174  1.00  0.00     0.028 A 
HETATM    5  C   UNL     1      41.987 -16.254   3.045  1.00  0.00     0.116 A 
HETATM    6  N   UNL     1      42.083 -17.268   2.138  1.00  0.00    -0.350 N 
HETATM    7  H   UNL     1      41.671 -17.256   1.214  1.00  0.00     0.166 HD
HETATM    8  C   UNL     1      42.829 -18.297   2.674  1.00  0.00     0.044 A 
HETATM    9  C   UNL     1      43.220 -17.906   3.961  1.00  0.00     0.005 A 
HETATM   10  C   UNL     1      43.186 -19.531   2.118  1.00  0.00     0.030 A 
HETATM   11  C   UNL     1      43.961 -20.392   2.900  1.00  0.00     0.002 A 
HETATM   12  C   UNL     1      44.363 -20.033   4.184  1.00  0.00     0.001 A 
HETATM   13  C   UNL     1      44.001 -18.794   4.727  1.00  0.00     0.014 A 
HETATM   14  C   UNL     1      41.302 -15.005   2.907  1.00  0.00     0.291 A 
HETATM   15  O   UNL     1      40.653 -14.708   1.908  1.00  0.00    -0.264 OA
ENDROOT
BRANCH   1  16
HETATM   16  C   UNL     1      40.827 -12.860   3.997  1.00  0.00     0.258 C 
BRANCH  16  17
HETATM   17  C   UNL     1      41.196 -12.039   5.244  1.00  0.00     0.244 C 
HETATM   18  N   UNL     1      42.325 -11.199   5.129  1.00  0.00    -0.320 N 
HETATM   19  C   UNL     1      43.002 -10.976   3.856  1.00  0.00     0.159 C 
HETATM   20  O   UNL     1      40.502 -12.097   6.264  1.00  0.00    -0.271 OA
BRANCH  18  21
HETATM   21  C   UNL     1      42.884 -10.578   6.305  1.00  0.00     0.043 A 
HETATM   22  C   UNL     1      42.406  -9.302   6.671  1.00  0.00     0.037 A 
HETATM   23  C   UNL     1      42.832  -8.652   7.837  1.00  0.00    -0.060 A 
HETATM   24  C   UNL     1      42.305  -7.294   8.196  1.00  0.00     0.048 C 
HETATM   25  C   UNL     1      43.742  -9.296   8.672  1.00  0.00     0.007 A 
HETATM   26  C   UNL     1      44.241 -10.550   8.325  1.00  0.00     0.009 A 
HETATM   27  C   UNL     1      43.845 -11.196   7.135  1.00  0.00    -0.035 A 
HETATM   28  C   UNL     1      44.533 -12.493   6.809  1.00  0.00     0.050 C 
ENDBRANCH  18  21
ENDBRANCH  16  17
ENDBRANCH   1  16
TORSDOF 3
ENDMDL
MODEL 10
REMARK VINA RESULT:      -8.2      6.829      9.478
REMARK  3 active torsions:
REMARK  status: ('A' for Active; 'I' for Inactive)
REMARK    1  A    between atoms: C_4  and  N_5 
REMARK       I    between atoms: N_5  and  C_6 
REMARK    2  A    between atoms: C_6  and  C_7 
REMARK    3  A    between atoms: C_7  and  N_8 
ROOT
HETATM    1  N   UNL     1      42.785 -10.787   6.821  1.00  0.00    -0.224 N 
HETATM    2  N   UNL     1      43.979 -11.289   7.372  1.00  0.00    -0.180 NA
HETATM    3  C   UNL     1      44.283 -12.544   7.195  1.00  0.00     0.153 A 
HETATM    4  C   UNL     1      43.412 -13.423   6.465  1.00  0.00     0.028 A 
HETATM    5  C   UNL     1      42.244 -12.917   5.951  1.00  0.00     0.116 A 
HETATM    6  N   UNL     1      41.588 -13.919   5.297  1.00  0.00    -0.350 N 
HETATM    7  H   UNL     1      40.705 -13.811   4.815  1.00  0.00     0.166 HD
HETATM    8  C   UNL     1      42.317 -15.086   5.391  1.00  0.00     0.044 A 
HETATM    9  C   UNL     1      43.475 -14.799   6.125  1.00  0.00     0.005 A 
HETATM   10  C   UNL     1      42.041 -16.361   4.883  1.00  0.00     0.030 A 
HETATM   11  C   UNL     1      42.972 -17.372   5.135  1.00  0.00     0.002 A 
HETATM   12  C   UNL     1      44.132 -17.119   5.863  1.00  0.00     0.001 A 
HETATM   13  C   UNL     1      44.397 -15.838   6.364  1.00  0.00     0.014 A 
HETATM   14  C   UNL     1      41.844 -11.553   6.108  1.00  0.00     0.291 A 
HETATM   15  O   UNL     1      40.781 -11.116   5.676  1.00  0.00    -0.264 OA
ENDROOT
BRANCH   1  16
HETATM   16  C   UNL     1      42.512  -9.368   7.001  1.00  0.00     0.258 C 
BRANCH  16  17
HETATM   17  C   UNL     1      42.166  -9.052   8.465  1.00  0.00     0.244 C 
HETATM   18  N   UNL     1      43.185  -8.450   9.234  1.00  0.00    -0.320 N 
HETATM   19  C   UNL     1      44.435  -7.985   8.641  1.00  0.00     0.159 C 
HETATM   20  O   UNL     1      41.036  -9.284   8.909  1.00  0.00    -0.271 OA
BRANCH  18  21
HETATM   21  C   UNL     1      43.037  -8.336  10.664  1.00  0.00     0.043 A 
HETATM   22  C   UNL     1      42.641  -7.089  11.193  1.00  0.00     0.037 A 
HETATM   23  C   UNL     1      42.398  -6.901  12.559  1.00  0.00    -0.060 A 
HETATM   24  C   UNL     1      41.979  -5.561  13.088  1.00  0.00     0.048 C 
HETATM   25  C   UNL     1      42.532  -7.985  13.422  1.00  0.00     0.007 A 
HETATM   26  C   UNL     1      42.937  -9.224  12.928  1.00  0.00     0.009 A 
HETATM   27  C   UNL     1      43.219  -9.414  11.559  1.00  0.00    -0.035 A 
HETATM   28  C   UNL     1      43.756 -10.761  11.160  1.00  0.00     0.050 C 
ENDBRANCH  18  21
ENDBRANCH  16  17
ENDBRANCH   1  16
TORSDOF 3
ENDMDL
