MODEL 1
REMARK VINA RESULT:      -8.9      0.000      0.000
REMARK  8 active torsions:
REMARK  status: ('A' for Active; 'I' for Inactive)
REMARK    1  A    between atoms: C_2  and  O_3 
REMARK    2  A    between atoms: O_3  and  C_4 
REMARK    3  A    between atoms: C_5  and  N_6 
REMARK       I    between atoms: N_9  and  C_10 
REMARK    4  A    between atoms: C_10  and  C_11 
REMARK    5  A    between atoms: C_14  and  C_15 
REMARK       I    between atoms: C_15  and  N_16 
REMARK    6  A    between atoms: N_16  and  C_17 
REMARK    7  A    between atoms: C_17  and  C_18 
REMARK    8  A    between atoms: N_23  and  C_24 
ROOT
HETATM    1  C   UNL     1      41.781 -11.828   5.448  1.00  0.00     0.098 A 
HETATM    2  C   UNL     1      41.951 -13.310   5.393  1.00  0.00     0.206 A 
HETATM    3  O   UNL     1      41.186 -14.025   4.747  1.00  0.00    -0.286 OA
HETATM    4  C   UNL     1      43.066 -13.910   6.180  1.00  0.00     0.098 A 
HETATM    5  C   UNL     1      43.765 -13.084   6.980  1.00  0.00     0.112 A 
HETATM    6  N   UNL     1      43.572 -11.708   7.089  1.00  0.00    -0.360 N 
HETATM    7  C   UNL     1      42.618 -11.147   6.246  1.00  0.00     0.112 A 
ENDROOT
BRANCH   1   8
HETATM    8  C   UNL     1      40.811 -11.140   4.555  1.00  0.00     0.259 C 
HETATM    9  N   UNL     1      41.264 -10.534   3.386  1.00  0.00    -0.346 N 
HETATM   10  C   UNL     1      42.435 -10.937   2.605  1.00  0.00     0.141 C 
HETATM   11  C   UNL     1      40.272  -9.866   2.539  1.00  0.00     0.141 C 
HETATM   12  C   UNL     1      42.008 -11.952   1.513  1.00  0.00     0.115 C 
HETATM   13  N   UNL     1      40.949 -11.369   0.637  1.00  0.00    -0.278 NA
HETATM   14  C   UNL     1      39.800 -10.806   1.412  1.00  0.00     0.115 C 
HETATM   15  O   UNL     1      39.628 -11.099   4.894  1.00  0.00    -0.267 OA
BRANCH  13  16
HETATM   16  C   UNL     1      40.621 -12.171  -0.489  1.00  0.00     0.044 A 
HETATM   17  C   UNL     1      39.966 -13.422  -0.380  1.00  0.00     0.090 A 
HETATM   18  C   UNL     1      39.600 -14.179  -1.504  1.00  0.00     0.038 A 
HETATM   19  C   UNL     1      39.935 -13.749  -2.779  1.00  0.00     0.003 A 
HETATM   20  C   UNL     1      40.629 -12.557  -2.928  1.00  0.00     0.002 A 
HETATM   21  C   UNL     1      40.963 -11.787  -1.804  1.00  0.00     0.026 A 
BRANCH  17  22
HETATM   22  O   UNL     1      39.626 -14.000   0.821  1.00  0.00    -0.350 OA
BRANCH  22  23
HETATM   23  C   UNL     1      40.182 -15.315   0.933  1.00  0.00     0.171 C 
HETATM   24  C   UNL     1      39.752 -15.876   2.277  1.00  0.00     0.034 C 
ENDBRANCH  22  23
ENDBRANCH  17  22
ENDBRANCH  13  16
ENDBRANCH   1   8
BRANCH   4  25
HETATM   25  C   UNL     1      43.454 -15.349   6.151  1.00  0.00     0.257 C 
HETATM   26  N   UNL     1      43.484 -15.929   4.909  1.00  0.00    -0.356 N 
HETATM   27  H   UNL     1      43.169 -15.381   4.108  1.00  0.00     0.162 HD
HETATM   28  O   UNL     1      43.747 -15.957   7.178  1.00  0.00    -0.267 OA
BRANCH  26  29
HETATM   29  C   UNL     1      43.900 -17.299   4.697  1.00  0.00     0.126 C 
BRANCH  29  30
HETATM   30  C   UNL     1      43.289 -17.919   3.434  1.00  0.00    -0.005 C 
HETATM   31  C   UNL     1      43.340 -16.948   2.253  1.00  0.00     0.011 C 
HETATM   32  C   UNL     1      44.026 -19.213   3.078  1.00  0.00     0.011 C 
ENDBRANCH  29  30
ENDBRANCH  26  29
ENDBRANCH   4  25
BRANCH   6  33
HETATM   33  C   UNL     1      44.166 -10.988   8.241  1.00  0.00     0.088 C 
HETATM   34  C   UNL     1      45.627 -10.559   8.087  1.00  0.00     0.026 C 
HETATM   35  C   UNL     1      45.733  -9.367   9.029  1.00  0.00     0.002 C 
HETATM   36  C   UNL     1      44.435  -8.614   8.782  1.00  0.00     0.002 C 
HETATM   37  C   UNL     1      43.386  -9.698   8.552  1.00  0.00     0.026 C 
ENDBRANCH   6  33
TORSDOF 8
ENDMDL
MODEL 2
REMARK VINA RESULT:      -8.9      1.274      2.195
REMARK  8 active torsions:
REMARK  status: ('A' for Active; 'I' for Inactive)
REMARK    1  A    between atoms: C_2  and  O_3 
REMARK    2  A    between atoms: O_3  and  C_4 
REMARK    3  A    between atoms: C_5  and  N_6 
REMARK       I    between atoms: N_9  and  C_10 
REMARK    4  A    between atoms: C_10  and  C_11 
REMARK    5  A    between atoms: C_14  and  C_15 
REMARK       I    between atoms: C_15  and  N_16 
REMARK    6  A    between atoms: N_16  and  C_17 
REMARK    7  A    between atoms: C_17  and  C_18 
REMARK    8  A    between atoms: N_23  and  C_24 
ROOT
HETATM    1  C   UNL     1      41.654 -12.492   5.321  1.00  0.00     0.098 A 
HETATM    2  C   UNL     1      41.927 -13.957   5.225  1.00  0.00     0.206 A 
HETATM    3  O   UNL     1      41.131 -14.731   4.694  1.00  0.00    -0.286 OA
HETATM    4  C   UNL     1      43.191 -14.468   5.831  1.00  0.00     0.098 A 
HETATM    5  C   UNL     1      43.936 -13.589   6.525  1.00  0.00     0.112 A 
HETATM    6  N   UNL     1      43.656 -12.231   6.676  1.00  0.00    -0.360 N 
HETATM    7  C   UNL     1      42.546 -11.747   5.991  1.00  0.00     0.112 A 
ENDROOT
BRANCH   1   8
HETATM    8  C   UNL     1      40.511 -11.884   4.590  1.00  0.00     0.259 C 
HETATM    9  N   UNL     1      40.738 -11.231   3.380  1.00  0.00    -0.346 N 
HETATM   10  C   UNL     1      41.814 -11.526   2.432  1.00  0.00     0.141 C 
HETATM   11  C   UNL     1      39.582 -10.644   2.698  1.00  0.00     0.141 C 
HETATM   12  C   UNL     1      41.321 -12.565   1.392  1.00  0.00     0.115 C 
HETATM   13  N   UNL     1      40.101 -12.068   0.688  1.00  0.00    -0.278 NA
HETATM   14  C   UNL     1      39.033 -11.612   1.631  1.00  0.00     0.115 C 
HETATM   15  O   UNL     1      39.390 -11.947   5.095  1.00  0.00    -0.267 OA
BRANCH  13  16
HETATM   16  C   UNL     1      39.682 -12.886  -0.396  1.00  0.00     0.044 A 
HETATM   17  C   UNL     1      39.129 -12.362  -1.589  1.00  0.00     0.090 A 
HETATM   18  C   UNL     1      38.767 -13.179  -2.672  1.00  0.00     0.038 A 
HETATM   19  C   UNL     1      38.882 -14.558  -2.579  1.00  0.00     0.003 A 
HETATM   20  C   UNL     1      39.366 -15.117  -1.405  1.00  0.00     0.002 A 
HETATM   21  C   UNL     1      39.757 -14.295  -0.338  1.00  0.00     0.026 A 
BRANCH  17  22
HETATM   22  O   UNL     1      38.902 -11.022  -1.797  1.00  0.00    -0.350 OA
BRANCH  22  23
HETATM   23  C   UNL     1      39.536 -10.575  -3.001  1.00  0.00     0.171 C 
HETATM   24  C   UNL     1      40.947 -10.147  -2.638  1.00  0.00     0.034 C 
ENDBRANCH  22  23
ENDBRANCH  17  22
ENDBRANCH  13  16
ENDBRANCH   1   8
BRANCH   4  25
HETATM   25  C   UNL     1      43.680 -15.872   5.730  1.00  0.00     0.257 C 
HETATM   26  N   UNL     1      43.439 -16.497   4.533  1.00  0.00    -0.356 N 
HETATM   27  H   UNL     1      42.884 -16.009   3.831  1.00  0.00     0.162 HD
HETATM   28  O   UNL     1      44.276 -16.414   6.657  1.00  0.00    -0.267 OA
BRANCH  26  29
HETATM   29  C   UNL     1      43.902 -17.839   4.247  1.00  0.00     0.126 C 
BRANCH  29  30
HETATM   30  C   UNL     1      43.694 -18.242   2.781  1.00  0.00    -0.005 C 
HETATM   31  C   UNL     1      43.586 -19.760   2.629  1.00  0.00     0.011 C 
HETATM   32  C   UNL     1      42.435 -17.570   2.229  1.00  0.00     0.011 C 
ENDBRANCH  29  30
ENDBRANCH  26  29
ENDBRANCH   4  25
BRANCH   6  33
HETATM   33  C   UNL     1      44.359 -11.466   7.733  1.00  0.00     0.088 C 
HETATM   34  C   UNL     1      45.736 -10.909   7.361  1.00  0.00     0.026 C 
HETATM   35  C   UNL     1      45.884  -9.716   8.294  1.00  0.00     0.002 C 
HETATM   36  C   UNL     1      44.503  -9.078   8.266  1.00  0.00     0.002 C 
HETATM   37  C   UNL     1      43.529 -10.250   8.184  1.00  0.00     0.026 C 
ENDBRANCH   6  33
TORSDOF 8
ENDMDL
MODEL 3
REMARK VINA RESULT:      -8.6      1.807      5.336
REMARK  8 active torsions:
REMARK  status: ('A' for Active; 'I' for Inactive)
REMARK    1  A    between atoms: C_2  and  O_3 
REMARK    2  A    between atoms: O_3  and  C_4 
REMARK    3  A    between atoms: C_5  and  N_6 
REMARK       I    between atoms: N_9  and  C_10 
REMARK    4  A    between atoms: C_10  and  C_11 
REMARK    5  A    between atoms: C_14  and  C_15 
REMARK       I    between atoms: C_15  and  N_16 
REMARK    6  A    between atoms: N_16  and  C_17 
REMARK    7  A    between atoms: C_17  and  C_18 
REMARK    8  A    between atoms: N_23  and  C_24 
ROOT
HETATM    1  C   UNL     1      41.506 -12.661   5.336  1.00  0.00     0.098 A 
HETATM    2  C   UNL     1      42.276 -11.719   6.202  1.00  0.00     0.206 A 
HETATM    3  O   UNL     1      41.954 -10.538   6.318  1.00  0.00    -0.286 OA
HETATM    4  C   UNL     1      43.479 -12.250   6.905  1.00  0.00     0.098 A 
HETATM    5  C   UNL     1      43.855 -13.508   6.611  1.00  0.00     0.112 A 
HETATM    6  N   UNL     1      43.181 -14.375   5.752  1.00  0.00    -0.360 N 
HETATM    7  C   UNL     1      41.986 -13.908   5.213  1.00  0.00     0.112 A 
ENDROOT
BRANCH   1   8
HETATM    8  C   UNL     1      40.201 -12.259   4.748  1.00  0.00     0.259 C 
HETATM    9  N   UNL     1      40.177 -11.408   3.645  1.00  0.00    -0.346 N 
HETATM   10  C   UNL     1      41.220 -11.293   2.625  1.00  0.00     0.141 C 
HETATM   11  C   UNL     1      38.868 -11.037   3.103  1.00  0.00     0.141 C 
HETATM   12  C   UNL     1      40.916 -12.266   1.457  1.00  0.00     0.115 C 
HETATM   13  N   UNL     1      39.566 -11.993   0.881  1.00  0.00    -0.278 NA
HETATM   14  C   UNL     1      38.491 -11.953   1.921  1.00  0.00     0.115 C 
HETATM   15  O   UNL     1      39.168 -12.668   5.278  1.00  0.00    -0.267 OA
BRANCH  13  16
HETATM   16  C   UNL     1      39.278 -12.731  -0.299  1.00  0.00     0.044 A 
HETATM   17  C   UNL     1      39.735 -14.054  -0.512  1.00  0.00     0.090 A 
HETATM   18  C   UNL     1      39.399 -14.790  -1.659  1.00  0.00     0.038 A 
HETATM   19  C   UNL     1      38.648 -14.208  -2.670  1.00  0.00     0.003 A 
HETATM   20  C   UNL     1      38.228 -12.894  -2.528  1.00  0.00     0.002 A 
HETATM   21  C   UNL     1      38.539 -12.174  -1.365  1.00  0.00     0.026 A 
BRANCH  17  22
HETATM   22  O   UNL     1      40.536 -14.734   0.376  1.00  0.00    -0.350 OA
BRANCH  22  23
HETATM   23  C   UNL     1      39.820 -15.812   0.990  1.00  0.00     0.171 C 
HETATM   24  C   UNL     1      39.942 -15.638   2.494  1.00  0.00     0.034 C 
ENDBRANCH  22  23
ENDBRANCH  17  22
ENDBRANCH  13  16
ENDBRANCH   1   8
BRANCH   4  25
HETATM   25  C   UNL     1      44.295 -11.490   7.894  1.00  0.00     0.257 C 
HETATM   26  N   UNL     1      43.596 -10.938   8.937  1.00  0.00    -0.356 N 
HETATM   27  H   UNL     1      42.578 -11.006   8.931  1.00  0.00     0.162 HD
HETATM   28  O   UNL     1      45.515 -11.392   7.783  1.00  0.00    -0.267 OA
BRANCH  26  29
HETATM   29  C   UNL     1      44.242 -10.222  10.017  1.00  0.00     0.126 C 
BRANCH  29  30
HETATM   30  C   UNL     1      43.293  -9.923  11.185  1.00  0.00    -0.005 C 
HETATM   31  C   UNL     1      43.336 -11.032  12.238  1.00  0.00     0.011 C 
HETATM   32  C   UNL     1      43.658  -8.582  11.824  1.00  0.00     0.011 C 
ENDBRANCH  29  30
ENDBRANCH  26  29
ENDBRANCH   4  25
BRANCH   6  33
HETATM   33  C   UNL     1      43.880 -15.586   5.260  1.00  0.00     0.088 C 
HETATM   34  C   UNL     1      43.779 -16.830   6.147  1.00  0.00     0.026 C 
HETATM   35  C   UNL     1      43.974 -17.971   5.157  1.00  0.00     0.002 C 
HETATM   36  C   UNL     1      43.157 -17.529   3.953  1.00  0.00     0.002 C 
HETATM   37  C   UNL     1      43.343 -16.016   3.883  1.00  0.00     0.026 C 
ENDBRANCH   6  33
TORSDOF 8
ENDMDL
MODEL 4
REMARK VINA RESULT:      -8.3      1.890      5.634
REMARK  8 active torsions:
REMARK  status: ('A' for Active; 'I' for Inactive)
REMARK    1  A    between atoms: C_2  and  O_3 
REMARK    2  A    between atoms: O_3  and  C_4 
REMARK    3  A    between atoms: C_5  and  N_6 
REMARK       I    between atoms: N_9  and  C_10 
REMARK    4  A    between atoms: C_10  and  C_11 
REMARK    5  A    between atoms: C_14  and  C_15 
REMARK       I    between atoms: C_15  and  N_16 
REMARK    6  A    between atoms: N_16  and  C_17 
REMARK    7  A    between atoms: C_17  and  C_18 
REMARK    8  A    between atoms: N_23  and  C_24 
ROOT
HETATM    1  C   UNL     1      41.540 -12.668   5.181  1.00  0.00     0.098 A 
HETATM    2  C   UNL     1      42.320 -11.710   6.019  1.00  0.00     0.206 A 
HETATM    3  O   UNL     1      42.058 -10.508   6.041  1.00  0.00    -0.286 OA
HETATM    4  C   UNL     1      43.462 -12.252   6.812  1.00  0.00     0.098 A 
HETATM    5  C   UNL     1      43.781 -13.544   6.620  1.00  0.00     0.112 A 
HETATM    6  N   UNL     1      43.100 -14.432   5.789  1.00  0.00    -0.360 N 
HETATM    7  C   UNL     1      41.957 -13.944   5.164  1.00  0.00     0.112 A 
ENDROOT
BRANCH   1   8
HETATM    8  C   UNL     1      40.286 -12.241   4.506  1.00  0.00     0.259 C 
HETATM    9  N   UNL     1      40.354 -11.411   3.390  1.00  0.00    -0.346 N 
HETATM   10  C   UNL     1      41.462 -11.343   2.435  1.00  0.00     0.141 C 
HETATM   11  C   UNL     1      39.092 -11.014   2.761  1.00  0.00     0.141 C 
HETATM   12  C   UNL     1      41.203 -12.329   1.266  1.00  0.00     0.115 C 
HETATM   13  N   UNL     1      39.899 -12.030   0.604  1.00  0.00    -0.278 NA
HETATM   14  C   UNL     1      38.763 -11.941   1.574  1.00  0.00     0.115 C 
HETATM   15  O   UNL     1      39.211 -12.612   4.978  1.00  0.00    -0.267 OA
BRANCH  13  16
HETATM   16  C   UNL     1      39.663 -12.782  -0.579  1.00  0.00     0.044 A 
HETATM   17  C   UNL     1      39.559 -12.189  -1.861  1.00  0.00     0.090 A 
HETATM   18  C   UNL     1      39.378 -12.949  -3.027  1.00  0.00     0.038 A 
HETATM   19  C   UNL     1      39.227 -14.326  -2.952  1.00  0.00     0.003 A 
HETATM   20  C   UNL     1      39.264 -14.941  -1.709  1.00  0.00     0.002 A 
HETATM   21  C   UNL     1      39.478 -14.181  -0.549  1.00  0.00     0.026 A 
BRANCH  17  22
HETATM   22  O   UNL     1      39.630 -10.833  -2.080  1.00  0.00    -0.350 OA
BRANCH  22  23
HETATM   23  C   UNL     1      40.963 -10.439  -2.427  1.00  0.00     0.171 C 
HETATM   24  C   UNL     1      41.257  -9.143  -1.693  1.00  0.00     0.034 C 
ENDBRANCH  22  23
ENDBRANCH  17  22
ENDBRANCH  13  16
ENDBRANCH   1   8
BRANCH   4  25
HETATM   25  C   UNL     1      44.272 -11.468   7.787  1.00  0.00     0.257 C 
HETATM   26  N   UNL     1      43.558 -10.792   8.742  1.00  0.00    -0.356 N 
HETATM   27  H   UNL     1      42.539 -10.797   8.682  1.00  0.00     0.162 HD
HETATM   28  O   UNL     1      45.500 -11.456   7.739  1.00  0.00    -0.267 OA
BRANCH  26  29
HETATM   29  C   UNL     1      44.192 -10.035   9.800  1.00  0.00     0.126 C 
BRANCH  29  30
HETATM   30  C   UNL     1      43.344  -9.970  11.077  1.00  0.00    -0.005 C 
HETATM   31  C   UNL     1      43.629 -11.157  11.999  1.00  0.00     0.011 C 
HETATM   32  C   UNL     1      43.613  -8.658  11.817  1.00  0.00     0.011 C 
ENDBRANCH  29  30
ENDBRANCH  26  29
ENDBRANCH   4  25
BRANCH   6  33
HETATM   33  C   UNL     1      43.753 -15.709   5.412  1.00  0.00     0.088 C 
HETATM   34  C   UNL     1      43.389 -16.930   6.261  1.00  0.00     0.026 C 
HETATM   35  C   UNL     1      43.638 -18.092   5.309  1.00  0.00     0.002 C 
HETATM   36  C   UNL     1      43.079 -17.586   3.989  1.00  0.00     0.002 C 
HETATM   37  C   UNL     1      43.416 -16.098   3.961  1.00  0.00     0.026 C 
ENDBRANCH   6  33
TORSDOF 8
ENDMDL
MODEL 5
REMARK VINA RESULT:      -8.1     16.956     19.688
REMARK  8 active torsions:
REMARK  status: ('A' for Active; 'I' for Inactive)
REMARK    1  A    between atoms: C_2  and  O_3 
REMARK    2  A    between atoms: O_3  and  C_4 
REMARK    3  A    between atoms: C_5  and  N_6 
REMARK       I    between atoms: N_9  and  C_10 
REMARK    4  A    between atoms: C_10  and  C_11 
REMARK    5  A    between atoms: C_14  and  C_15 
REMARK       I    between atoms: C_15  and  N_16 
REMARK    6  A    between atoms: N_16  and  C_17 
REMARK    7  A    between atoms: C_17  and  C_18 
REMARK    8  A    between atoms: N_23  and  C_24 
ROOT
HETATM    1  C   UNL     1      45.835 -29.348   1.370  1.00  0.00     0.098 A 
HETATM    2  C   UNL     1      44.699 -29.864   2.191  1.00  0.00     0.206 A 
HETATM    3  O   UNL     1      44.876 -30.347   3.308  1.00  0.00    -0.286 OA
HETATM    4  C   UNL     1      43.332 -29.808   1.596  1.00  0.00     0.098 A 
HETATM    5  C   UNL     1      43.238 -29.408   0.315  1.00  0.00     0.112 A 
HETATM    6  N   UNL     1      44.301 -28.986  -0.482  1.00  0.00    -0.360 N 
HETATM    7  C   UNL     1      45.547 -28.917   0.132  1.00  0.00     0.112 A 
ENDROOT
BRANCH   1   8
HETATM    8  C   UNL     1      47.193 -29.205   1.958  1.00  0.00     0.259 C 
HETATM    9  N   UNL     1      47.885 -30.340   2.375  1.00  0.00    -0.346 N 
HETATM   10  C   UNL     1      47.739 -31.688   1.824  1.00  0.00     0.141 C 
HETATM   11  C   UNL     1      49.218 -30.149   2.951  1.00  0.00     0.141 C 
HETATM   12  C   UNL     1      48.765 -31.896   0.680  1.00  0.00     0.115 C 
HETATM   13  N   UNL     1      50.155 -31.660   1.170  1.00  0.00    -0.278 NA
HETATM   14  C   UNL     1      50.306 -30.351   1.877  1.00  0.00     0.115 C 
HETATM   15  O   UNL     1      47.660 -28.073   2.088  1.00  0.00    -0.267 OA
BRANCH  13  16
HETATM   16  C   UNL     1      51.167 -31.991   0.227  1.00  0.00     0.044 A 
HETATM   17  C   UNL     1      51.503 -31.158  -0.867  1.00  0.00     0.090 A 
HETATM   18  C   UNL     1      52.540 -31.472  -1.759  1.00  0.00     0.038 A 
HETATM   19  C   UNL     1      53.237 -32.665  -1.634  1.00  0.00     0.003 A 
HETATM   20  C   UNL     1      52.899 -33.538  -0.609  1.00  0.00     0.002 A 
HETATM   21  C   UNL     1      51.885 -33.205   0.300  1.00  0.00     0.026 A 
BRANCH  17  22
HETATM   22  O   UNL     1      50.858 -29.976  -1.149  1.00  0.00    -0.350 OA
BRANCH  22  23
HETATM   23  C   UNL     1      49.951 -30.137  -2.246  1.00  0.00     0.171 C 
HETATM   24  C   UNL     1      48.656 -29.440  -1.867  1.00  0.00     0.034 C 
ENDBRANCH  22  23
ENDBRANCH  17  22
ENDBRANCH  13  16
ENDBRANCH   1   8
BRANCH   4  25
HETATM   25  C   UNL     1      42.075 -30.169   2.311  1.00  0.00     0.257 C 
HETATM   26  N   UNL     1      42.119 -30.057   3.677  1.00  0.00    -0.356 N 
HETATM   27  H   UNL     1      43.007 -29.820   4.118  1.00  0.00     0.162 HD
HETATM   28  O   UNL     1      41.067 -30.520   1.702  1.00  0.00    -0.267 OA
BRANCH  26  29
HETATM   29  C   UNL     1      40.967 -30.308   4.517  1.00  0.00     0.126 C 
BRANCH  29  30
HETATM   30  C   UNL     1      41.011 -31.685   5.194  1.00  0.00    -0.005 C 
HETATM   31  C   UNL     1      41.691 -31.614   6.562  1.00  0.00     0.011 C 
HETATM   32  C   UNL     1      39.592 -32.239   5.343  1.00  0.00     0.011 C 
ENDBRANCH  29  30
ENDBRANCH  26  29
ENDBRANCH   4  25
BRANCH   6  33
HETATM   33  C   UNL     1      44.110 -28.906  -1.950  1.00  0.00     0.088 C 
HETATM   34  C   UNL     1      45.099 -28.019  -2.711  1.00  0.00     0.026 C 
HETATM   35  C   UNL     1      45.091 -28.621  -4.109  1.00  0.00     0.002 C 
HETATM   36  C   UNL     1      45.087 -30.119  -3.842  1.00  0.00     0.002 C 
HETATM   37  C   UNL     1      44.216 -30.296  -2.601  1.00  0.00     0.026 C 
ENDBRANCH   6  33
TORSDOF 8
ENDMDL
MODEL 6
REMARK VINA RESULT:      -8.0      2.197      7.744
REMARK  8 active torsions:
REMARK  status: ('A' for Active; 'I' for Inactive)
REMARK    1  A    between atoms: C_2  and  O_3 
REMARK    2  A    between atoms: O_3  and  C_4 
REMARK    3  A    between atoms: C_5  and  N_6 
REMARK       I    between atoms: N_9  and  C_10 
REMARK    4  A    between atoms: C_10  and  C_11 
REMARK    5  A    between atoms: C_14  and  C_15 
REMARK       I    between atoms: C_15  and  N_16 
REMARK    6  A    between atoms: N_16  and  C_17 
REMARK    7  A    between atoms: C_17  and  C_18 
REMARK    8  A    between atoms: N_23  and  C_24 
ROOT
HETATM    1  C   UNL     1      42.439 -14.900   4.579  1.00  0.00     0.098 A 
HETATM    2  C   UNL     1      41.326 -14.621   3.623  1.00  0.00     0.206 A 
HETATM    3  O   UNL     1      40.447 -13.799   3.875  1.00  0.00    -0.286 OA
HETATM    4  C   UNL     1      41.292 -15.401   2.352  1.00  0.00     0.098 A 
HETATM    5  C   UNL     1      42.197 -16.387   2.214  1.00  0.00     0.112 A 
HETATM    6  N   UNL     1      43.200 -16.700   3.130  1.00  0.00    -0.360 N 
HETATM    7  C   UNL     1      43.301 -15.873   4.245  1.00  0.00     0.112 A 
ENDROOT
BRANCH   1   8
HETATM    8  C   UNL     1      42.644 -14.044   5.777  1.00  0.00     0.259 C 
HETATM    9  N   UNL     1      43.365 -12.857   5.658  1.00  0.00    -0.346 N 
HETATM   10  C   UNL     1      43.473 -12.034   4.452  1.00  0.00     0.141 C 
HETATM   11  C   UNL     1      43.544 -12.048   6.866  1.00  0.00     0.141 C 
HETATM   12  C   UNL     1      42.354 -10.960   4.454  1.00  0.00     0.115 C 
HETATM   13  N   UNL     1      42.428 -10.123   5.688  1.00  0.00    -0.278 NA
HETATM   14  C   UNL     1      42.473 -10.941   6.940  1.00  0.00     0.115 C 
HETATM   15  O   UNL     1      42.194 -14.427   6.856  1.00  0.00    -0.267 OA
BRANCH  13  16
HETATM   16  C   UNL     1      41.543  -9.011   5.690  1.00  0.00     0.044 A 
HETATM   17  C   UNL     1      41.788  -7.831   6.432  1.00  0.00     0.090 A 
HETATM   18  C   UNL     1      40.932  -6.721   6.384  1.00  0.00     0.038 A 
HETATM   19  C   UNL     1      39.760  -6.770   5.643  1.00  0.00     0.003 A 
HETATM   20  C   UNL     1      39.451  -7.930   4.946  1.00  0.00     0.002 A 
HETATM   21  C   UNL     1      40.327  -9.025   4.972  1.00  0.00     0.026 A 
BRANCH  17  22
HETATM   22  O   UNL     1      42.878  -7.664   7.255  1.00  0.00    -0.350 OA
BRANCH  22  23
HETATM   23  C   UNL     1      42.488  -7.687   8.633  1.00  0.00     0.171 C 
HETATM   24  C   UNL     1      43.251  -6.579   9.338  1.00  0.00     0.034 C 
ENDBRANCH  22  23
ENDBRANCH  17  22
ENDBRANCH  13  16
ENDBRANCH   1   8
BRANCH   4  25
HETATM   25  C   UNL     1      40.328 -15.176   1.238  1.00  0.00     0.257 C 
HETATM   26  N   UNL     1      40.360 -13.927   0.672  1.00  0.00    -0.356 N 
HETATM   27  H   UNL     1      40.965 -13.219   1.088  1.00  0.00     0.162 HD
HETATM   28  O   UNL     1      39.576 -16.066   0.847  1.00  0.00    -0.267 OA
BRANCH  26  29
HETATM   29  C   UNL     1      39.535 -13.563  -0.460  1.00  0.00     0.126 C 
BRANCH  29  30
HETATM   30  C   UNL     1      40.118 -14.033  -1.799  1.00  0.00    -0.005 C 
HETATM   31  C   UNL     1      39.079 -14.793  -2.626  1.00  0.00     0.011 C 
HETATM   32  C   UNL     1      40.641 -12.833  -2.591  1.00  0.00     0.011 C 
ENDBRANCH  29  30
ENDBRANCH  26  29
ENDBRANCH   4  25
BRANCH   6  33
HETATM   33  C   UNL     1      43.896 -18.004   3.017  1.00  0.00     0.088 C 
HETATM   34  C   UNL     1      44.008 -18.823   4.305  1.00  0.00     0.026 C 
HETATM   35  C   UNL     1      44.130 -20.251   3.791  1.00  0.00     0.002 C 
HETATM   36  C   UNL     1      43.117 -20.299   2.657  1.00  0.00     0.002 C 
HETATM   37  C   UNL     1      43.192 -18.922   2.002  1.00  0.00     0.026 C 
ENDBRANCH   6  33
TORSDOF 8
ENDMDL
MODEL 7
REMARK VINA RESULT:      -7.7      2.793      6.850
REMARK  8 active torsions:
REMARK  status: ('A' for Active; 'I' for Inactive)
REMARK    1  A    between atoms: C_2  and  O_3 
REMARK    2  A    between atoms: O_3  and  C_4 
REMARK    3  A    between atoms: C_5  and  N_6 
REMARK       I    between atoms: N_9  and  C_10 
REMARK    4  A    between atoms: C_10  and  C_11 
REMARK    5  A    between atoms: C_14  and  C_15 
REMARK       I    between atoms: C_15  and  N_16 
REMARK    6  A    between atoms: N_16  and  C_17 
REMARK    7  A    between atoms: C_17  and  C_18 
REMARK    8  A    between atoms: N_23  and  C_24 
ROOT
HETATM    1  C   UNL     1      41.206 -11.200   5.589  1.00  0.00     0.098 A 
HETATM    2  C   UNL     1      40.809  -9.777   5.370  1.00  0.00     0.206 A 
HETATM    3  O   UNL     1      39.960  -9.463   4.537  1.00  0.00    -0.286 OA
HETATM    4  C   UNL     1      41.503  -8.731   6.176  1.00  0.00     0.098 A 
HETATM    5  C   UNL     1      42.523  -9.135   6.954  1.00  0.00     0.112 A 
HETATM    6  N   UNL     1      42.946 -10.454   7.116  1.00  0.00    -0.360 N 
HETATM    7  C   UNL     1      42.199 -11.429   6.462  1.00  0.00     0.112 A 
ENDROOT
BRANCH   1   8
HETATM    8  C   UNL     1      40.440 -12.308   4.959  1.00  0.00     0.259 C 
HETATM    9  N   UNL     1      40.855 -12.819   3.732  1.00  0.00    -0.346 N 
HETATM   10  C   UNL     1      42.229 -12.836   3.227  1.00  0.00     0.141 C 
HETATM   11  C   UNL     1      40.068 -13.908   3.149  1.00  0.00     0.141 C 
HETATM   12  C   UNL     1      42.917 -14.165   3.632  1.00  0.00     0.115 C 
HETATM   13  N   UNL     1      42.141 -15.336   3.125  1.00  0.00    -0.278 NA
HETATM   14  C   UNL     1      40.693 -15.275   3.495  1.00  0.00     0.115 C 
HETATM   15  O   UNL     1      39.434 -12.725   5.532  1.00  0.00    -0.267 OA
BRANCH  13  16
HETATM   16  C   UNL     1      42.790 -16.586   3.310  1.00  0.00     0.044 A 
HETATM   17  C   UNL     1      43.397 -16.967   4.532  1.00  0.00     0.090 A 
HETATM   18  C   UNL     1      43.988 -18.226   4.717  1.00  0.00     0.038 A 
HETATM   19  C   UNL     1      44.057 -19.130   3.668  1.00  0.00     0.003 A 
HETATM   20  C   UNL     1      43.526 -18.775   2.436  1.00  0.00     0.002 A 
HETATM   21  C   UNL     1      42.907 -17.528   2.265  1.00  0.00     0.026 A 
BRANCH  17  22
HETATM   22  O   UNL     1      43.456 -16.150   5.638  1.00  0.00    -0.350 OA
BRANCH  22  23
HETATM   23  C   UNL     1      42.691 -16.695   6.719  1.00  0.00     0.171 C 
HETATM   24  C   UNL     1      41.534 -15.745   6.978  1.00  0.00     0.034 C 
ENDBRANCH  22  23
ENDBRANCH  17  22
ENDBRANCH  13  16
ENDBRANCH   1   8
BRANCH   4  25
HETATM   25  C   UNL     1      41.157  -7.282   6.173  1.00  0.00     0.257 C 
HETATM   26  N   UNL     1      39.839  -6.988   6.412  1.00  0.00    -0.356 N 
HETATM   27  H   UNL     1      39.175  -7.759   6.493  1.00  0.00     0.162 HD
HETATM   28  O   UNL     1      42.011  -6.417   5.990  1.00  0.00    -0.267 OA
BRANCH  26  29
HETATM   29  C   UNL     1      39.347  -5.630   6.506  1.00  0.00     0.126 C 
BRANCH  29  30
HETATM   30  C   UNL     1      37.886  -5.493   6.059  1.00  0.00    -0.005 C 
HETATM   31  C   UNL     1      37.721  -4.386   5.016  1.00  0.00     0.011 C 
HETATM   32  C   UNL     1      37.386  -6.823   5.493  1.00  0.00     0.011 C 
ENDBRANCH  29  30
ENDBRANCH  26  29
ENDBRANCH   4  25
BRANCH   6  33
HETATM   33  C   UNL     1      44.275 -10.714   7.721  1.00  0.00     0.088 C 
HETATM   34  C   UNL     1      45.391 -11.111   6.751  1.00  0.00     0.026 C 
HETATM   35  C   UNL     1      46.651 -10.675   7.486  1.00  0.00     0.002 C 
HETATM   36  C   UNL     1      46.263  -9.325   8.070  1.00  0.00     0.002 C 
HETATM   37  C   UNL     1      44.797  -9.473   8.467  1.00  0.00     0.026 C 
ENDBRANCH   6  33
TORSDOF 8
ENDMDL
MODEL 8
REMARK VINA RESULT:      -7.6      2.362      8.583
REMARK  8 active torsions:
REMARK  status: ('A' for Active; 'I' for Inactive)
REMARK    1  A    between atoms: C_2  and  O_3 
REMARK    2  A    between atoms: O_3  and  C_4 
REMARK    3  A    between atoms: C_5  and  N_6 
REMARK       I    between atoms: N_9  and  C_10 
REMARK    4  A    between atoms: C_10  and  C_11 
REMARK    5  A    between atoms: C_14  and  C_15 
REMARK       I    between atoms: C_15  and  N_16 
REMARK    6  A    between atoms: N_16  and  C_17 
REMARK    7  A    between atoms: C_17  and  C_18 
REMARK    8  A    between atoms: N_23  and  C_24 
ROOT
HETATM    1  C   UNL     1      41.183 -11.739   2.655  1.00  0.00     0.098 A 
HETATM    2  C   UNL     1      40.242 -11.990   1.523  1.00  0.00     0.206 A 
HETATM    3  O   UNL     1      39.247 -11.290   1.342  1.00  0.00    -0.286 OA
HETATM    4  C   UNL     1      40.528 -13.148   0.628  1.00  0.00     0.098 A 
HETATM    5  C   UNL     1      41.545 -13.956   0.978  1.00  0.00     0.112 A 
HETATM    6  N   UNL     1      42.390 -13.768   2.071  1.00  0.00    -0.360 N 
HETATM    7  C   UNL     1      42.193 -12.608   2.814  1.00  0.00     0.112 A 
ENDROOT
BRANCH   1   8
HETATM    8  C   UNL     1      41.070 -10.506   3.479  1.00  0.00     0.259 C 
HETATM    9  N   UNL     1      40.667 -10.603   4.809  1.00  0.00    -0.346 N 
HETATM   10  C   UNL     1      40.878 -11.753   5.690  1.00  0.00     0.141 C 
HETATM   11  C   UNL     1      40.567  -9.361   5.580  1.00  0.00     0.141 C 
HETATM   12  C   UNL     1      42.214 -11.582   6.458  1.00  0.00     0.115 C 
HETATM   13  N   UNL     1      42.219 -10.303   7.229  1.00  0.00    -0.278 NA
HETATM   14  C   UNL     1      41.857  -9.119   6.389  1.00  0.00     0.115 C 
HETATM   15  O   UNL     1      41.307  -9.421   2.947  1.00  0.00    -0.267 OA
BRANCH  13  16
HETATM   16  C   UNL     1      43.338 -10.149   8.091  1.00  0.00     0.044 A 
HETATM   17  C   UNL     1      43.226  -9.697   9.428  1.00  0.00     0.090 A 
HETATM   18  C   UNL     1      44.334  -9.600  10.284  1.00  0.00     0.038 A 
HETATM   19  C   UNL     1      45.608  -9.885   9.817  1.00  0.00     0.003 A 
HETATM   20  C   UNL     1      45.771 -10.275   8.496  1.00  0.00     0.002 A 
HETATM   21  C   UNL     1      44.657 -10.403   7.653  1.00  0.00     0.026 A 
BRANCH  17  22
HETATM   22  O   UNL     1      42.035  -9.323  10.006  1.00  0.00    -0.350 OA
BRANCH  22  23
HETATM   23  C   UNL     1      42.134  -8.017  10.585  1.00  0.00     0.171 C 
HETATM   24  C   UNL     1      41.698  -7.019   9.525  1.00  0.00     0.034 C 
ENDBRANCH  22  23
ENDBRANCH  17  22
ENDBRANCH  13  16
ENDBRANCH   1   8
BRANCH   4  25
HETATM   25  C   UNL     1      39.767 -13.478  -0.610  1.00  0.00     0.257 C 
HETATM   26  N   UNL     1      38.532 -12.892  -0.719  1.00  0.00    -0.356 N 
HETATM   27  H   UNL     1      38.181 -12.346   0.067  1.00  0.00     0.162 HD
HETATM   28  O   UNL     1      40.237 -14.210  -1.478  1.00  0.00    -0.267 OA
BRANCH  26  29
HETATM   29  C   UNL     1      37.691 -13.056  -1.886  1.00  0.00     0.126 C 
BRANCH  29  30
HETATM   30  C   UNL     1      37.081 -11.735  -2.373  1.00  0.00    -0.005 C 
HETATM   31  C   UNL     1      38.140 -10.827  -3.000  1.00  0.00     0.011 C 
HETATM   32  C   UNL     1      35.967 -12.016  -3.384  1.00  0.00     0.011 C 
ENDBRANCH  29  30
ENDBRANCH  26  29
ENDBRANCH   4  25
BRANCH   6  33
HETATM   33  C   UNL     1      43.233 -14.897   2.530  1.00  0.00     0.088 C 
HETATM   34  C   UNL     1      42.821 -15.553   3.851  1.00  0.00     0.026 C 
HETATM   35  C   UNL     1      43.382 -16.962   3.721  1.00  0.00     0.002 C 
HETATM   36  C   UNL     1      43.068 -17.329   2.279  1.00  0.00     0.002 C 
HETATM   37  C   UNL     1      43.252 -16.034   1.493  1.00  0.00     0.026 C 
ENDBRANCH   6  33
TORSDOF 8
ENDMDL
MODEL 9
REMARK VINA RESULT:      -7.5      2.996      6.732
REMARK  8 active torsions:
REMARK  status: ('A' for Active; 'I' for Inactive)
REMARK    1  A    between atoms: C_2  and  O_3 
REMARK    2  A    between atoms: O_3  and  C_4 
REMARK    3  A    between atoms: C_5  and  N_6 
REMARK       I    between atoms: N_9  and  C_10 
REMARK    4  A    between atoms: C_10  and  C_11 
REMARK    5  A    between atoms: C_14  and  C_15 
REMARK       I    between atoms: C_15  and  N_16 
REMARK    6  A    between atoms: N_16  and  C_17 
REMARK    7  A    between atoms: C_17  and  C_18 
REMARK    8  A    between atoms: N_23  and  C_24 
ROOT
HETATM    1  C   UNL     1      40.713 -10.352   7.016  1.00  0.00     0.098 A 
HETATM    2  C   UNL     1      40.078  -9.504   8.068  1.00  0.00     0.206 A 
HETATM    3  O   UNL     1      38.859  -9.349   8.125  1.00  0.00    -0.286 OA
HETATM    4  C   UNL     1      40.976  -8.816   9.040  1.00  0.00     0.098 A 
HETATM    5  C   UNL     1      42.300  -8.911   8.823  1.00  0.00     0.112 A 
HETATM    6  N   UNL     1      42.903  -9.647   7.804  1.00  0.00    -0.360 N 
HETATM    7  C   UNL     1      42.054 -10.391   6.991  1.00  0.00     0.112 A 
ENDROOT
BRANCH   1   8
HETATM    8  C   UNL     1      39.884 -11.209   6.127  1.00  0.00     0.259 C 
HETATM    9  N   UNL     1      40.182 -11.280   4.768  1.00  0.00    -0.346 N 
HETATM   10  C   UNL     1      41.504 -11.101   4.167  1.00  0.00     0.141 C 
HETATM   11  C   UNL     1      39.336 -12.135   3.932  1.00  0.00     0.141 C 
HETATM   12  C   UNL     1      42.214 -12.475   4.051  1.00  0.00     0.115 C 
HETATM   13  N   UNL     1      41.386 -13.431   3.258  1.00  0.00    -0.278 NA
HETATM   14  C   UNL     1      39.977 -13.526   3.754  1.00  0.00     0.115 C 
HETATM   15  O   UNL     1      38.929 -11.812   6.617  1.00  0.00    -0.267 OA
BRANCH  13  16
HETATM   16  C   UNL     1      42.038 -14.659   2.965  1.00  0.00     0.044 A 
HETATM   17  C   UNL     1      42.296 -15.648   3.945  1.00  0.00     0.090 A 
HETATM   18  C   UNL     1      42.894 -16.879   3.631  1.00  0.00     0.038 A 
HETATM   19  C   UNL     1      43.319 -17.143   2.337  1.00  0.00     0.003 A 
HETATM   20  C   UNL     1      43.138 -16.177   1.358  1.00  0.00     0.002 A 
HETATM   21  C   UNL     1      42.510 -14.962   1.669  1.00  0.00     0.026 A 
BRANCH  17  22
HETATM   22  O   UNL     1      41.984 -15.499   5.276  1.00  0.00    -0.350 OA
BRANCH  22  23
HETATM   23  C   UNL     1      43.159 -15.583   6.091  1.00  0.00     0.171 C 
HETATM   24  C   UNL     1      43.146 -14.388   7.029  1.00  0.00     0.034 C 
ENDBRANCH  22  23
ENDBRANCH  17  22
ENDBRANCH  13  16
ENDBRANCH   1   8
BRANCH   4  25
HETATM   25  C   UNL     1      40.515  -8.029  10.219  1.00  0.00     0.257 C 
HETATM   26  N   UNL     1      40.945  -8.484  11.438  1.00  0.00    -0.356 N 
HETATM   27  H   UNL     1      41.472  -9.357  11.474  1.00  0.00     0.162 HD
HETATM   28  O   UNL     1      39.815  -7.027  10.090  1.00  0.00    -0.267 OA
BRANCH  26  29
HETATM   29  C   UNL     1      40.641  -7.801  12.678  1.00  0.00     0.126 C 
BRANCH  29  30
HETATM   30  C   UNL     1      41.856  -7.686  13.609  1.00  0.00    -0.005 C 
HETATM   31  C   UNL     1      41.744  -8.645  14.795  1.00  0.00     0.011 C 
HETATM   32  C   UNL     1      43.141  -7.968  12.828  1.00  0.00     0.011 C 
ENDBRANCH  29  30
ENDBRANCH  26  29
ENDBRANCH   4  25
BRANCH   6  33
HETATM   33  C   UNL     1      44.326  -9.390   7.477  1.00  0.00     0.088 C 
HETATM   34  C   UNL     1      45.182  -8.804   8.604  1.00  0.00     0.026 C 
HETATM   35  C   UNL     1      46.587  -9.257   8.234  1.00  0.00     0.002 C 
HETATM   36  C   UNL     1      46.381 -10.692   7.774  1.00  0.00     0.002 C 
HETATM   37  C   UNL     1      45.039 -10.684   7.046  1.00  0.00     0.026 C 
ENDBRANCH   6  33
TORSDOF 8
ENDMDL
MODEL 10
REMARK VINA RESULT:      -7.5      1.982      7.035
REMARK  8 active torsions:
REMARK  status: ('A' for Active; 'I' for Inactive)
REMARK    1  A    between atoms: C_2  and  O_3 
REMARK    2  A    between atoms: O_3  and  C_4 
REMARK    3  A    between atoms: C_5  and  N_6 
REMARK       I    between atoms: N_9  and  C_10 
REMARK    4  A    between atoms: C_10  and  C_11 
REMARK    5  A    between atoms: C_14  and  C_15 
REMARK       I    between atoms: C_15  and  N_16 
REMARK    6  A    between atoms: N_16  and  C_17 
REMARK    7  A    between atoms: C_17  and  C_18 
REMARK    8  A    between atoms: N_23  and  C_24 
ROOT
HETATM    1  C   UNL     1      42.319 -14.947   4.476  1.00  0.00     0.098 A 
HETATM    2  C   UNL     1      41.232 -14.791   3.463  1.00  0.00     0.206 A 
HETATM    3  O   UNL     1      40.314 -13.987   3.619  1.00  0.00    -0.286 OA
HETATM    4  C   UNL     1      41.273 -15.672   2.261  1.00  0.00     0.098 A 
HETATM    5  C   UNL     1      42.220 -16.628   2.234  1.00  0.00     0.112 A 
HETATM    6  N   UNL     1      43.199 -16.825   3.206  1.00  0.00    -0.360 N 
HETATM    7  C   UNL     1      43.228 -15.908   4.251  1.00  0.00     0.112 A 
ENDROOT
BRANCH   1   8
HETATM    8  C   UNL     1      42.448 -13.989   5.606  1.00  0.00     0.259 C 
HETATM    9  N   UNL     1      43.181 -12.817   5.432  1.00  0.00    -0.346 N 
HETATM   10  C   UNL     1      43.374 -12.102   4.170  1.00  0.00     0.141 C 
HETATM   11  C   UNL     1      43.283 -11.905   6.574  1.00  0.00     0.141 C 
HETATM   12  C   UNL     1      42.264 -11.032   4.002  1.00  0.00     0.115 C 
HETATM   13  N   UNL     1      42.259 -10.091   5.161  1.00  0.00    -0.278 NA
HETATM   14  C   UNL     1      42.216 -10.796   6.480  1.00  0.00     0.115 C 
HETATM   15  O   UNL     1      41.924 -14.277   6.681  1.00  0.00    -0.267 OA
BRANCH  13  16
HETATM   16  C   UNL     1      41.382  -8.984   5.006  1.00  0.00     0.044 A 
HETATM   17  C   UNL     1      40.292  -8.984   4.102  1.00  0.00     0.090 A 
HETATM   18  C   UNL     1      39.402  -7.904   3.998  1.00  0.00     0.038 A 
HETATM   19  C   UNL     1      39.606  -6.752   4.743  1.00  0.00     0.003 A 
HETATM   20  C   UNL     1      40.697  -6.687   5.599  1.00  0.00     0.002 A 
HETATM   21  C   UNL     1      41.564  -7.782   5.725  1.00  0.00     0.026 A 
BRANCH  17  22
HETATM   22  O   UNL     1      40.004 -10.032   3.259  1.00  0.00    -0.350 OA
BRANCH  22  23
HETATM   23  C   UNL     1      38.592 -10.267   3.197  1.00  0.00     0.171 C 
HETATM   24  C   UNL     1      38.359 -11.345   2.152  1.00  0.00     0.034 C 
ENDBRANCH  22  23
ENDBRANCH  17  22
ENDBRANCH  13  16
ENDBRANCH   1   8
BRANCH   4  25
HETATM   25  C   UNL     1      40.343 -15.577   1.100  1.00  0.00     0.257 C 
HETATM   26  N   UNL     1      40.467 -14.446   0.334  1.00  0.00    -0.356 N 
HETATM   27  H   UNL     1      41.113 -13.719   0.641  1.00  0.00     0.162 HD
HETATM   28  O   UNL     1      39.538 -16.470   0.846  1.00  0.00    -0.267 OA
BRANCH  26  29
HETATM   29  C   UNL     1      39.685 -14.226  -0.864  1.00  0.00     0.126 C 
BRANCH  29  30
HETATM   30  C   UNL     1      39.976 -12.873  -1.526  1.00  0.00    -0.005 C 
HETATM   31  C   UNL     1      40.859 -11.994  -0.638  1.00  0.00     0.011 C 
HETATM   32  C   UNL     1      40.650 -13.090  -2.882  1.00  0.00     0.011 C 
ENDBRANCH  29  30
ENDBRANCH  26  29
ENDBRANCH   4  25
BRANCH   6  33
HETATM   33  C   UNL     1      43.948 -18.104   3.223  1.00  0.00     0.088 C 
HETATM   34  C   UNL     1      43.932 -18.878   4.544  1.00  0.00     0.026 C 
HETATM   35  C   UNL     1      44.163 -20.316   4.099  1.00  0.00     0.002 C 
HETATM   36  C   UNL     1      43.297 -20.438   2.855  1.00  0.00     0.002 C 
HETATM   37  C   UNL     1      43.403 -19.081   2.165  1.00  0.00     0.026 C 
ENDBRANCH   6  33
TORSDOF 8
ENDMDL
