MODEL 1
REMARK VINA RESULT:      -8.3      0.000      0.000
REMARK  4 active torsions:
REMARK  status: ('A' for Active; 'I' for Inactive)
REMARK    1  A    between atoms: C_4  and  C_5 
REMARK    2  A    between atoms: C_8  and  N_9 
REMARK       I    between atoms: N_9  and  C_10 
REMARK       I    between atoms: C_10  and  N_11 
REMARK    3  A    between atoms: N_11  and  C_12 
REMARK    4  A    between atoms: C_12  and  C_13 
ROOT
HETATM    1  C   UNL     1      43.307 -16.650   3.201  1.00  0.00     0.089 A 
HETATM    2  N   UNL     1      43.487 -16.105   1.976  1.00  0.00    -0.148 NA
HETATM    3  N   UNL     1      43.316 -14.749   1.774  1.00  0.00    -0.131 NA
HETATM    4  C   UNL     1      42.980 -13.943   2.798  1.00  0.00     0.153 A 
HETATM    5  C   UNL     1      42.800 -14.465   4.069  1.00  0.00     0.055 A 
HETATM    6  C   UNL     1      42.967 -15.835   4.273  1.00  0.00     0.038 A 
ENDROOT
BRANCH   4   7
HETATM    7  N   UNL     1      42.783 -12.574   2.620  1.00  0.00    -0.292 N 
HETATM    8  C   UNL     1      41.873 -11.919   1.857  1.00  0.00     0.322 C 
HETATM    9  N   UNL     1      41.035 -12.656   1.086  1.00  0.00    -0.337 N 
HETATM   10  O   UNL     1      41.856 -10.689   1.882  1.00  0.00    -0.247 OA
HETATM   11  H   UNL     1      40.946 -13.639   1.320  1.00  0.00     0.164 HD
HETATM   12  H   UNL     1      43.377 -11.937   3.132  1.00  0.00     0.172 HD
BRANCH   9  13
HETATM   13  C   UNL     1      39.953 -12.024   0.370  1.00  0.00     0.189 C 
BRANCH  13  14
HETATM   14  C   UNL     1      39.411 -12.945  -0.657  1.00  0.00     0.070 A 
HETATM   15  O   UNL     1      38.308 -12.511  -1.337  1.00  0.00    -0.325 OA
HETATM   16  C   UNL     1      37.990 -13.472  -2.240  1.00  0.00     0.142 A 
HETATM   17  C   UNL     1      38.873 -14.523  -2.155  1.00  0.00     0.027 A 
HETATM   18  C   UNL     1      39.793 -14.183  -1.135  1.00  0.00     0.036 A 
ENDBRANCH  13  14
ENDBRANCH   9  13
ENDBRANCH   4   7
BRANCH   1  19
HETATM   19  C   UNL     1      43.501 -18.105   3.317  1.00  0.00    -0.006 A 
HETATM   20  C   UNL     1      43.195 -18.962   2.243  1.00  0.00     0.014 A 
HETATM   21  C   UNL     1      43.388 -20.344   2.335  1.00  0.00     0.001 A 
HETATM   22  C   UNL     1      43.886 -20.901   3.509  1.00  0.00     0.000 A 
HETATM   23  C   UNL     1      44.186 -20.079   4.590  1.00  0.00     0.001 A 
HETATM   24  C   UNL     1      43.996 -18.697   4.495  1.00  0.00     0.014 A 
ENDBRANCH   1  19
TORSDOF 4
ENDMDL
MODEL 2
REMARK VINA RESULT:      -8.3      3.172      5.858
REMARK  4 active torsions:
REMARK  status: ('A' for Active; 'I' for Inactive)
REMARK    1  A    between atoms: C_4  and  C_5 
REMARK    2  A    between atoms: C_8  and  N_9 
REMARK       I    between atoms: N_9  and  C_10 
REMARK       I    between atoms: C_10  and  N_11 
REMARK    3  A    between atoms: N_11  and  C_12 
REMARK    4  A    between atoms: C_12  and  C_13 
ROOT
HETATM    1  C   UNL     1      43.317 -16.656   3.090  1.00  0.00     0.089 A 
HETATM    2  N   UNL     1      43.031 -15.970   4.221  1.00  0.00    -0.148 NA
HETATM    3  N   UNL     1      42.844 -14.601   4.187  1.00  0.00    -0.131 NA
HETATM    4  C   UNL     1      42.930 -13.929   3.025  1.00  0.00     0.153 A 
HETATM    5  C   UNL     1      43.208 -14.601   1.847  1.00  0.00     0.055 A 
HETATM    6  C   UNL     1      43.403 -15.983   1.879  1.00  0.00     0.038 A 
ENDROOT
BRANCH   4   7
HETATM    7  N   UNL     1      42.763 -12.545   2.964  1.00  0.00    -0.292 N 
HETATM    8  C   UNL     1      42.627 -11.641   3.967  1.00  0.00     0.322 C 
HETATM    9  N   UNL     1      42.586 -12.102   5.242  1.00  0.00    -0.337 N 
HETATM   10  O   UNL     1      42.529 -10.449   3.679  1.00  0.00    -0.247 OA
HETATM   11  H   UNL     1      42.928 -13.044   5.398  1.00  0.00     0.164 HD
HETATM   12  H   UNL     1      42.752 -12.107   2.054  1.00  0.00     0.172 HD
BRANCH   9  13
HETATM   13  C   UNL     1      42.594 -11.180   6.353  1.00  0.00     0.189 C 
BRANCH  13  14
HETATM   14  C   UNL     1      43.973 -11.008   6.867  1.00  0.00     0.070 A 
HETATM   15  O   UNL     1      44.088 -10.540   8.145  1.00  0.00    -0.325 OA
HETATM   16  C   UNL     1      45.414 -10.482   8.432  1.00  0.00     0.142 A 
HETATM   17  C   UNL     1      46.158 -10.909   7.358  1.00  0.00     0.027 A 
HETATM   18  C   UNL     1      45.229 -11.252   6.346  1.00  0.00     0.036 A 
ENDBRANCH  13  14
ENDBRANCH   9  13
ENDBRANCH   4   7
BRANCH   1  19
HETATM   19  C   UNL     1      43.511 -18.110   3.226  1.00  0.00    -0.006 A 
HETATM   20  C   UNL     1      43.998 -18.665   4.425  1.00  0.00     0.014 A 
HETATM   21  C   UNL     1      44.172 -20.044   4.571  1.00  0.00     0.001 A 
HETATM   22  C   UNL     1      43.869 -20.901   3.517  1.00  0.00     0.000 A 
HETATM   23  C   UNL     1      43.397 -20.379   2.318  1.00  0.00     0.001 A 
HETATM   24  C   UNL     1      43.220 -19.000   2.174  1.00  0.00     0.014 A 
ENDBRANCH   1  19
TORSDOF 4
ENDMDL
MODEL 3
REMARK VINA RESULT:      -7.8      2.114      2.494
REMARK  4 active torsions:
REMARK  status: ('A' for Active; 'I' for Inactive)
REMARK    1  A    between atoms: C_4  and  C_5 
REMARK    2  A    between atoms: C_8  and  N_9 
REMARK       I    between atoms: N_9  and  C_10 
REMARK       I    between atoms: C_10  and  N_11 
REMARK    3  A    between atoms: N_11  and  C_12 
REMARK    4  A    between atoms: C_12  and  C_13 
ROOT
HETATM    1  C   UNL     1      41.574 -15.908   3.379  1.00  0.00     0.089 A 
HETATM    2  N   UNL     1      40.630 -16.050   2.421  1.00  0.00    -0.148 NA
HETATM    3  N   UNL     1      39.678 -15.069   2.217  1.00  0.00    -0.131 NA
HETATM    4  C   UNL     1      39.683 -13.948   2.961  1.00  0.00     0.153 A 
HETATM    5  C   UNL     1      40.643 -13.764   3.942  1.00  0.00     0.055 A 
HETATM    6  C   UNL     1      41.601 -14.756   4.154  1.00  0.00     0.038 A 
ENDROOT
BRANCH   4   7
HETATM    7  N   UNL     1      38.725 -12.949   2.790  1.00  0.00    -0.292 N 
HETATM    8  C   UNL     1      38.356 -12.283   1.667  1.00  0.00     0.322 C 
HETATM    9  N   UNL     1      39.025 -12.548   0.517  1.00  0.00    -0.337 N 
HETATM   10  O   UNL     1      37.448 -11.456   1.741  1.00  0.00    -0.247 OA
HETATM   11  H   UNL     1      39.564 -13.407   0.490  1.00  0.00     0.164 HD
HETATM   12  H   UNL     1      38.189 -12.660   3.596  1.00  0.00     0.172 HD
BRANCH   9  13
HETATM   13  C   UNL     1      38.580 -11.982  -0.735  1.00  0.00     0.189 C 
BRANCH  13  14
HETATM   14  C   UNL     1      38.426 -13.049  -1.753  1.00  0.00     0.070 A 
HETATM   15  O   UNL     1      39.279 -14.110  -1.649  1.00  0.00    -0.325 OA
HETATM   16  C   UNL     1      38.960 -14.978  -2.643  1.00  0.00     0.142 A 
HETATM   17  C   UNL     1      37.911 -14.493  -3.387  1.00  0.00     0.027 A 
HETATM   18  C   UNL     1      37.563 -13.247  -2.813  1.00  0.00     0.036 A 
ENDBRANCH  13  14
ENDBRANCH   9  13
ENDBRANCH   4   7
BRANCH   1  19
HETATM   19  C   UNL     1      42.540 -17.010   3.530  1.00  0.00    -0.006 A 
HETATM   20  C   UNL     1      42.751 -17.932   2.487  1.00  0.00     0.014 A 
HETATM   21  C   UNL     1      43.675 -18.974   2.612  1.00  0.00     0.001 A 
HETATM   22  C   UNL     1      44.404 -19.121   3.788  1.00  0.00     0.000 A 
HETATM   23  C   UNL     1      44.208 -18.232   4.839  1.00  0.00     0.001 A 
HETATM   24  C   UNL     1      43.286 -17.188   4.711  1.00  0.00     0.014 A 
ENDBRANCH   1  19
TORSDOF 4
ENDMDL
MODEL 4
REMARK VINA RESULT:      -7.7      8.231     11.195
REMARK  4 active torsions:
REMARK  status: ('A' for Active; 'I' for Inactive)
REMARK    1  A    between atoms: C_4  and  C_5 
REMARK    2  A    between atoms: C_8  and  N_9 
REMARK       I    between atoms: N_9  and  C_10 
REMARK       I    between atoms: C_10  and  N_11 
REMARK    3  A    between atoms: N_11  and  C_12 
REMARK    4  A    between atoms: C_12  and  C_13 
ROOT
HETATM    1  C   UNL     1      43.520  -9.154  11.586  1.00  0.00     0.089 A 
HETATM    2  N   UNL     1      43.886 -10.455  11.525  1.00  0.00    -0.148 NA
HETATM    3  N   UNL     1      44.500 -10.964  10.396  1.00  0.00    -0.131 NA
HETATM    4  C   UNL     1      44.758 -10.169   9.342  1.00  0.00     0.153 A 
HETATM    5  C   UNL     1      44.409  -8.828   9.375  1.00  0.00     0.055 A 
HETATM    6  C   UNL     1      43.783  -8.314  10.511  1.00  0.00     0.038 A 
ENDROOT
BRANCH   4   7
HETATM    7  N   UNL     1      45.361 -10.658   8.184  1.00  0.00    -0.292 N 
HETATM    8  C   UNL     1      44.890 -11.541   7.266  1.00  0.00     0.322 C 
HETATM    9  N   UNL     1      43.677 -12.107   7.486  1.00  0.00    -0.337 N 
HETATM   10  O   UNL     1      45.588 -11.804   6.287  1.00  0.00    -0.247 OA
HETATM   11  H   UNL     1      43.075 -11.649   8.162  1.00  0.00     0.164 HD
HETATM   12  H   UNL     1      46.281 -10.318   7.945  1.00  0.00     0.172 HD
BRANCH   9  13
HETATM   13  C   UNL     1      43.063 -12.935   6.476  1.00  0.00     0.189 C 
BRANCH  13  14
HETATM   14  C   UNL     1      43.313 -14.367   6.766  1.00  0.00     0.070 A 
HETATM   15  O   UNL     1      43.151 -14.758   8.064  1.00  0.00    -0.325 OA
HETATM   16  C   UNL     1      43.395 -16.092   8.114  1.00  0.00     0.142 A 
HETATM   17  C   UNL     1      43.711 -16.570   6.865  1.00  0.00     0.027 A 
HETATM   18  C   UNL     1      43.657 -15.458   5.991  1.00  0.00     0.036 A 
ENDBRANCH  13  14
ENDBRANCH   9  13
ENDBRANCH   4   7
BRANCH   1  19
HETATM   19  C   UNL     1      42.862  -8.705  12.825  1.00  0.00    -0.006 A 
HETATM   20  C   UNL     1      43.318  -7.564  13.512  1.00  0.00     0.014 A 
HETATM   21  C   UNL     1      42.693  -7.119  14.681  1.00  0.00     0.001 A 
HETATM   22  C   UNL     1      41.600  -7.812  15.193  1.00  0.00     0.000 A 
HETATM   23  C   UNL     1      41.135  -8.949  14.541  1.00  0.00     0.001 A 
HETATM   24  C   UNL     1      41.759  -9.391  13.370  1.00  0.00     0.014 A 
ENDBRANCH   1  19
TORSDOF 4
ENDMDL
MODEL 5
REMARK VINA RESULT:      -7.7      4.747      7.422
REMARK  4 active torsions:
REMARK  status: ('A' for Active; 'I' for Inactive)
REMARK    1  A    between atoms: C_4  and  C_5 
REMARK    2  A    between atoms: C_8  and  N_9 
REMARK       I    between atoms: N_9  and  C_10 
REMARK       I    between atoms: C_10  and  N_11 
REMARK    3  A    between atoms: N_11  and  C_12 
REMARK    4  A    between atoms: C_12  and  C_13 
ROOT
HETATM    1  C   UNL     1      43.004 -15.380   4.416  1.00  0.00     0.089 A 
HETATM    2  N   UNL     1      42.793 -15.219   5.742  1.00  0.00    -0.148 NA
HETATM    3  N   UNL     1      42.517 -13.970   6.266  1.00  0.00    -0.131 NA
HETATM    4  C   UNL     1      42.440 -12.894   5.462  1.00  0.00     0.153 A 
HETATM    5  C   UNL     1      42.637 -13.025   4.097  1.00  0.00     0.055 A 
HETATM    6  C   UNL     1      42.922 -14.284   3.567  1.00  0.00     0.038 A 
ENDROOT
BRANCH   4   7
HETATM    7  N   UNL     1      42.181 -11.619   5.964  1.00  0.00    -0.292 N 
HETATM    8  C   UNL     1      42.943 -10.828   6.761  1.00  0.00     0.322 C 
HETATM    9  N   UNL     1      44.123 -11.322   7.213  1.00  0.00    -0.337 N 
HETATM   10  O   UNL     1      42.526  -9.708   7.054  1.00  0.00    -0.247 OA
HETATM   11  H   UNL     1      44.498 -12.127   6.723  1.00  0.00     0.164 HD
HETATM   12  H   UNL     1      41.311 -11.174   5.707  1.00  0.00     0.172 HD
BRANCH   9  13
HETATM   13  C   UNL     1      45.040 -10.475   7.938  1.00  0.00     0.189 C 
BRANCH  13  14
HETATM   14  C   UNL     1      44.507 -10.182   9.290  1.00  0.00     0.070 A 
HETATM   15  O   UNL     1      44.122 -11.260  10.034  1.00  0.00    -0.325 OA
HETATM   16  C   UNL     1      43.697 -10.787  11.233  1.00  0.00     0.142 A 
HETATM   17  C   UNL     1      43.804  -9.418  11.276  1.00  0.00     0.027 A 
HETATM   18  C   UNL     1      44.329  -9.024  10.022  1.00  0.00     0.036 A 
ENDBRANCH  13  14
ENDBRANCH   9  13
ENDBRANCH   4   7
BRANCH   1  19
HETATM   19  C   UNL     1      43.302 -16.746   3.951  1.00  0.00    -0.006 A 
HETATM   20  C   UNL     1      44.110 -17.608   4.716  1.00  0.00     0.014 A 
HETATM   21  C   UNL     1      44.388 -18.912   4.294  1.00  0.00     0.001 A 
HETATM   22  C   UNL     1      43.869 -19.380   3.091  1.00  0.00     0.000 A 
HETATM   23  C   UNL     1      43.076 -18.546   2.310  1.00  0.00     0.001 A 
HETATM   24  C   UNL     1      42.796 -17.244   2.735  1.00  0.00     0.014 A 
ENDBRANCH   1  19
TORSDOF 4
ENDMDL
MODEL 6
REMARK VINA RESULT:      -7.5      4.245      6.560
REMARK  4 active torsions:
REMARK  status: ('A' for Active; 'I' for Inactive)
REMARK    1  A    between atoms: C_4  and  C_5 
REMARK    2  A    between atoms: C_8  and  N_9 
REMARK       I    between atoms: N_9  and  C_10 
REMARK       I    between atoms: C_10  and  N_11 
REMARK    3  A    between atoms: N_11  and  C_12 
REMARK    4  A    between atoms: C_12  and  C_13 
ROOT
HETATM    1  C   UNL     1      41.862 -15.612   4.771  1.00  0.00     0.089 A 
HETATM    2  N   UNL     1      42.086 -14.388   4.242  1.00  0.00    -0.148 NA
HETATM    3  N   UNL     1      41.439 -13.273   4.743  1.00  0.00    -0.131 NA
HETATM    4  C   UNL     1      40.585 -13.387   5.776  1.00  0.00     0.153 A 
HETATM    5  C   UNL     1      40.342 -14.624   6.350  1.00  0.00     0.055 A 
HETATM    6  C   UNL     1      40.989 -15.751   5.842  1.00  0.00     0.038 A 
ENDROOT
BRANCH   4   7
HETATM    7  N   UNL     1      39.905 -12.284   6.291  1.00  0.00    -0.292 N 
HETATM    8  C   UNL     1      40.389 -11.107   6.762  1.00  0.00     0.322 C 
HETATM    9  N   UNL     1      41.735 -10.944   6.814  1.00  0.00    -0.337 N 
HETATM   10  O   UNL     1      39.593 -10.247   7.136  1.00  0.00    -0.247 OA
HETATM   11  H   UNL     1      42.294 -11.581   6.257  1.00  0.00     0.164 HD
HETATM   12  H   UNL     1      38.896 -12.317   6.321  1.00  0.00     0.172 HD
BRANCH   9  13
HETATM   13  C   UNL     1      42.304  -9.664   7.164  1.00  0.00     0.189 C 
BRANCH  13  14
HETATM   14  C   UNL     1      43.717  -9.829   7.581  1.00  0.00     0.070 A 
HETATM   15  O   UNL     1      44.388 -10.887   7.037  1.00  0.00    -0.325 OA
HETATM   16  C   UNL     1      45.657 -10.844   7.516  1.00  0.00     0.142 A 
HETATM   17  C   UNL     1      45.817  -9.772   8.361  1.00  0.00     0.027 A 
HETATM   18  C   UNL     1      44.565  -9.113   8.403  1.00  0.00     0.036 A 
ENDBRANCH  13  14
ENDBRANCH   9  13
ENDBRANCH   4   7
BRANCH   1  19
HETATM   19  C   UNL     1      42.589 -16.741   4.165  1.00  0.00    -0.006 A 
HETATM   20  C   UNL     1      42.293 -17.171   2.858  1.00  0.00     0.014 A 
HETATM   21  C   UNL     1      42.985 -18.232   2.265  1.00  0.00     0.001 A 
HETATM   22  C   UNL     1      43.985 -18.892   2.972  1.00  0.00     0.000 A 
HETATM   23  C   UNL     1      44.291 -18.495   4.269  1.00  0.00     0.001 A 
HETATM   24  C   UNL     1      43.600 -17.432   4.859  1.00  0.00     0.014 A 
ENDBRANCH   1  19
TORSDOF 4
ENDMDL
MODEL 7
REMARK VINA RESULT:      -7.2      4.227      7.776
REMARK  4 active torsions:
REMARK  status: ('A' for Active; 'I' for Inactive)
REMARK    1  A    between atoms: C_4  and  C_5 
REMARK    2  A    between atoms: C_8  and  N_9 
REMARK       I    between atoms: N_9  and  C_10 
REMARK       I    between atoms: C_10  and  N_11 
REMARK    3  A    between atoms: N_11  and  C_12 
REMARK    4  A    between atoms: C_12  and  C_13 
ROOT
HETATM    1  C   UNL     1      43.656 -12.606   6.320  1.00  0.00     0.089 A 
HETATM    2  N   UNL     1      43.597 -12.358   4.992  1.00  0.00    -0.148 NA
HETATM    3  N   UNL     1      42.879 -13.187   4.150  1.00  0.00    -0.131 NA
HETATM    4  C   UNL     1      42.215 -14.249   4.641  1.00  0.00     0.153 A 
HETATM    5  C   UNL     1      42.242 -14.525   5.998  1.00  0.00     0.055 A 
HETATM    6  C   UNL     1      42.971 -13.693   6.848  1.00  0.00     0.038 A 
ENDROOT
BRANCH   4   7
HETATM    7  N   UNL     1      41.497 -15.112   3.814  1.00  0.00    -0.292 N 
HETATM    8  C   UNL     1      41.924 -16.176   3.088  1.00  0.00     0.322 C 
HETATM    9  N   UNL     1      43.251 -16.457   3.087  1.00  0.00    -0.337 N 
HETATM   10  O   UNL     1      41.098 -16.828   2.451  1.00  0.00    -0.247 OA
HETATM   11  H   UNL     1      43.807 -16.042   3.826  1.00  0.00     0.164 HD
HETATM   12  H   UNL     1      40.501 -14.968   3.725  1.00  0.00     0.172 HD
BRANCH   9  13
HETATM   13  C   UNL     1      43.743 -17.660   2.457  1.00  0.00     0.189 C 
BRANCH  13  14
HETATM   14  C   UNL     1      43.861 -18.749   3.455  1.00  0.00     0.070 A 
HETATM   15  O   UNL     1      43.706 -20.021   2.983  1.00  0.00    -0.325 OA
HETATM   16  C   UNL     1      43.877 -20.862   4.034  1.00  0.00     0.142 A 
HETATM   17  C   UNL     1      44.143 -20.152   5.180  1.00  0.00     0.027 A 
HETATM   18  C   UNL     1      44.135 -18.786   4.809  1.00  0.00     0.036 A 
ENDBRANCH  13  14
ENDBRANCH   9  13
ENDBRANCH   4   7
BRANCH   1  19
HETATM   19  C   UNL     1      44.454 -11.675   7.135  1.00  0.00    -0.006 A 
HETATM   20  C   UNL     1      45.735 -11.265   6.719  1.00  0.00     0.014 A 
HETATM   21  C   UNL     1      46.496 -10.370   7.476  1.00  0.00     0.001 A 
HETATM   22  C   UNL     1      45.995  -9.870   8.674  1.00  0.00     0.000 A 
HETATM   23  C   UNL     1      44.737 -10.266   9.116  1.00  0.00     0.001 A 
HETATM   24  C   UNL     1      43.976 -11.158   8.355  1.00  0.00     0.014 A 
ENDBRANCH   1  19
TORSDOF 4
ENDMDL
MODEL 8
REMARK VINA RESULT:      -7.2      2.414      4.111
REMARK  4 active torsions:
REMARK  status: ('A' for Active; 'I' for Inactive)
REMARK    1  A    between atoms: C_4  and  C_5 
REMARK    2  A    between atoms: C_8  and  N_9 
REMARK       I    between atoms: N_9  and  C_10 
REMARK       I    between atoms: C_10  and  N_11 
REMARK    3  A    between atoms: N_11  and  C_12 
REMARK    4  A    between atoms: C_12  and  C_13 
ROOT
HETATM    1  C   UNL     1      41.901 -15.659   3.175  1.00  0.00     0.089 A 
HETATM    2  N   UNL     1      42.454 -15.243   2.013  1.00  0.00    -0.148 NA
HETATM    3  N   UNL     1      41.667 -15.006   0.901  1.00  0.00    -0.131 NA
HETATM    4  C   UNL     1      40.334 -15.174   0.961  1.00  0.00     0.153 A 
HETATM    5  C   UNL     1      39.732 -15.587   2.138  1.00  0.00     0.055 A 
HETATM    6  C   UNL     1      40.525 -15.832   3.260  1.00  0.00     0.038 A 
ENDROOT
BRANCH   4   7
HETATM    7  N   UNL     1      39.517 -14.961  -0.150  1.00  0.00    -0.292 N 
HETATM    8  C   UNL     1      39.639 -14.061  -1.158  1.00  0.00     0.322 C 
HETATM    9  N   UNL     1      40.663 -13.172  -1.101  1.00  0.00    -0.337 N 
HETATM   10  O   UNL     1      38.811 -14.075  -2.068  1.00  0.00    -0.247 OA
HETATM   11  H   UNL     1      41.427 -13.395  -0.472  1.00  0.00     0.164 HD
HETATM   12  H   UNL     1      38.709 -15.555  -0.268  1.00  0.00     0.172 HD
BRANCH   9  13
HETATM   13  C   UNL     1      40.930 -12.292  -2.214  1.00  0.00     0.189 C 
BRANCH  13  14
HETATM   14  C   UNL     1      41.175 -10.913  -1.730  1.00  0.00     0.070 A 
HETATM   15  O   UNL     1      41.429 -10.778  -0.394  1.00  0.00    -0.325 OA
HETATM   16  C   UNL     1      41.652  -9.460  -0.161  1.00  0.00     0.142 A 
HETATM   17  C   UNL     1      41.549  -8.740  -1.327  1.00  0.00     0.027 A 
HETATM   18  C   UNL     1      41.242  -9.677  -2.343  1.00  0.00     0.036 A 
ENDBRANCH  13  14
ENDBRANCH   9  13
ENDBRANCH   4   7
BRANCH   1  19
HETATM   19  C   UNL     1      42.819 -15.895   4.302  1.00  0.00    -0.006 A 
HETATM   20  C   UNL     1      42.953 -14.948   5.335  1.00  0.00     0.014 A 
HETATM   21  C   UNL     1      43.811 -15.167   6.417  1.00  0.00     0.001 A 
HETATM   22  C   UNL     1      44.560 -16.337   6.487  1.00  0.00     0.000 A 
HETATM   23  C   UNL     1      44.457 -17.285   5.474  1.00  0.00     0.001 A 
HETATM   24  C   UNL     1      43.596 -17.066   4.394  1.00  0.00     0.014 A 
ENDBRANCH   1  19
TORSDOF 4
ENDMDL
MODEL 9
REMARK VINA RESULT:      -7.1      2.373      3.996
REMARK  4 active torsions:
REMARK  status: ('A' for Active; 'I' for Inactive)
REMARK    1  A    between atoms: C_4  and  C_5 
REMARK    2  A    between atoms: C_8  and  N_9 
REMARK       I    between atoms: N_9  and  C_10 
REMARK       I    between atoms: C_10  and  N_11 
REMARK    3  A    between atoms: N_11  and  C_12 
REMARK    4  A    between atoms: C_12  and  C_13 
ROOT
HETATM    1  C   UNL     1      42.847 -17.074   2.421  1.00  0.00     0.089 A 
HETATM    2  N   UNL     1      41.530 -16.963   2.136  1.00  0.00    -0.148 NA
HETATM    3  N   UNL     1      41.027 -15.813   1.556  1.00  0.00    -0.131 NA
HETATM    4  C   UNL     1      41.845 -14.788   1.253  1.00  0.00     0.153 A 
HETATM    5  C   UNL     1      43.201 -14.873   1.520  1.00  0.00     0.055 A 
HETATM    6  C   UNL     1      43.709 -16.030   2.111  1.00  0.00     0.038 A 
ENDROOT
BRANCH   4   7
HETATM    7  N   UNL     1      41.363 -13.609   0.684  1.00  0.00    -0.292 N 
HETATM    8  C   UNL     1      40.419 -12.747   1.139  1.00  0.00     0.322 C 
HETATM    9  N   UNL     1      39.772 -13.057   2.291  1.00  0.00    -0.337 N 
HETATM   10  O   UNL     1      40.177 -11.735   0.483  1.00  0.00    -0.247 OA
HETATM   11  H   UNL     1      40.207 -13.754   2.885  1.00  0.00     0.164 HD
HETATM   12  H   UNL     1      41.763 -13.306  -0.192  1.00  0.00     0.172 HD
BRANCH   9  13
HETATM   13  C   UNL     1      38.869 -12.109   2.899  1.00  0.00     0.189 C 
BRANCH  13  14
HETATM   14  C   UNL     1      39.372 -11.705   4.234  1.00  0.00     0.070 A 
HETATM   15  O   UNL     1      39.898 -10.448   4.326  1.00  0.00    -0.325 OA
HETATM   16  C   UNL     1      40.269 -10.264   5.618  1.00  0.00     0.142 A 
HETATM   17  C   UNL     1      39.990 -11.384   6.364  1.00  0.00     0.027 A 
HETATM   18  C   UNL     1      39.407 -12.317   5.472  1.00  0.00     0.036 A 
ENDBRANCH  13  14
ENDBRANCH   9  13
ENDBRANCH   4   7
BRANCH   1  19
HETATM   19  C   UNL     1      43.288 -18.332   3.048  1.00  0.00    -0.006 A 
HETATM   20  C   UNL     1      43.734 -18.356   4.383  1.00  0.00     0.014 A 
HETATM   21  C   UNL     1      44.141 -19.545   4.994  1.00  0.00     0.001 A 
HETATM   22  C   UNL     1      44.118 -20.739   4.279  1.00  0.00     0.000 A 
HETATM   23  C   UNL     1      43.693 -20.743   2.955  1.00  0.00     0.001 A 
HETATM   24  C   UNL     1      43.282 -19.553   2.347  1.00  0.00     0.014 A 
ENDBRANCH   1  19
TORSDOF 4
ENDMDL
MODEL 10
REMARK VINA RESULT:      -6.9     14.335     17.367
REMARK  4 active torsions:
REMARK  status: ('A' for Active; 'I' for Inactive)
REMARK    1  A    between atoms: C_4  and  C_5 
REMARK    2  A    between atoms: C_8  and  N_9 
REMARK       I    between atoms: N_9  and  C_10 
REMARK       I    between atoms: C_10  and  N_11 
REMARK    3  A    between atoms: N_11  and  C_12 
REMARK    4  A    between atoms: C_12  and  C_13 
ROOT
HETATM    1  C   UNL     1      51.548 -31.272  -0.925  1.00  0.00     0.089 A 
HETATM    2  N   UNL     1      50.911 -30.190  -1.428  1.00  0.00    -0.148 NA
HETATM    3  N   UNL     1      49.975 -29.508  -0.673  1.00  0.00    -0.131 NA
HETATM    4  C   UNL     1      49.692 -29.902   0.581  1.00  0.00     0.153 A 
HETATM    5  C   UNL     1      50.335 -30.998   1.133  1.00  0.00     0.055 A 
HETATM    6  C   UNL     1      51.275 -31.691   0.371  1.00  0.00     0.038 A 
ENDROOT
BRANCH   4   7
HETATM    7  N   UNL     1      48.739 -29.244   1.359  1.00  0.00    -0.292 N 
HETATM    8  C   UNL     1      47.599 -28.611   0.985  1.00  0.00     0.322 C 
HETATM    9  N   UNL     1      47.318 -28.528  -0.339  1.00  0.00    -0.337 N 
HETATM   10  O   UNL     1      46.878 -28.126   1.857  1.00  0.00    -0.247 OA
HETATM   11  H   UNL     1      47.816 -29.164  -0.952  1.00  0.00     0.164 HD
HETATM   12  H   UNL     1      48.872 -29.225   2.360  1.00  0.00     0.172 HD
BRANCH   9  13
HETATM   13  C   UNL     1      46.051 -28.000  -0.787  1.00  0.00     0.189 C 
BRANCH  13  14
HETATM   14  C   UNL     1      45.739 -28.501  -2.147  1.00  0.00     0.070 A 
HETATM   15  O   UNL     1      46.062 -29.804  -2.399  1.00  0.00    -0.325 OA
HETATM   16  C   UNL     1      45.674 -30.073  -3.672  1.00  0.00     0.142 A 
HETATM   17  C   UNL     1      45.103 -28.962  -4.246  1.00  0.00     0.027 A 
HETATM   18  C   UNL     1      45.142 -27.946  -3.262  1.00  0.00     0.036 A 
ENDBRANCH  13  14
ENDBRANCH   9  13
ENDBRANCH   4   7
BRANCH   1  19
HETATM   19  C   UNL     1      52.521 -31.941  -1.806  1.00  0.00    -0.006 A 
HETATM   20  C   UNL     1      52.333 -31.966  -3.201  1.00  0.00     0.014 A 
HETATM   21  C   UNL     1      53.256 -32.584  -4.050  1.00  0.00     0.001 A 
HETATM   22  C   UNL     1      54.387 -33.198  -3.520  1.00  0.00     0.000 A 
HETATM   23  C   UNL     1      54.592 -33.198  -2.145  1.00  0.00     0.001 A 
HETATM   24  C   UNL     1      53.670 -32.577  -1.297  1.00  0.00     0.014 A 
ENDBRANCH   1  19
TORSDOF 4
ENDMDL
