MODEL 1
REMARK VINA RESULT:      -9.4      0.000      0.000
REMARK  5 active torsions:
REMARK  status: ('A' for Active; 'I' for Inactive)
REMARK    1  A    between atoms: C_2  and  C_3 
REMARK    2  A    between atoms: C_8  and  C_9 
REMARK       I    between atoms: C_9  and  N_10 
REMARK    3  A    between atoms: N_10  and  C_11 
REMARK    4  A    between atoms: C_11  and  C_12 
REMARK    5  A    between atoms: C_19  and  C_20 
ROOT
HETATM    1  C   UNL     1      42.293 -15.723   2.805  1.00  0.00     0.118 C 
HETATM    2  N   UNL     1      43.095 -14.602   3.292  1.00  0.00    -0.366 N 
HETATM    3  C   UNL     1      42.543 -13.497   3.831  1.00  0.00     0.123 A 
HETATM    4  N   UNL     1      41.203 -13.256   3.734  1.00  0.00    -0.240 N 
HETATM    5  N   UNL     1      40.781 -12.201   4.450  1.00  0.00    -0.165 NA
HETATM    6  C   UNL     1      41.929 -11.680   4.944  1.00  0.00     0.148 A 
HETATM    7  C   UNL     1      43.059 -12.452   4.548  1.00  0.00     0.088 A 
HETATM    8  C   UNL     1      40.286 -14.153   3.059  1.00  0.00     0.221 C 
HETATM    9  C   UNL     1      40.808 -15.591   3.211  1.00  0.00     0.066 C 
HETATM   10  H   UNL     1      44.102 -14.762   3.336  1.00  0.00     0.161 HD
ENDROOT
BRANCH   6  11
HETATM   11  C   UNL     1      41.945 -10.503   5.826  1.00  0.00     0.272 C 
HETATM   12  N   UNL     1      42.230 -10.805   7.137  1.00  0.00    -0.353 N 
HETATM   13  H   UNL     1      42.529 -11.764   7.307  1.00  0.00     0.162 HD
HETATM   14  O   UNL     1      41.759  -9.361   5.415  1.00  0.00    -0.266 OA
BRANCH  12  15
HETATM   15  C   UNL     1      42.608  -9.786   8.093  1.00  0.00     0.155 C 
BRANCH  15  16
HETATM   16  C   UNL     1      44.054  -9.958   8.549  1.00  0.00     0.139 C 
HETATM   17  O   UNL     1      44.686 -11.036   7.825  1.00  0.00    -0.384 OA
HETATM   18  C   UNL     1      46.042 -10.656   7.543  1.00  0.00     0.168 C 
HETATM   19  C   UNL     1      46.292  -9.338   8.247  1.00  0.00     0.029 C 
HETATM   20  C   UNL     1      44.912  -8.733   8.289  1.00  0.00     0.035 C 
ENDBRANCH  15  16
ENDBRANCH  12  15
ENDBRANCH   6  11
BRANCH   8  21
HETATM   21  C   UNL     1      40.119 -13.739   1.616  1.00  0.00     0.409 C 
HETATM   22  F   UNL     1      41.222 -13.143   1.116  1.00  0.00    -0.169 F 
HETATM   23  F   UNL     1      39.793 -14.761   0.796  1.00  0.00    -0.169 F 
HETATM   24  F   UNL     1      39.110 -12.833   1.518  1.00  0.00    -0.169 F 
ENDBRANCH   8  21
BRANCH   1  25
HETATM   25  C   UNL     1      42.893 -17.013   3.346  1.00  0.00    -0.034 A 
HETATM   26  C   UNL     1      43.251 -17.130   4.700  1.00  0.00     0.011 A 
HETATM   27  C   UNL     1      43.813 -18.310   5.194  1.00  0.00     0.026 A 
HETATM   28  C   UNL     1      44.030 -19.392   4.341  1.00  0.00     0.055 A 
HETATM   29  C   UNL     1      43.681 -19.292   2.990  1.00  0.00     0.056 A 
HETATM   30 CL   UNL     1      44.735 -20.817   5.015  1.00  0.00    -0.083 Cl
HETATM   31  C   UNL     1      43.114 -18.108   2.497  1.00  0.00     0.034 A 
HETATM   32 CL   UNL     1      43.926 -20.587   1.873  1.00  0.00    -0.083 Cl
ENDBRANCH   1  25
TORSDOF 5
ENDMDL
MODEL 2
REMARK VINA RESULT:      -9.0      4.227      6.807
REMARK  5 active torsions:
REMARK  status: ('A' for Active; 'I' for Inactive)
REMARK    1  A    between atoms: C_2  and  C_3 
REMARK    2  A    between atoms: C_8  and  C_9 
REMARK       I    between atoms: C_9  and  N_10 
REMARK    3  A    between atoms: N_10  and  C_11 
REMARK    4  A    between atoms: C_11  and  C_12 
REMARK    5  A    between atoms: C_19  and  C_20 
ROOT
HETATM    1  C   UNL     1      42.278 -15.504   3.660  1.00  0.00     0.118 C 
HETATM    2  N   UNL     1      41.050 -15.717   2.897  1.00  0.00    -0.366 N 
HETATM    3  C   UNL     1      40.775 -15.042   1.764  1.00  0.00     0.123 A 
HETATM    4  N   UNL     1      41.511 -13.954   1.393  1.00  0.00    -0.240 N 
HETATM    5  N   UNL     1      41.219 -13.485   0.169  1.00  0.00    -0.165 NA
HETATM    6  C   UNL     1      40.170 -14.249  -0.217  1.00  0.00     0.148 A 
HETATM    7  C   UNL     1      39.845 -15.218   0.776  1.00  0.00     0.088 A 
HETATM    8  C   UNL     1      42.624 -13.450   2.172  1.00  0.00     0.221 C 
HETATM    9  C   UNL     1      43.295 -14.632   2.889  1.00  0.00     0.066 C 
HETATM   10  H   UNL     1      40.477 -16.509   3.189  1.00  0.00     0.161 HD
ENDROOT
BRANCH   6  11
HETATM   11  C   UNL     1      39.527 -14.100  -1.531  1.00  0.00     0.272 C 
HETATM   12  N   UNL     1      38.213 -13.700  -1.456  1.00  0.00    -0.353 N 
HETATM   13  H   UNL     1      37.895 -13.426  -0.527  1.00  0.00     0.162 HD
HETATM   14  O   UNL     1      40.125 -14.278  -2.588  1.00  0.00    -0.266 OA
BRANCH  12  15
HETATM   15  C   UNL     1      37.500 -13.190  -2.607  1.00  0.00     0.155 C 
BRANCH  15  16
HETATM   16  C   UNL     1      37.332 -11.676  -2.534  1.00  0.00     0.139 C 
HETATM   17  O   UNL     1      37.213 -11.248  -1.159  1.00  0.00    -0.384 OA
HETATM   18  C   UNL     1      37.925 -10.011  -1.008  1.00  0.00     0.168 C 
HETATM   19  C   UNL     1      38.387  -9.591  -2.388  1.00  0.00     0.029 C 
HETATM   20  C   UNL     1      38.518 -10.915  -3.097  1.00  0.00     0.035 C 
ENDBRANCH  15  16
ENDBRANCH  12  15
ENDBRANCH   6  11
BRANCH   8  21
HETATM   21  C   UNL     1      42.149 -12.379   3.126  1.00  0.00     0.409 C 
HETATM   22  F   UNL     1      42.352 -11.132   2.649  1.00  0.00    -0.169 F 
HETATM   23  F   UNL     1      40.845 -12.489   3.456  1.00  0.00    -0.169 F 
HETATM   24  F   UNL     1      42.847 -12.466   4.290  1.00  0.00    -0.169 F 
ENDBRANCH   8  21
BRANCH   1  25
HETATM   25  C   UNL     1      42.874 -16.863   4.000  1.00  0.00    -0.034 A 
HETATM   26  C   UNL     1      43.233 -17.184   5.321  1.00  0.00     0.011 A 
HETATM   27  C   UNL     1      43.792 -18.426   5.631  1.00  0.00     0.026 A 
HETATM   28  C   UNL     1      44.005 -19.368   4.624  1.00  0.00     0.055 A 
HETATM   29  C   UNL     1      43.656 -19.064   3.304  1.00  0.00     0.056 A 
HETATM   30 CL   UNL     1      44.706 -20.881   5.076  1.00  0.00    -0.083 Cl
HETATM   31  C   UNL     1      43.093 -17.818   2.996  1.00  0.00     0.034 A 
HETATM   32 CL   UNL     1      43.898 -20.177   2.005  1.00  0.00    -0.083 Cl
ENDBRANCH   1  25
TORSDOF 5
ENDMDL
MODEL 3
REMARK VINA RESULT:      -8.7      2.376      2.812
REMARK  5 active torsions:
REMARK  status: ('A' for Active; 'I' for Inactive)
REMARK    1  A    between atoms: C_2  and  C_3 
REMARK    2  A    between atoms: C_8  and  C_9 
REMARK       I    between atoms: C_9  and  N_10 
REMARK    3  A    between atoms: N_10  and  C_11 
REMARK    4  A    between atoms: C_11  and  C_12 
REMARK    5  A    between atoms: C_19  and  C_20 
ROOT
HETATM    1  C   UNL     1      42.344 -15.639   2.889  1.00  0.00     0.118 C 
HETATM    2  N   UNL     1      42.612 -14.588   3.868  1.00  0.00    -0.366 N 
HETATM    3  C   UNL     1      41.664 -13.723   4.280  1.00  0.00     0.123 A 
HETATM    4  N   UNL     1      40.467 -13.626   3.633  1.00  0.00    -0.240 N 
HETATM    5  N   UNL     1      39.571 -12.838   4.251  1.00  0.00    -0.165 NA
HETATM    6  C   UNL     1      40.271 -12.325   5.289  1.00  0.00     0.148 A 
HETATM    7  C   UNL     1      41.600 -12.836   5.319  1.00  0.00     0.088 A 
HETATM    8  C   UNL     1      40.126 -14.429   2.476  1.00  0.00     0.221 C 
HETATM    9  C   UNL     1      40.833 -15.788   2.598  1.00  0.00     0.066 C 
HETATM   10  H   UNL     1      43.519 -14.635   4.333  1.00  0.00     0.161 HD
ENDROOT
BRANCH   6  11
HETATM   11  C   UNL     1      39.667 -11.409   6.270  1.00  0.00     0.272 C 
HETATM   12  N   UNL     1      40.495 -10.371   6.632  1.00  0.00    -0.353 N 
HETATM   13  H   UNL     1      41.349 -10.286   6.083  1.00  0.00     0.162 HD
HETATM   14  O   UNL     1      38.522 -11.545   6.689  1.00  0.00    -0.266 OA
BRANCH  12  15
HETATM   15  C   UNL     1      39.997  -9.201   7.321  1.00  0.00     0.155 C 
BRANCH  15  16
HETATM   16  C   UNL     1      40.308  -9.258   8.814  1.00  0.00     0.139 C 
HETATM   17  O   UNL     1      41.098  -8.115   9.209  1.00  0.00    -0.384 OA
HETATM   18  C   UNL     1      40.649  -7.681  10.502  1.00  0.00     0.168 C 
HETATM   19  C   UNL     1      39.628  -8.692  10.982  1.00  0.00     0.029 C 
HETATM   20  C   UNL     1      39.066  -9.217   9.685  1.00  0.00     0.035 C 
ENDBRANCH  15  16
ENDBRANCH  12  15
ENDBRANCH   6  11
BRANCH   8  21
HETATM   21  C   UNL     1      40.486 -13.693   1.206  1.00  0.00     0.409 C 
HETATM   22  F   UNL     1      39.449 -12.990   0.702  1.00  0.00    -0.169 F 
HETATM   23  F   UNL     1      41.528 -12.848   1.349  1.00  0.00    -0.169 F 
HETATM   24  F   UNL     1      40.847 -14.589   0.249  1.00  0.00    -0.169 F 
ENDBRANCH   8  21
BRANCH   1  25
HETATM   25  C   UNL     1      42.928 -16.944   3.412  1.00  0.00    -0.034 A 
HETATM   26  C   UNL     1      43.292 -17.080   4.764  1.00  0.00     0.011 A 
HETATM   27  C   UNL     1      43.840 -18.273   5.242  1.00  0.00     0.026 A 
HETATM   28  C   UNL     1      44.037 -19.349   4.376  1.00  0.00     0.055 A 
HETATM   29  C   UNL     1      43.683 -19.229   3.028  1.00  0.00     0.056 A 
HETATM   30 CL   UNL     1      44.726 -20.791   5.032  1.00  0.00    -0.083 Cl
HETATM   31  C   UNL     1      43.130 -18.033   2.551  1.00  0.00     0.034 A 
HETATM   32 CL   UNL     1      43.904 -20.515   1.897  1.00  0.00    -0.083 Cl
ENDBRANCH   1  25
TORSDOF 5
ENDMDL
MODEL 4
REMARK VINA RESULT:      -8.4      2.200      2.835
REMARK  5 active torsions:
REMARK  status: ('A' for Active; 'I' for Inactive)
REMARK    1  A    between atoms: C_2  and  C_3 
REMARK    2  A    between atoms: C_8  and  C_9 
REMARK       I    between atoms: C_9  and  N_10 
REMARK    3  A    between atoms: N_10  and  C_11 
REMARK    4  A    between atoms: C_11  and  C_12 
REMARK    5  A    between atoms: C_19  and  C_20 
ROOT
HETATM    1  C   UNL     1      42.306 -15.963   2.146  1.00  0.00     0.118 C 
HETATM    2  N   UNL     1      43.153 -14.802   2.414  1.00  0.00    -0.366 N 
HETATM    3  C   UNL     1      42.648 -13.606   2.777  1.00  0.00     0.123 A 
HETATM    4  N   UNL     1      41.312 -13.345   2.682  1.00  0.00    -0.240 N 
HETATM    5  N   UNL     1      40.941 -12.173   3.224  1.00  0.00    -0.165 NA
HETATM    6  C   UNL     1      42.118 -11.612   3.589  1.00  0.00     0.148 A 
HETATM    7  C   UNL     1      43.214 -12.474   3.295  1.00  0.00     0.088 A 
HETATM    8  C   UNL     1      40.350 -14.313   2.194  1.00  0.00     0.221 C 
HETATM    9  C   UNL     1      40.839 -15.721   2.568  1.00  0.00     0.066 C 
HETATM   10  H   UNL     1      44.156 -14.983   2.455  1.00  0.00     0.161 HD
ENDROOT
BRANCH   6  11
HETATM   11  C   UNL     1      42.194 -10.306   4.262  1.00  0.00     0.272 C 
HETATM   12  N   UNL     1      41.136  -9.477   3.969  1.00  0.00    -0.353 N 
HETATM   13  H   UNL     1      40.376  -9.911   3.447  1.00  0.00     0.162 HD
HETATM   14  O   UNL     1      43.097 -10.010   5.039  1.00  0.00    -0.266 OA
BRANCH  12  15
HETATM   15  C   UNL     1      40.848  -8.297   4.755  1.00  0.00     0.155 C 
BRANCH  15  16
HETATM   16  C   UNL     1      39.869  -8.604   5.884  1.00  0.00     0.139 C 
HETATM   17  O   UNL     1      39.189  -9.854   5.635  1.00  0.00    -0.384 OA
HETATM   18  C   UNL     1      39.044 -10.546   6.885  1.00  0.00     0.168 C 
HETATM   19  C   UNL     1      39.538  -9.612   7.972  1.00  0.00     0.029 C 
HETATM   20  C   UNL     1      40.546  -8.769   7.233  1.00  0.00     0.035 C 
ENDBRANCH  15  16
ENDBRANCH  12  15
ENDBRANCH   6  11
BRANCH   8  21
HETATM   21  C   UNL     1      40.144 -14.139   0.708  1.00  0.00     0.409 C 
HETATM   22  F   UNL     1      39.171 -13.249   0.418  1.00  0.00    -0.169 F 
HETATM   23  F   UNL     1      41.259 -13.762   0.048  1.00  0.00    -0.169 F 
HETATM   24  F   UNL     1      39.758 -15.323   0.161  1.00  0.00    -0.169 F 
ENDBRANCH   8  21
BRANCH   1  25
HETATM   25  C   UNL     1      42.891 -17.164   2.876  1.00  0.00    -0.034 A 
HETATM   26  C   UNL     1      43.228 -17.085   4.239  1.00  0.00     0.011 A 
HETATM   27  C   UNL     1      43.777 -18.182   4.906  1.00  0.00     0.026 A 
HETATM   28  C   UNL     1      44.002 -19.376   4.222  1.00  0.00     0.055 A 
HETATM   29  C   UNL     1      43.675 -19.471   2.865  1.00  0.00     0.056 A 
HETATM   30 CL   UNL     1      44.690 -20.692   5.106  1.00  0.00    -0.083 Cl
HETATM   31  C   UNL     1      43.121 -18.370   2.198  1.00  0.00     0.034 A 
HETATM   32 CL   UNL     1      43.932 -20.914   1.950  1.00  0.00    -0.083 Cl
ENDBRANCH   1  25
TORSDOF 5
ENDMDL
MODEL 5
REMARK VINA RESULT:      -8.4      6.206      8.848
REMARK  5 active torsions:
REMARK  status: ('A' for Active; 'I' for Inactive)
REMARK    1  A    between atoms: C_2  and  C_3 
REMARK    2  A    between atoms: C_8  and  C_9 
REMARK       I    between atoms: C_9  and  N_10 
REMARK    3  A    between atoms: N_10  and  C_11 
REMARK    4  A    between atoms: C_11  and  C_12 
REMARK    5  A    between atoms: C_19  and  C_20 
ROOT
HETATM    1  C   UNL     1      39.787 -11.462  -2.414  1.00  0.00     0.118 C 
HETATM    2  N   UNL     1      39.427 -11.395  -0.999  1.00  0.00    -0.366 N 
HETATM    3  C   UNL     1      39.619 -12.426  -0.153  1.00  0.00     0.123 A 
HETATM    4  N   UNL     1      39.936 -13.670  -0.616  1.00  0.00    -0.240 N 
HETATM    5  N   UNL     1      40.248 -14.552   0.348  1.00  0.00    -0.165 NA
HETATM    6  C   UNL     1      40.016 -13.861   1.489  1.00  0.00     0.148 A 
HETATM    7  C   UNL     1      39.590 -12.531   1.210  1.00  0.00     0.088 A 
HETATM    8  C   UNL     1      40.089 -13.974  -2.024  1.00  0.00     0.221 C 
HETATM    9  C   UNL     1      40.620 -12.722  -2.741  1.00  0.00     0.066 C 
HETATM   10  H   UNL     1      39.158 -10.474  -0.652  1.00  0.00     0.161 HD
ENDROOT
BRANCH   6  11
HETATM   11  C   UNL     1      40.253 -14.438   2.822  1.00  0.00     0.272 C 
HETATM   12  N   UNL     1      40.629 -15.761   2.787  1.00  0.00    -0.353 N 
HETATM   13  H   UNL     1      40.831 -16.131   1.859  1.00  0.00     0.162 HD
HETATM   14  O   UNL     1      40.160 -13.783   3.856  1.00  0.00    -0.266 OA
BRANCH  12  15
HETATM   15  C   UNL     1      41.213 -16.421   3.935  1.00  0.00     0.155 C 
BRANCH  15  16
HETATM   16  C   UNL     1      42.642 -16.876   3.650  1.00  0.00     0.139 C 
HETATM   17  O   UNL     1      43.207 -17.518   4.814  1.00  0.00    -0.384 OA
HETATM   18  C   UNL     1      44.002 -18.630   4.374  1.00  0.00     0.168 C 
HETATM   19  C   UNL     1      44.035 -18.584   2.860  1.00  0.00     0.029 C 
HETATM   20  C   UNL     1      42.731 -17.900   2.534  1.00  0.00     0.035 C 
ENDBRANCH  15  16
ENDBRANCH  12  15
ENDBRANCH   6  11
BRANCH   8  21
HETATM   21  C   UNL     1      38.780 -14.466  -2.596  1.00  0.00     0.409 C 
HETATM   22  F   UNL     1      38.640 -15.805  -2.497  1.00  0.00    -0.169 F 
HETATM   23  F   UNL     1      37.695 -13.894  -2.033  1.00  0.00    -0.169 F 
HETATM   24  F   UNL     1      38.724 -14.169  -3.922  1.00  0.00    -0.169 F 
ENDBRANCH   8  21
BRANCH   1  25
HETATM   25  C   UNL     1      40.550 -10.196  -2.777  1.00  0.00    -0.034 A 
HETATM   26  C   UNL     1      41.461  -9.619  -1.874  1.00  0.00     0.011 A 
HETATM   27  C   UNL     1      42.152  -8.451  -2.202  1.00  0.00     0.026 A 
HETATM   28  C   UNL     1      41.942  -7.836  -3.436  1.00  0.00     0.055 A 
HETATM   29  C   UNL     1      41.038  -8.396  -4.345  1.00  0.00     0.056 A 
HETATM   30 CL   UNL     1      42.825  -6.390  -3.774  1.00  0.00    -0.083 Cl
HETATM   31  C   UNL     1      40.347  -9.571  -4.016  1.00  0.00     0.034 A 
HETATM   32 CL   UNL     1      40.721  -7.687  -5.889  1.00  0.00    -0.083 Cl
ENDBRANCH   1  25
TORSDOF 5
ENDMDL
MODEL 6
REMARK VINA RESULT:      -8.1      4.844      7.839
REMARK  5 active torsions:
REMARK  status: ('A' for Active; 'I' for Inactive)
REMARK    1  A    between atoms: C_2  and  C_3 
REMARK    2  A    between atoms: C_8  and  C_9 
REMARK       I    between atoms: C_9  and  N_10 
REMARK    3  A    between atoms: N_10  and  C_11 
REMARK    4  A    between atoms: C_11  and  C_12 
REMARK    5  A    between atoms: C_19  and  C_20 
ROOT
HETATM    1  C   UNL     1      43.016 -14.253   3.860  1.00  0.00     0.118 C 
HETATM    2  N   UNL     1      42.770 -13.615   2.569  1.00  0.00    -0.366 N 
HETATM    3  C   UNL     1      41.838 -14.063   1.705  1.00  0.00     0.123 A 
HETATM    4  N   UNL     1      41.239 -15.277   1.879  1.00  0.00    -0.240 N 
HETATM    5  N   UNL     1      40.226 -15.517   1.031  1.00  0.00    -0.165 NA
HETATM    6  C   UNL     1      40.249 -14.444   0.206  1.00  0.00     0.148 A 
HETATM    7  C   UNL     1      41.271 -13.526   0.583  1.00  0.00     0.088 A 
HETATM    8  C   UNL     1      41.551 -16.161   2.985  1.00  0.00     0.221 C 
HETATM    9  C   UNL     1      41.937 -15.305   4.202  1.00  0.00     0.066 C 
HETATM   10  H   UNL     1      43.240 -12.722   2.417  1.00  0.00     0.161 HD
ENDROOT
BRANCH   6  11
HETATM   11  C   UNL     1      39.278 -14.267  -0.885  1.00  0.00     0.272 C 
HETATM   12  N   UNL     1      38.635 -13.052  -0.854  1.00  0.00    -0.353 N 
HETATM   13  H   UNL     1      39.003 -12.383  -0.179  1.00  0.00     0.162 HD
HETATM   14  O   UNL     1      39.096 -15.113  -1.756  1.00  0.00    -0.266 OA
BRANCH  12  15
HETATM   15  C   UNL     1      37.894 -12.549  -1.990  1.00  0.00     0.155 C 
BRANCH  15  16
HETATM   16  C   UNL     1      38.566 -11.319  -2.594  1.00  0.00     0.139 C 
HETATM   17  O   UNL     1      38.685 -10.273  -1.604  1.00  0.00    -0.384 OA
HETATM   18  C   UNL     1      39.950  -9.619  -1.790  1.00  0.00     0.168 C 
HETATM   19  C   UNL     1      40.575 -10.202  -3.040  1.00  0.00     0.029 C 
HETATM   20  C   UNL     1      39.979 -11.587  -3.078  1.00  0.00     0.035 C 
ENDBRANCH  15  16
ENDBRANCH  12  15
ENDBRANCH   6  11
BRANCH   8  21
HETATM   21  C   UNL     1      42.635 -17.134   2.586  1.00  0.00     0.409 C 
HETATM   22  F   UNL     1      43.513 -17.372   3.583  1.00  0.00    -0.169 F 
HETATM   23  F   UNL     1      42.162 -18.324   2.159  1.00  0.00    -0.169 F 
HETATM   24  F   UNL     1      43.353 -16.616   1.554  1.00  0.00    -0.169 F 
ENDBRANCH   8  21
BRANCH   1  25
HETATM   25  C   UNL     1      43.078 -13.170   4.928  1.00  0.00    -0.034 A 
HETATM   26  C   UNL     1      43.705 -13.409   6.164  1.00  0.00     0.011 A 
HETATM   27  C   UNL     1      43.750 -12.420   7.149  1.00  0.00     0.026 A 
HETATM   28  C   UNL     1      43.166 -11.175   6.917  1.00  0.00     0.055 A 
HETATM   29  C   UNL     1      42.536 -10.920   5.694  1.00  0.00     0.056 A 
HETATM   30 CL   UNL     1      43.252  -9.999   8.179  1.00  0.00    -0.083 Cl
HETATM   31  C   UNL     1      42.495 -11.914   4.705  1.00  0.00     0.034 A 
HETATM   32 CL   UNL     1      41.786  -9.406   5.337  1.00  0.00    -0.083 Cl
ENDBRANCH   1  25
TORSDOF 5
ENDMDL
MODEL 7
REMARK VINA RESULT:      -8.0      4.813      8.079
REMARK  5 active torsions:
REMARK  status: ('A' for Active; 'I' for Inactive)
REMARK    1  A    between atoms: C_2  and  C_3 
REMARK    2  A    between atoms: C_8  and  C_9 
REMARK       I    between atoms: C_9  and  N_10 
REMARK    3  A    between atoms: N_10  and  C_11 
REMARK    4  A    between atoms: C_11  and  C_12 
REMARK    5  A    between atoms: C_19  and  C_20 
ROOT
HETATM    1  C   UNL     1      42.960 -13.336   5.575  1.00  0.00     0.118 C 
HETATM    2  N   UNL     1      43.027 -13.078   4.138  1.00  0.00    -0.366 N 
HETATM    3  C   UNL     1      41.969 -13.250   3.321  1.00  0.00     0.123 A 
HETATM    4  N   UNL     1      40.847 -13.902   3.745  1.00  0.00    -0.240 N 
HETATM    5  N   UNL     1      39.824 -13.858   2.876  1.00  0.00    -0.165 NA
HETATM    6  C   UNL     1      40.357 -13.236   1.798  1.00  0.00     0.148 A 
HETATM    7  C   UNL     1      41.713 -12.868   2.033  1.00  0.00     0.088 A 
HETATM    8  C   UNL     1      40.708 -14.448   5.081  1.00  0.00     0.221 C 
HETATM    9  C   UNL     1      41.510 -13.570   6.055  1.00  0.00     0.066 C 
HETATM   10  H   UNL     1      43.877 -12.620   3.807  1.00  0.00     0.161 HD
ENDROOT
BRANCH   6  11
HETATM   11  C   UNL     1      39.572 -12.944   0.589  1.00  0.00     0.272 C 
HETATM   12  N   UNL     1      39.858 -13.780  -0.465  1.00  0.00    -0.353 N 
HETATM   13  H   UNL     1      40.462 -14.570  -0.241  1.00  0.00     0.162 HD
HETATM   14  O   UNL     1      38.718 -12.063   0.548  1.00  0.00    -0.266 OA
BRANCH  12  15
HETATM   15  C   UNL     1      38.994 -13.878  -1.621  1.00  0.00     0.155 C 
BRANCH  15  16
HETATM   16  C   UNL     1      39.479 -12.984  -2.758  1.00  0.00     0.139 C 
HETATM   17  O   UNL     1      38.695 -11.772  -2.816  1.00  0.00    -0.384 OA
HETATM   18  C   UNL     1      39.573 -10.682  -3.137  1.00  0.00     0.168 C 
HETATM   19  C   UNL     1      40.936 -11.276  -3.424  1.00  0.00     0.029 C 
HETATM   20  C   UNL     1      40.919 -12.532  -2.590  1.00  0.00     0.035 C 
ENDBRANCH  15  16
ENDBRANCH  12  15
ENDBRANCH   6  11
BRANCH   8  21
HETATM   21  C   UNL     1      41.144 -15.894   5.101  1.00  0.00     0.409 C 
HETATM   22  F   UNL     1      42.007 -16.191   4.106  1.00  0.00    -0.169 F 
HETATM   23  F   UNL     1      41.710 -16.272   6.266  1.00  0.00    -0.169 F 
HETATM   24  F   UNL     1      40.060 -16.697   4.924  1.00  0.00    -0.169 F 
ENDBRANCH   8  21
BRANCH   1  25
HETATM   25  C   UNL     1      43.591 -12.158   6.304  1.00  0.00    -0.034 A 
HETATM   26  C   UNL     1      44.962 -12.153   6.617  1.00  0.00     0.011 A 
HETATM   27  C   UNL     1      45.539 -11.078   7.297  1.00  0.00     0.026 A 
HETATM   28  C   UNL     1      44.754  -9.991   7.680  1.00  0.00     0.055 A 
HETATM   29  C   UNL     1      43.388  -9.980   7.378  1.00  0.00     0.056 A 
HETATM   30 CL   UNL     1      45.529  -8.698   8.524  1.00  0.00    -0.083 Cl
HETATM   31  C   UNL     1      42.812 -11.058   6.692  1.00  0.00     0.034 A 
HETATM   32 CL   UNL     1      42.353  -8.671   7.826  1.00  0.00    -0.083 Cl
ENDBRANCH   1  25
TORSDOF 5
ENDMDL
MODEL 8
REMARK VINA RESULT:      -8.0      3.821      5.906
REMARK  5 active torsions:
REMARK  status: ('A' for Active; 'I' for Inactive)
REMARK    1  A    between atoms: C_2  and  C_3 
REMARK    2  A    between atoms: C_8  and  C_9 
REMARK       I    between atoms: C_9  and  N_10 
REMARK    3  A    between atoms: N_10  and  C_11 
REMARK    4  A    between atoms: C_11  and  C_12 
REMARK    5  A    between atoms: C_19  and  C_20 
ROOT
HETATM    1  C   UNL     1      41.894 -15.293   4.718  1.00  0.00     0.118 C 
HETATM    2  N   UNL     1      40.926 -15.352   3.624  1.00  0.00    -0.366 N 
HETATM    3  C   UNL     1      40.842 -14.395   2.679  1.00  0.00     0.123 A 
HETATM    4  N   UNL     1      41.490 -13.202   2.822  1.00  0.00    -0.240 N 
HETATM    5  N   UNL     1      41.440 -12.416   1.734  1.00  0.00    -0.165 NA
HETATM    6  C   UNL     1      40.629 -13.099   0.892  1.00  0.00     0.148 A 
HETATM    7  C   UNL     1      40.210 -14.333   1.467  1.00  0.00     0.088 A 
HETATM    8  C   UNL     1      42.303 -12.877   3.977  1.00  0.00     0.221 C 
HETATM    9  C   UNL     1      42.937 -14.173   4.508  1.00  0.00     0.066 C 
HETATM   10  H   UNL     1      40.413 -16.229   3.530  1.00  0.00     0.161 HD
ENDROOT
BRANCH   6  11
HETATM   11  C   UNL     1      40.307 -12.614  -0.459  1.00  0.00     0.272 C 
HETATM   12  N   UNL     1      40.011 -11.272  -0.503  1.00  0.00    -0.353 N 
HETATM   13  H   UNL     1      40.186 -10.760   0.360  1.00  0.00     0.162 HD
HETATM   14  O   UNL     1      40.340 -13.338  -1.450  1.00  0.00    -0.266 OA
BRANCH  12  15
HETATM   15  C   UNL     1      39.983 -10.535  -1.748  1.00  0.00     0.155 C 
BRANCH  15  16
HETATM   16  C   UNL     1      41.334  -9.892  -2.047  1.00  0.00     0.139 C 
HETATM   17  O   UNL     1      41.189  -8.853  -3.040  1.00  0.00    -0.384 OA
HETATM   18  C   UNL     1      42.057  -7.766  -2.686  1.00  0.00     0.168 C 
HETATM   19  C   UNL     1      42.875  -8.218  -1.493  1.00  0.00     0.029 C 
HETATM   20  C   UNL     1      41.956  -9.217  -0.837  1.00  0.00     0.035 C 
ENDBRANCH  15  16
ENDBRANCH  12  15
ENDBRANCH   6  11
BRANCH   8  21
HETATM   21  C   UNL     1      41.472 -12.162   5.016  1.00  0.00     0.409 C 
HETATM   22  F   UNL     1      40.152 -12.415   4.889  1.00  0.00    -0.169 F 
HETATM   23  F   UNL     1      41.828 -12.451   6.285  1.00  0.00    -0.169 F 
HETATM   24  F   UNL     1      41.623 -10.819   4.872  1.00  0.00    -0.169 F 
ENDBRANCH   8  21
BRANCH   1  25
HETATM   25  C   UNL     1      42.571 -16.652   4.833  1.00  0.00    -0.034 A 
HETATM   26  C   UNL     1      42.835 -17.222   6.091  1.00  0.00     0.011 A 
HETATM   27  C   UNL     1      43.467 -18.463   6.198  1.00  0.00     0.026 A 
HETATM   28  C   UNL     1      43.850 -19.154   5.048  1.00  0.00     0.055 A 
HETATM   29  C   UNL     1      43.597 -18.600   3.789  1.00  0.00     0.056 A 
HETATM   30 CL   UNL     1      44.634 -20.680   5.252  1.00  0.00    -0.083 Cl
HETATM   31  C   UNL     1      42.959 -17.356   3.684  1.00  0.00     0.034 A 
HETATM   32 CL   UNL     1      44.049 -19.394   2.322  1.00  0.00    -0.083 Cl
ENDBRANCH   1  25
TORSDOF 5
ENDMDL
MODEL 9
REMARK VINA RESULT:      -8.0      2.606      3.941
REMARK  5 active torsions:
REMARK  status: ('A' for Active; 'I' for Inactive)
REMARK    1  A    between atoms: C_2  and  C_3 
REMARK    2  A    between atoms: C_8  and  C_9 
REMARK       I    between atoms: C_9  and  N_10 
REMARK    3  A    between atoms: N_10  and  C_11 
REMARK    4  A    between atoms: C_11  and  C_12 
REMARK    5  A    between atoms: C_19  and  C_20 
ROOT
HETATM    1  C   UNL     1      42.289 -16.057   2.107  1.00  0.00     0.118 C 
HETATM    2  N   UNL     1      43.117 -14.874   2.336  1.00  0.00    -0.366 N 
HETATM    3  C   UNL     1      42.593 -13.671   2.641  1.00  0.00     0.123 A 
HETATM    4  N   UNL     1      41.255 -13.431   2.519  1.00  0.00    -0.240 N 
HETATM    5  N   UNL     1      40.863 -12.243   3.006  1.00  0.00    -0.165 NA
HETATM    6  C   UNL     1      42.027 -11.651   3.360  1.00  0.00     0.148 A 
HETATM    7  C   UNL     1      43.138 -12.509   3.116  1.00  0.00     0.088 A 
HETATM    8  C   UNL     1      40.311 -14.432   2.062  1.00  0.00     0.221 C 
HETATM    9  C   UNL     1      40.815 -15.816   2.502  1.00  0.00     0.066 C 
HETATM   10  H   UNL     1      44.122 -15.040   2.396  1.00  0.00     0.161 HD
ENDROOT
BRANCH   6  11
HETATM   11  C   UNL     1      42.078 -10.316   3.977  1.00  0.00     0.272 C 
HETATM   12  N   UNL     1      41.402  -9.356   3.261  1.00  0.00    -0.353 N 
HETATM   13  H   UNL     1      40.843  -9.707   2.485  1.00  0.00     0.162 HD
HETATM   14  O   UNL     1      42.639 -10.099   5.047  1.00  0.00    -0.266 OA
BRANCH  12  15
HETATM   15  C   UNL     1      41.056  -8.074   3.836  1.00  0.00     0.155 C 
BRANCH  15  16
HETATM   16  C   UNL     1      39.555  -7.812   3.755  1.00  0.00     0.139 C 
HETATM   17  O   UNL     1      38.862  -8.527   4.801  1.00  0.00    -0.384 OA
HETATM   18  C   UNL     1      37.805  -7.690   5.295  1.00  0.00     0.168 C 
HETATM   19  C   UNL     1      37.763  -6.458   4.415  1.00  0.00     0.029 C 
HETATM   20  C   UNL     1      39.192  -6.351   3.948  1.00  0.00     0.035 C 
ENDBRANCH  15  16
ENDBRANCH  12  15
ENDBRANCH   6  11
BRANCH   8  21
HETATM   21  C   UNL     1      40.121 -14.325   0.567  1.00  0.00     0.409 C 
HETATM   22  F   UNL     1      39.785 -15.503   0.001  1.00  0.00    -0.169 F 
HETATM   23  F   UNL     1      39.195 -13.413   0.205  1.00  0.00    -0.169 F 
HETATM   24  F   UNL     1      41.288 -13.937  -0.012  1.00  0.00    -0.169 F 
ENDBRANCH   8  21
BRANCH   1  25
HETATM   25  C   UNL     1      42.881 -17.217   2.895  1.00  0.00    -0.034 A 
HETATM   26  C   UNL     1      43.308 -18.388   2.244  1.00  0.00     0.011 A 
HETATM   27  C   UNL     1      43.839 -19.458   2.969  1.00  0.00     0.026 A 
HETATM   28  C   UNL     1      43.949 -19.377   4.357  1.00  0.00     0.055 A 
HETATM   29  C   UNL     1      43.527 -18.220   5.020  1.00  0.00     0.056 A 
HETATM   30 CL   UNL     1      44.609 -20.738   5.191  1.00  0.00    -0.083 Cl
HETATM   31  C   UNL     1      42.997 -17.146   4.291  1.00  0.00     0.034 A 
HETATM   32 CL   UNL     1      43.626 -18.051   6.737  1.00  0.00    -0.083 Cl
ENDBRANCH   1  25
TORSDOF 5
ENDMDL
MODEL 10
REMARK VINA RESULT:      -7.8      5.785      8.056
REMARK  5 active torsions:
REMARK  status: ('A' for Active; 'I' for Inactive)
REMARK    1  A    between atoms: C_2  and  C_3 
REMARK    2  A    between atoms: C_8  and  C_9 
REMARK       I    between atoms: C_9  and  N_10 
REMARK    3  A    between atoms: N_10  and  C_11 
REMARK    4  A    between atoms: C_11  and  C_12 
REMARK    5  A    between atoms: C_19  and  C_20 
ROOT
HETATM    1  C   UNL     1      40.012 -11.493  -1.911  1.00  0.00     0.118 C 
HETATM    2  N   UNL     1      39.789 -11.635  -0.474  1.00  0.00    -0.366 N 
HETATM    3  C   UNL     1      39.974 -12.800   0.177  1.00  0.00     0.123 A 
HETATM    4  N   UNL     1      40.148 -13.970  -0.504  1.00  0.00    -0.240 N 
HETATM    5  N   UNL     1      40.475 -15.015   0.273  1.00  0.00    -0.165 NA
HETATM    6  C   UNL     1      40.402 -14.507   1.526  1.00  0.00     0.148 A 
HETATM    7  C   UNL     1      40.059 -13.125   1.503  1.00  0.00     0.088 A 
HETATM    8  C   UNL     1      40.149 -14.049  -1.952  1.00  0.00     0.221 C 
HETATM    9  C   UNL     1      40.711 -12.734  -2.514  1.00  0.00     0.066 C 
HETATM   10  H   UNL     1      39.625 -10.768   0.038  1.00  0.00     0.161 HD
ENDROOT
BRANCH   6  11
HETATM   11  C   UNL     1      40.712 -15.308   2.720  1.00  0.00     0.272 C 
HETATM   12  N   UNL     1      40.432 -14.660   3.901  1.00  0.00    -0.353 N 
HETATM   13  H   UNL     1      39.924 -13.783   3.805  1.00  0.00     0.162 HD
HETATM   14  O   UNL     1      41.141 -16.456   2.658  1.00  0.00    -0.266 OA
BRANCH  12  15
HETATM   15  C   UNL     1      40.357 -15.366   5.162  1.00  0.00     0.155 C 
BRANCH  15  16
HETATM   16  C   UNL     1      41.236 -14.709   6.223  1.00  0.00     0.139 C 
HETATM   17  O   UNL     1      41.640 -15.680   7.213  1.00  0.00    -0.384 OA
HETATM   18  C   UNL     1      43.001 -15.407   7.581  1.00  0.00     0.168 C 
HETATM   19  C   UNL     1      43.404 -14.125   6.884  1.00  0.00     0.029 C 
HETATM   20  C   UNL     1      42.524 -14.138   5.660  1.00  0.00     0.035 C 
ENDBRANCH  15  16
ENDBRANCH  12  15
ENDBRANCH   6  11
BRANCH   8  21
HETATM   21  C   UNL     1      38.759 -14.357  -2.458  1.00  0.00     0.409 C 
HETATM   22  F   UNL     1      38.489 -15.680  -2.461  1.00  0.00    -0.169 F 
HETATM   23  F   UNL     1      37.782 -13.737  -1.763  1.00  0.00    -0.169 F 
HETATM   24  F   UNL     1      38.641 -13.935  -3.745  1.00  0.00    -0.169 F 
ENDBRANCH   8  21
BRANCH   1  25
HETATM   25  C   UNL     1      40.838 -10.236  -2.147  1.00  0.00    -0.034 A 
HETATM   26  C   UNL     1      41.732  -9.766  -1.169  1.00  0.00     0.011 A 
HETATM   27  C   UNL     1      42.480  -8.605  -1.380  1.00  0.00     0.026 A 
HETATM   28  C   UNL     1      42.345  -7.893  -2.572  1.00  0.00     0.055 A 
HETATM   29  C   UNL     1      41.459  -8.346  -3.554  1.00  0.00     0.056 A 
HETATM   30 CL   UNL     1      43.294  -6.463  -2.765  1.00  0.00    -0.083 Cl
HETATM   31  C   UNL     1      40.711  -9.513  -3.342  1.00  0.00     0.034 A 
HETATM   32 CL   UNL     1      41.233  -7.513  -5.051  1.00  0.00    -0.083 Cl
ENDBRANCH   1  25
TORSDOF 5
ENDMDL
