MODEL 1
REMARK VINA RESULT:      -9.2      0.000      0.000
REMARK  9 active torsions:
REMARK  status: ('A' for Active; 'I' for Inactive)
REMARK    1  A    between atoms: C_6  and  C_7 
REMARK    2  A    between atoms: C_7  and  C_8 
REMARK       I    between atoms: C_8  and  N_9 
REMARK    3  A    between atoms: N_9  and  C_10 
REMARK    4  A    between atoms: C_10  and  C_11 
REMARK    5  A    between atoms: C_11  and  N_12 
REMARK    6  A    between atoms: C_20  and  C_21 
REMARK    7  A    between atoms: C_24  and  C_25 
REMARK    8  A    between atoms: C_32  and  C_33 
REMARK    9  A    between atoms: C_33  and  O_34 
ROOT
HETATM    1  C   UNL     1      41.718 -10.528   1.869  1.00  0.00     0.071 C 
HETATM    2  C   UNL     1      42.490 -11.605   2.590  1.00  0.00     0.048 C 
HETATM    3  N   UNL     1      43.548 -11.127   3.380  1.00  0.00    -0.229 NA
HETATM    4  C   UNL     1      43.853 -11.817   4.437  1.00  0.00     0.170 C 
HETATM    5  N   UNL     1      43.174 -13.225   4.751  1.00  0.00    -0.319 N 
HETATM    6  C   UNL     1      42.594 -12.961   5.889  1.00  0.00     0.011 C 
HETATM    7  C   UNL     1      42.958 -13.828   3.420  1.00  0.00     0.166 C 
HETATM    8  S   UNL     1      44.617 -11.193   5.866  1.00  0.00    -0.086 SA
HETATM    9  C   UNL     1      43.615 -12.387   6.876  1.00  0.00     0.135 C 
HETATM   10  C   UNL     1      42.112 -12.905   2.624  1.00  0.00     0.069 C 
ENDROOT
BRANCH   6  11
HETATM   11  C   UNL     1      41.159 -12.499   5.906  1.00  0.00     0.156 C 
BRANCH  11  12
HETATM   12  C   UNL     1      40.810 -11.050   6.093  1.00  0.00     0.223 C 
HETATM   13  N   UNL     1      40.701 -10.679   7.408  1.00  0.00    -0.359 N 
HETATM   14  H   UNL     1      41.063 -11.328   8.116  1.00  0.00     0.162 HD
HETATM   15  O   UNL     1      40.520 -10.320   5.147  1.00  0.00    -0.273 OA
BRANCH  13  16
HETATM   16  C   UNL     1      39.911  -9.588   7.983  1.00  0.00     0.150 C 
BRANCH  16  17
HETATM   17  C   UNL     1      39.813  -9.419   9.510  1.00  0.00     0.254 C 
BRANCH  17  18
HETATM   18  N   UNL     1      41.130  -9.568  10.251  1.00  0.00    -0.070 N 
HETATM   19  H   UNL     1      41.498 -10.496   9.957  1.00  0.00     0.279 HD
HETATM   20  C   UNL     1      42.170  -8.522   9.926  1.00  0.00     0.235 C 
HETATM   21  C   UNL     1      43.469  -8.834  10.657  1.00  0.00     0.028 C 
HETATM   22  C   UNL     1      43.259  -8.956  12.160  1.00  0.00     0.003 C 
HETATM   23  C   UNL     1      42.172  -9.975  12.473  1.00  0.00     0.028 C 
HETATM   24  C   UNL     1      40.878  -9.656  11.743  1.00  0.00     0.235 C 
ENDBRANCH  17  18
ENDBRANCH  16  17
ENDBRANCH  13  16
ENDBRANCH  11  12
ENDBRANCH   6  11
BRANCH   7  25
HETATM   25  C   UNL     1      42.887 -15.338   3.279  1.00  0.00    -0.030 A 
HETATM   26  C   UNL     1      42.801 -16.225   4.361  1.00  0.00     0.010 A 
HETATM   27  C   UNL     1      43.112 -17.586   4.192  1.00  0.00     0.008 A 
HETATM   28  C   UNL     1      43.512 -18.099   2.949  1.00  0.00    -0.055 A 
HETATM   29  C   UNL     1      43.502 -17.239   1.851  1.00  0.00     0.008 A 
HETATM   30  C   UNL     1      43.213 -15.884   2.018  1.00  0.00     0.010 A 
BRANCH  28  31
HETATM   31  C   UNL     1      43.989 -19.539   2.823  1.00  0.00     0.010 C 
HETATM   32  C   UNL     1      43.997 -20.239   4.181  1.00  0.00     0.015 C 
HETATM   33  C   UNL     1      43.167 -20.351   1.810  1.00  0.00     0.015 C 
ENDBRANCH  28  31
ENDBRANCH   7  25
BRANCH  10  34
HETATM   34  C   UNL     1      40.767 -13.370   2.262  1.00  0.00     0.293 C 
HETATM   35  O   UNL     1      39.979 -13.715   3.134  1.00  0.00    -0.259 OA
BRANCH  34  36
HETATM   36  O   UNL     1      40.629 -13.483   0.931  1.00  0.00    -0.323 OA
HETATM   37  C   UNL     1      40.260 -14.797   0.490  1.00  0.00     0.213 C 
ENDBRANCH  34  36
ENDBRANCH  10  34
TORSDOF 9
ENDMDL
MODEL 2
REMARK VINA RESULT:      -8.7      2.494      3.912
REMARK  9 active torsions:
REMARK  status: ('A' for Active; 'I' for Inactive)
REMARK    1  A    between atoms: C_6  and  C_7 
REMARK    2  A    between atoms: C_7  and  C_8 
REMARK       I    between atoms: C_8  and  N_9 
REMARK    3  A    between atoms: N_9  and  C_10 
REMARK    4  A    between atoms: C_10  and  C_11 
REMARK    5  A    between atoms: C_11  and  N_12 
REMARK    6  A    between atoms: C_20  and  C_21 
REMARK    7  A    between atoms: C_24  and  C_25 
REMARK    8  A    between atoms: C_32  and  C_33 
REMARK    9  A    between atoms: C_33  and  O_34 
ROOT
HETATM    1  C   UNL     1      38.890 -11.779   6.502  1.00  0.00     0.071 C 
HETATM    2  C   UNL     1      39.361 -12.143   5.116  1.00  0.00     0.048 C 
HETATM    3  N   UNL     1      38.955 -11.246   4.114  1.00  0.00    -0.229 NA
HETATM    4  C   UNL     1      39.742 -11.110   3.091  1.00  0.00     0.170 C 
HETATM    5  N   UNL     1      41.033 -12.025   2.890  1.00  0.00    -0.319 N 
HETATM    6  C   UNL     1      41.971 -11.119   2.909  1.00  0.00     0.011 C 
HETATM    7  C   UNL     1      40.637 -13.335   3.443  1.00  0.00     0.166 C 
HETATM    8  S   UNL     1      39.844  -9.706   2.074  1.00  0.00    -0.086 SA
HETATM    9  C   UNL     1      41.664 -10.026   1.881  1.00  0.00     0.135 C 
HETATM   10  C   UNL     1      40.239 -13.141   4.859  1.00  0.00     0.069 C 
ENDROOT
BRANCH   6  11
HETATM   11  C   UNL     1      42.664 -10.787   4.206  1.00  0.00     0.156 C 
BRANCH  11  12
HETATM   12  C   UNL     1      44.040 -11.307   4.508  1.00  0.00     0.223 C 
HETATM   13  N   UNL     1      44.311 -11.389   5.849  1.00  0.00    -0.359 N 
HETATM   14  H   UNL     1      43.522 -11.304   6.499  1.00  0.00     0.162 HD
HETATM   15  O   UNL     1      44.873 -11.504   3.626  1.00  0.00    -0.273 OA
BRANCH  13  16
HETATM   16  C   UNL     1      45.612 -11.332   6.520  1.00  0.00     0.150 C 
BRANCH  16  17
HETATM   17  C   UNL     1      45.937 -10.184   7.492  1.00  0.00     0.254 C 
BRANCH  17  18
HETATM   18  N   UNL     1      44.868  -9.914   8.537  1.00  0.00    -0.070 N 
HETATM   19  H   UNL     1      44.084 -10.550   8.285  1.00  0.00     0.279 HD
HETATM   20  C   UNL     1      45.277 -10.208   9.960  1.00  0.00     0.235 C 
HETATM   21  C   UNL     1      44.096  -9.988  10.897  1.00  0.00     0.028 C 
HETATM   22  C   UNL     1      43.520  -8.585  10.765  1.00  0.00     0.003 C 
HETATM   23  C   UNL     1      43.161  -8.282   9.316  1.00  0.00     0.028 C 
HETATM   24  C   UNL     1      44.345  -8.500   8.389  1.00  0.00     0.235 C 
ENDBRANCH  17  18
ENDBRANCH  16  17
ENDBRANCH  13  16
ENDBRANCH  11  12
ENDBRANCH   6  11
BRANCH   7  25
HETATM   25  C   UNL     1      41.314 -14.599   2.945  1.00  0.00    -0.030 A 
HETATM   26  C   UNL     1      40.697 -15.857   2.902  1.00  0.00     0.010 A 
HETATM   27  C   UNL     1      41.471 -17.026   2.792  1.00  0.00     0.008 A 
HETATM   28  C   UNL     1      42.871 -16.976   2.718  1.00  0.00    -0.055 A 
HETATM   29  C   UNL     1      43.480 -15.723   2.658  1.00  0.00     0.008 A 
HETATM   30  C   UNL     1      42.718 -14.561   2.788  1.00  0.00     0.010 A 
BRANCH  28  31
HETATM   31  C   UNL     1      43.695 -18.256   2.751  1.00  0.00     0.010 C 
HETATM   32  C   UNL     1      44.161 -18.577   4.170  1.00  0.00     0.015 C 
HETATM   33  C   UNL     1      42.950 -19.457   2.149  1.00  0.00     0.015 C 
ENDBRANCH  28  31
ENDBRANCH   7  25
BRANCH  10  34
HETATM   34  C   UNL     1      41.083 -13.766   5.886  1.00  0.00     0.293 C 
HETATM   35  O   UNL     1      42.183 -13.296   6.149  1.00  0.00    -0.259 OA
BRANCH  34  36
HETATM   36  O   UNL     1      40.548 -14.916   6.327  1.00  0.00    -0.323 OA
HETATM   37  C   UNL     1      41.505 -15.962   6.543  1.00  0.00     0.213 C 
ENDBRANCH  34  36
ENDBRANCH  10  34
TORSDOF 9
ENDMDL
MODEL 3
REMARK VINA RESULT:      -8.6      2.557      4.975
REMARK  9 active torsions:
REMARK  status: ('A' for Active; 'I' for Inactive)
REMARK    1  A    between atoms: C_6  and  C_7 
REMARK    2  A    between atoms: C_7  and  C_8 
REMARK       I    between atoms: C_8  and  N_9 
REMARK    3  A    between atoms: N_9  and  C_10 
REMARK    4  A    between atoms: C_10  and  C_11 
REMARK    5  A    between atoms: C_11  and  N_12 
REMARK    6  A    between atoms: C_20  and  C_21 
REMARK    7  A    between atoms: C_24  and  C_25 
REMARK    8  A    between atoms: C_32  and  C_33 
REMARK    9  A    between atoms: C_33  and  O_34 
ROOT
HETATM    1  C   UNL     1      41.382 -16.092   6.739  1.00  0.00     0.071 C 
HETATM    2  C   UNL     1      40.911 -15.089   5.715  1.00  0.00     0.048 C 
HETATM    3  N   UNL     1      40.178 -14.018   6.251  1.00  0.00    -0.229 NA
HETATM    4  C   UNL     1      40.256 -12.881   5.629  1.00  0.00     0.170 C 
HETATM    5  N   UNL     1      41.017 -12.731   4.235  1.00  0.00    -0.319 N 
HETATM    6  C   UNL     1      41.944 -11.875   4.562  1.00  0.00     0.011 C 
HETATM    7  C   UNL     1      40.776 -14.017   3.552  1.00  0.00     0.166 C 
HETATM    8  S   UNL     1      40.015 -11.318   6.346  1.00  0.00    -0.086 SA
HETATM    9  C   UNL     1      41.312 -10.637   5.204  1.00  0.00     0.135 C 
HETATM   10  C   UNL     1      41.292 -15.107   4.416  1.00  0.00     0.069 C 
ENDROOT
BRANCH   6  11
HETATM   11  C   UNL     1      43.296 -12.372   5.009  1.00  0.00     0.156 C 
BRANCH  11  12
HETATM   12  C   UNL     1      43.784 -12.145   6.412  1.00  0.00     0.223 C 
HETATM   13  N   UNL     1      44.680 -11.114   6.518  1.00  0.00    -0.359 N 
HETATM   14  H   UNL     1      44.769 -10.477   5.718  1.00  0.00     0.162 HD
HETATM   15  O   UNL     1      43.501 -12.907   7.333  1.00  0.00    -0.273 OA
BRANCH  13  16
HETATM   16  C   UNL     1      45.728 -10.919   7.522  1.00  0.00     0.150 C 
BRANCH  16  17
HETATM   17  C   UNL     1      46.151  -9.500   7.941  1.00  0.00     0.254 C 
BRANCH  17  18
HETATM   18  N   UNL     1      45.285  -8.869   9.016  1.00  0.00    -0.070 N 
HETATM   19  H   UNL     1      45.916  -8.209   9.513  1.00  0.00     0.279 HD
HETATM   20  C   UNL     1      44.095  -8.092   8.505  1.00  0.00     0.235 C 
HETATM   21  C   UNL     1      43.364  -7.434   9.667  1.00  0.00     0.028 C 
HETATM   22  C   UNL     1      42.949  -8.448  10.724  1.00  0.00     0.003 C 
HETATM   23  C   UNL     1      44.148  -9.261  11.194  1.00  0.00     0.028 C 
HETATM   24  C   UNL     1      44.870  -9.918  10.028  1.00  0.00     0.235 C 
ENDBRANCH  17  18
ENDBRANCH  16  17
ENDBRANCH  13  16
ENDBRANCH  11  12
ENDBRANCH   6  11
BRANCH   7  25
HETATM   25  C   UNL     1      40.811 -14.083   2.035  1.00  0.00    -0.030 A 
HETATM   26  C   UNL     1      41.261 -13.040   1.213  1.00  0.00     0.010 A 
HETATM   27  C   UNL     1      40.925 -13.014  -0.152  1.00  0.00     0.008 A 
HETATM   28  C   UNL     1      40.138 -14.020  -0.734  1.00  0.00    -0.055 A 
HETATM   29  C   UNL     1      39.774 -15.107   0.058  1.00  0.00     0.008 A 
HETATM   30  C   UNL     1      40.088 -15.128   1.417  1.00  0.00     0.010 A 
BRANCH  28  31
HETATM   31  C   UNL     1      39.662 -13.893  -2.174  1.00  0.00     0.010 C 
HETATM   32  C   UNL     1      38.172 -13.557  -2.236  1.00  0.00     0.015 C 
HETATM   33  C   UNL     1      40.473 -12.867  -2.981  1.00  0.00     0.015 C 
ENDBRANCH  28  31
ENDBRANCH   7  25
BRANCH  10  34
HETATM   34  C   UNL     1      42.440 -15.875   3.916  1.00  0.00     0.293 C 
HETATM   35  O   UNL     1      43.545 -15.352   3.841  1.00  0.00    -0.259 OA
BRANCH  34  36
HETATM   36  O   UNL     1      42.062 -17.079   3.458  1.00  0.00    -0.323 OA
HETATM   37  C   UNL     1      43.131 -17.854   2.899  1.00  0.00     0.213 C 
ENDBRANCH  34  36
ENDBRANCH  10  34
TORSDOF 9
ENDMDL
MODEL 4
REMARK VINA RESULT:      -8.4      2.377      3.436
REMARK  9 active torsions:
REMARK  status: ('A' for Active; 'I' for Inactive)
REMARK    1  A    between atoms: C_6  and  C_7 
REMARK    2  A    between atoms: C_7  and  C_8 
REMARK       I    between atoms: C_8  and  N_9 
REMARK    3  A    between atoms: N_9  and  C_10 
REMARK    4  A    between atoms: C_10  and  C_11 
REMARK    5  A    between atoms: C_11  and  N_12 
REMARK    6  A    between atoms: C_20  and  C_21 
REMARK    7  A    between atoms: C_24  and  C_25 
REMARK    8  A    between atoms: C_32  and  C_33 
REMARK    9  A    between atoms: C_33  and  O_34 
ROOT
HETATM    1  C   UNL     1      39.324 -13.247   6.433  1.00  0.00     0.071 C 
HETATM    2  C   UNL     1      40.290 -13.449   5.293  1.00  0.00     0.048 C 
HETATM    3  N   UNL     1      40.419 -12.340   4.441  1.00  0.00    -0.229 NA
HETATM    4  C   UNL     1      41.568 -12.174   3.860  1.00  0.00     0.170 C 
HETATM    5  N   UNL     1      42.735 -13.255   3.972  1.00  0.00    -0.319 N 
HETATM    6  C   UNL     1      43.662 -12.546   4.554  1.00  0.00     0.011 C 
HETATM    7  C   UNL     1      42.026 -14.549   4.019  1.00  0.00     0.166 C 
HETATM    8  S   UNL     1      42.212 -10.659   3.306  1.00  0.00    -0.086 SA
HETATM    9  C   UNL     1      43.910 -11.258   3.763  1.00  0.00     0.135 C 
HETATM   10  C   UNL     1      41.098 -14.529   5.176  1.00  0.00     0.069 C 
ENDROOT
BRANCH   6  11
HETATM   11  C   UNL     1      43.783 -12.564   6.057  1.00  0.00     0.156 C 
BRANCH  11  12
HETATM   12  C   UNL     1      43.951 -11.293   6.840  1.00  0.00     0.223 C 
HETATM   13  N   UNL     1      45.221 -11.109   7.319  1.00  0.00    -0.359 N 
HETATM   14  H   UNL     1      45.963 -11.708   6.938  1.00  0.00     0.162 HD
HETATM   15  O   UNL     1      42.998 -10.572   7.127  1.00  0.00    -0.273 OA
BRANCH  13  16
HETATM   16  C   UNL     1      45.650 -10.342   8.490  1.00  0.00     0.150 C 
BRANCH  16  17
HETATM   17  C   UNL     1      44.794  -9.174   9.011  1.00  0.00     0.254 C 
BRANCH  17  18
HETATM   18  N   UNL     1      44.347  -9.309  10.456  1.00  0.00    -0.070 N 
HETATM   19  H   UNL     1      45.230  -9.325  11.007  1.00  0.00     0.279 HD
HETATM   20  C   UNL     1      43.491  -8.176  10.969  1.00  0.00     0.235 C 
HETATM   21  C   UNL     1      43.188  -8.380  12.448  1.00  0.00     0.028 C 
HETATM   22  C   UNL     1      42.536  -9.730  12.713  1.00  0.00     0.003 C 
HETATM   23  C   UNL     1      43.384 -10.860  12.145  1.00  0.00     0.028 C 
HETATM   24  C   UNL     1      43.678 -10.652  10.669  1.00  0.00     0.235 C 
ENDBRANCH  17  18
ENDBRANCH  16  17
ENDBRANCH  13  16
ENDBRANCH  11  12
ENDBRANCH   6  11
BRANCH   7  25
HETATM   25  C   UNL     1      42.728 -15.811   3.549  1.00  0.00    -0.030 A 
HETATM   26  C   UNL     1      42.266 -16.626   2.506  1.00  0.00     0.010 A 
HETATM   27  C   UNL     1      42.736 -17.944   2.370  1.00  0.00     0.008 A 
HETATM   28  C   UNL     1      43.675 -18.484   3.262  1.00  0.00    -0.055 A 
HETATM   29  C   UNL     1      44.210 -17.644   4.238  1.00  0.00     0.008 A 
HETATM   30  C   UNL     1      43.733 -16.342   4.388  1.00  0.00     0.010 A 
BRANCH  28  31
HETATM   31  C   UNL     1      44.056 -19.956   3.187  1.00  0.00     0.010 C 
HETATM   32  C   UNL     1      43.690 -20.687   4.478  1.00  0.00     0.015 C 
HETATM   33  C   UNL     1      43.436 -20.670   1.976  1.00  0.00     0.015 C 
ENDBRANCH  28  31
ENDBRANCH   7  25
BRANCH  10  34
HETATM   34  C   UNL     1      41.379 -15.457   6.279  1.00  0.00     0.293 C 
HETATM   35  O   UNL     1      40.793 -16.530   6.347  1.00  0.00    -0.259 OA
BRANCH  34  36
HETATM   36  O   UNL     1      42.198 -14.904   7.188  1.00  0.00    -0.323 OA
HETATM   37  C   UNL     1      43.001 -15.851   7.907  1.00  0.00     0.213 C 
ENDBRANCH  34  36
ENDBRANCH  10  34
TORSDOF 9
ENDMDL
MODEL 5
REMARK VINA RESULT:      -8.0      2.842      8.572
REMARK  9 active torsions:
REMARK  status: ('A' for Active; 'I' for Inactive)
REMARK    1  A    between atoms: C_6  and  C_7 
REMARK    2  A    between atoms: C_7  and  C_8 
REMARK       I    between atoms: C_8  and  N_9 
REMARK    3  A    between atoms: N_9  and  C_10 
REMARK    4  A    between atoms: C_10  and  C_11 
REMARK    5  A    between atoms: C_11  and  N_12 
REMARK    6  A    between atoms: C_20  and  C_21 
REMARK    7  A    between atoms: C_24  and  C_25 
REMARK    8  A    between atoms: C_32  and  C_33 
REMARK    9  A    between atoms: C_33  and  O_34 
ROOT
HETATM    1  C   UNL     1      42.942 -15.196   3.175  1.00  0.00     0.071 C 
HETATM    2  C   UNL     1      43.087 -13.724   3.471  1.00  0.00     0.048 C 
HETATM    3  N   UNL     1      42.971 -12.894   2.344  1.00  0.00    -0.229 NA
HETATM    4  C   UNL     1      42.490 -11.704   2.536  1.00  0.00     0.170 C 
HETATM    5  N   UNL     1      42.189 -11.140   3.998  1.00  0.00    -0.319 N 
HETATM    6  C   UNL     1      40.903 -10.938   3.913  1.00  0.00     0.011 C 
HETATM    7  C   UNL     1      43.243 -11.737   4.841  1.00  0.00     0.166 C 
HETATM    8  S   UNL     1      41.671 -10.740   1.347  1.00  0.00    -0.086 SA
HETATM    9  C   UNL     1      40.589 -10.063   2.696  1.00  0.00     0.135 C 
HETATM   10  C   UNL     1      43.152 -13.214   4.723  1.00  0.00     0.069 C 
ENDROOT
BRANCH   6  11
HETATM   11  C   UNL     1      39.946 -12.015   4.358  1.00  0.00     0.156 C 
BRANCH  11  12
HETATM   12  C   UNL     1      39.199 -12.852   3.359  1.00  0.00     0.223 C 
HETATM   13  N   UNL     1      39.767 -14.079   3.140  1.00  0.00    -0.359 N 
HETATM   14  H   UNL     1      40.487 -14.394   3.800  1.00  0.00     0.162 HD
HETATM   15  O   UNL     1      38.252 -12.408   2.712  1.00  0.00    -0.273 OA
BRANCH  13  16
HETATM   16  C   UNL     1      39.680 -14.923   1.946  1.00  0.00     0.150 C 
BRANCH  16  17
HETATM   17  C   UNL     1      40.243 -14.428   0.601  1.00  0.00     0.254 C 
BRANCH  17  18
HETATM   18  N   UNL     1      39.192 -14.055  -0.429  1.00  0.00    -0.070 N 
HETATM   19  H   UNL     1      38.317 -14.508  -0.094  1.00  0.00     0.279 HD
HETATM   20  C   UNL     1      38.933 -12.574  -0.570  1.00  0.00     0.235 C 
HETATM   21  C   UNL     1      37.799 -12.336  -1.559  1.00  0.00     0.028 C 
HETATM   22  C   UNL     1      38.080 -12.979  -2.910  1.00  0.00     0.003 C 
HETATM   23  C   UNL     1      38.391 -14.461  -2.749  1.00  0.00     0.028 C 
HETATM   24  C   UNL     1      39.525 -14.690  -1.764  1.00  0.00     0.235 C 
ENDBRANCH  17  18
ENDBRANCH  16  17
ENDBRANCH  13  16
ENDBRANCH  11  12
ENDBRANCH   6  11
BRANCH   7  25
HETATM   25  C   UNL     1      43.674 -11.038   6.118  1.00  0.00    -0.030 A 
HETATM   26  C   UNL     1      44.912 -11.237   6.744  1.00  0.00     0.010 A 
HETATM   27  C   UNL     1      45.099 -10.863   8.087  1.00  0.00     0.008 A 
HETATM   28  C   UNL     1      44.066 -10.280   8.837  1.00  0.00    -0.055 A 
HETATM   29  C   UNL     1      42.867  -9.990   8.188  1.00  0.00     0.008 A 
HETATM   30  C   UNL     1      42.670 -10.378   6.862  1.00  0.00     0.010 A 
BRANCH  28  31
HETATM   31  C   UNL     1      44.242 -10.022  10.327  1.00  0.00     0.010 C 
HETATM   32  C   UNL     1      45.669  -9.577  10.646  1.00  0.00     0.015 C 
HETATM   33  C   UNL     1      43.231  -9.006  10.879  1.00  0.00     0.015 C 
ENDBRANCH  28  31
ENDBRANCH   7  25
BRANCH  10  34
HETATM   34  C   UNL     1      42.765 -13.960   5.928  1.00  0.00     0.293 C 
HETATM   35  O   UNL     1      43.619 -14.516   6.608  1.00  0.00    -0.259 OA
BRANCH  34  36
HETATM   36  O   UNL     1      41.430 -14.042   6.046  1.00  0.00    -0.323 OA
HETATM   37  C   UNL     1      40.958 -15.330   6.462  1.00  0.00     0.213 C 
ENDBRANCH  34  36
ENDBRANCH  10  34
TORSDOF 9
ENDMDL
MODEL 6
REMARK VINA RESULT:      -7.7      4.860      7.159
REMARK  9 active torsions:
REMARK  status: ('A' for Active; 'I' for Inactive)
REMARK    1  A    between atoms: C_6  and  C_7 
REMARK    2  A    between atoms: C_7  and  C_8 
REMARK       I    between atoms: C_8  and  N_9 
REMARK    3  A    between atoms: N_9  and  C_10 
REMARK    4  A    between atoms: C_10  and  C_11 
REMARK    5  A    between atoms: C_11  and  N_12 
REMARK    6  A    between atoms: C_20  and  C_21 
REMARK    7  A    between atoms: C_24  and  C_25 
REMARK    8  A    between atoms: C_32  and  C_33 
REMARK    9  A    between atoms: C_33  and  O_34 
ROOT
HETATM    1  C   UNL     1      37.224 -10.791   1.258  1.00  0.00     0.071 C 
HETATM    2  C   UNL     1      38.180 -11.839   0.744  1.00  0.00     0.048 C 
HETATM    3  N   UNL     1      38.057 -12.109  -0.629  1.00  0.00    -0.229 NA
HETATM    4  C   UNL     1      39.132 -12.482  -1.255  1.00  0.00     0.170 C 
HETATM    5  N   UNL     1      40.497 -12.777  -0.485  1.00  0.00    -0.319 N 
HETATM    6  C   UNL     1      41.275 -11.884  -1.031  1.00  0.00     0.011 C 
HETATM    7  C   UNL     1      40.069 -13.347   0.807  1.00  0.00     0.166 C 
HETATM    8  S   UNL     1      39.438 -12.274  -2.951  1.00  0.00    -0.086 SA
HETATM    9  C   UNL     1      41.234 -12.014  -2.556  1.00  0.00     0.135 C 
HETATM   10  C   UNL     1      39.187 -12.362   1.481  1.00  0.00     0.069 C 
ENDROOT
BRANCH   6  11
HETATM   11  C   UNL     1      41.439 -10.536  -0.375  1.00  0.00     0.156 C 
BRANCH  11  12
HETATM   12  C   UNL     1      41.061  -9.270  -1.092  1.00  0.00     0.223 C 
HETATM   13  N   UNL     1      42.123  -8.645  -1.692  1.00  0.00    -0.359 N 
HETATM   14  H   UNL     1      42.996  -9.176  -1.786  1.00  0.00     0.162 HD
HETATM   15  O   UNL     1      39.932  -8.790  -1.020  1.00  0.00    -0.273 OA
BRANCH  13  16
HETATM   16  C   UNL     1      42.281  -7.223  -2.007  1.00  0.00     0.150 C 
BRANCH  16  17
HETATM   17  C   UNL     1      43.487  -6.436  -1.463  1.00  0.00     0.254 C 
BRANCH  17  18
HETATM   18  N   UNL     1      43.321  -5.919  -0.045  1.00  0.00    -0.070 N 
HETATM   19  H   UNL     1      43.534  -6.735   0.563  1.00  0.00     0.279 HD
HETATM   20  C   UNL     1      44.248  -4.790   0.336  1.00  0.00     0.235 C 
HETATM   21  C   UNL     1      44.050  -4.426   1.802  1.00  0.00     0.028 C 
HETATM   22  C   UNL     1      42.600  -4.078   2.109  1.00  0.00     0.003 C 
HETATM   23  C   UNL     1      41.670  -5.201   1.672  1.00  0.00     0.028 C 
HETATM   24  C   UNL     1      41.871  -5.556   0.208  1.00  0.00     0.235 C 
ENDBRANCH  17  18
ENDBRANCH  16  17
ENDBRANCH  13  16
ENDBRANCH  11  12
ENDBRANCH   6  11
BRANCH   7  25
HETATM   25  C   UNL     1      41.000 -14.274   1.568  1.00  0.00    -0.030 A 
HETATM   26  C   UNL     1      42.395 -14.143   1.589  1.00  0.00     0.010 A 
HETATM   27  C   UNL     1      43.206 -15.221   1.986  1.00  0.00     0.008 A 
HETATM   28  C   UNL     1      42.654 -16.451   2.375  1.00  0.00    -0.055 A 
HETATM   29  C   UNL     1      41.266 -16.551   2.450  1.00  0.00     0.008 A 
HETATM   30  C   UNL     1      40.457 -15.491   2.038  1.00  0.00     0.010 A 
BRANCH  28  31
HETATM   31  C   UNL     1      43.552 -17.648   2.655  1.00  0.00     0.010 C 
HETATM   32  C   UNL     1      43.888 -17.750   4.143  1.00  0.00     0.015 C 
HETATM   33  C   UNL     1      42.954 -18.971   2.152  1.00  0.00     0.015 C 
ENDBRANCH  28  31
ENDBRANCH   7  25
BRANCH  10  34
HETATM   34  C   UNL     1      39.683 -11.759   2.725  1.00  0.00     0.293 C 
HETATM   35  O   UNL     1      40.553 -10.899   2.689  1.00  0.00    -0.259 OA
BRANCH  34  36
HETATM   36  O   UNL     1      39.170 -12.372   3.805  1.00  0.00    -0.323 OA
HETATM   37  C   UNL     1      40.134 -12.665   4.825  1.00  0.00     0.213 C 
ENDBRANCH  34  36
ENDBRANCH  10  34
TORSDOF 9
ENDMDL
MODEL 7
REMARK VINA RESULT:      -7.7      4.099      7.710
REMARK  9 active torsions:
REMARK  status: ('A' for Active; 'I' for Inactive)
REMARK    1  A    between atoms: C_6  and  C_7 
REMARK    2  A    between atoms: C_7  and  C_8 
REMARK       I    between atoms: C_8  and  N_9 
REMARK    3  A    between atoms: N_9  and  C_10 
REMARK    4  A    between atoms: C_10  and  C_11 
REMARK    5  A    between atoms: C_11  and  N_12 
REMARK    6  A    between atoms: C_20  and  C_21 
REMARK    7  A    between atoms: C_24  and  C_25 
REMARK    8  A    between atoms: C_32  and  C_33 
REMARK    9  A    between atoms: C_33  and  O_34 
ROOT
HETATM    1  C   UNL     1      39.648 -10.601   4.949  1.00  0.00     0.071 C 
HETATM    2  C   UNL     1      39.527 -11.642   3.864  1.00  0.00     0.048 C 
HETATM    3  N   UNL     1      38.489 -11.403   2.948  1.00  0.00    -0.229 NA
HETATM    4  C   UNL     1      38.665 -11.829   1.734  1.00  0.00     0.170 C 
HETATM    5  N   UNL     1      39.922 -12.723   1.327  1.00  0.00    -0.319 N 
HETATM    6  C   UNL     1      40.485 -11.949   0.441  1.00  0.00     0.011 C 
HETATM    7  C   UNL     1      40.186 -13.544   2.525  1.00  0.00     0.166 C 
HETATM    8  S   UNL     1      37.917 -11.170   0.312  1.00  0.00    -0.086 SA
HETATM    9  C   UNL     1      39.468 -11.556  -0.635  1.00  0.00     0.135 C 
HETATM   10  C   UNL     1      40.428 -12.632   3.670  1.00  0.00     0.069 C 
ENDROOT
BRANCH   6  11
HETATM   11  C   UNL     1      41.568 -10.990   0.867  1.00  0.00     0.156 C 
BRANCH  11  12
HETATM   12  C   UNL     1      41.673  -9.618   0.264  1.00  0.00     0.223 C 
HETATM   13  N   UNL     1      40.740  -8.737   0.743  1.00  0.00    -0.359 N 
HETATM   14  H   UNL     1      40.219  -9.008   1.586  1.00  0.00     0.162 HD
HETATM   15  O   UNL     1      42.439  -9.369  -0.665  1.00  0.00    -0.273 OA
BRANCH  13  16
HETATM   16  C   UNL     1      40.185  -7.551   0.086  1.00  0.00     0.150 C 
BRANCH  16  17
HETATM   17  C   UNL     1      39.747  -7.613  -1.389  1.00  0.00     0.254 C 
BRANCH  17  18
HETATM   18  N   UNL     1      40.882  -7.514  -2.393  1.00  0.00    -0.070 N 
HETATM   19  H   UNL     1      41.470  -8.353  -2.214  1.00  0.00     0.279 HD
HETATM   20  C   UNL     1      40.456  -7.534  -3.842  1.00  0.00     0.235 C 
HETATM   21  C   UNL     1      41.683  -7.525  -4.745  1.00  0.00     0.028 C 
HETATM   22  C   UNL     1      42.593  -6.340  -4.453  1.00  0.00     0.003 C 
HETATM   23  C   UNL     1      42.973  -6.300  -2.978  1.00  0.00     0.028 C 
HETATM   24  C   UNL     1      41.744  -6.306  -2.084  1.00  0.00     0.235 C 
ENDBRANCH  17  18
ENDBRANCH  16  17
ENDBRANCH  13  16
ENDBRANCH  11  12
ENDBRANCH   6  11
BRANCH   7  25
HETATM   25  C   UNL     1      40.880 -14.887   2.380  1.00  0.00    -0.030 A 
HETATM   26  C   UNL     1      40.630 -15.994   3.202  1.00  0.00     0.010 A 
HETATM   27  C   UNL     1      41.547 -17.058   3.262  1.00  0.00     0.008 A 
HETATM   28  C   UNL     1      42.730 -17.051   2.507  1.00  0.00    -0.055 A 
HETATM   29  C   UNL     1      42.932 -15.999   1.615  1.00  0.00     0.008 A 
HETATM   30  C   UNL     1      42.035 -14.932   1.567  1.00  0.00     0.010 A 
BRANCH  28  31
HETATM   31  C   UNL     1      43.778 -18.139   2.701  1.00  0.00     0.010 C 
HETATM   32  C   UNL     1      44.198 -18.247   4.166  1.00  0.00     0.015 C 
HETATM   33  C   UNL     1      43.318 -19.507   2.176  1.00  0.00     0.015 C 
ENDBRANCH  28  31
ENDBRANCH   7  25
BRANCH  10  34
HETATM   34  C   UNL     1      41.777 -12.631   4.253  1.00  0.00     0.293 C 
HETATM   35  O   UNL     1      42.703 -12.093   3.659  1.00  0.00    -0.259 OA
BRANCH  34  36
HETATM   36  O   UNL     1      41.831 -13.383   5.364  1.00  0.00    -0.323 OA
HETATM   37  C   UNL     1      42.985 -14.230   5.441  1.00  0.00     0.213 C 
ENDBRANCH  34  36
ENDBRANCH  10  34
TORSDOF 9
ENDMDL
MODEL 8
REMARK VINA RESULT:      -7.6      2.504      2.742
REMARK  9 active torsions:
REMARK  status: ('A' for Active; 'I' for Inactive)
REMARK    1  A    between atoms: C_6  and  C_7 
REMARK    2  A    between atoms: C_7  and  C_8 
REMARK       I    between atoms: C_8  and  N_9 
REMARK    3  A    between atoms: N_9  and  C_10 
REMARK    4  A    between atoms: C_10  and  C_11 
REMARK    5  A    between atoms: C_11  and  N_12 
REMARK    6  A    between atoms: C_20  and  C_21 
REMARK    7  A    between atoms: C_24  and  C_25 
REMARK    8  A    between atoms: C_32  and  C_33 
REMARK    9  A    between atoms: C_33  and  O_34 
ROOT
HETATM    1  C   UNL     1      41.253 -10.454   0.987  1.00  0.00     0.071 C 
HETATM    2  C   UNL     1      41.933 -11.432   1.912  1.00  0.00     0.048 C 
HETATM    3  N   UNL     1      42.749 -10.834   2.887  1.00  0.00    -0.229 NA
HETATM    4  C   UNL     1      42.869 -11.459   4.019  1.00  0.00     0.170 C 
HETATM    5  N   UNL     1      42.254 -12.913   4.250  1.00  0.00    -0.319 N 
HETATM    6  C   UNL     1      41.419 -12.665   5.221  1.00  0.00     0.011 C 
HETATM    7  C   UNL     1      42.386 -13.575   2.938  1.00  0.00     0.166 C 
HETATM    8  S   UNL     1      43.245 -10.722   5.545  1.00  0.00    -0.086 SA
HETATM    9  C   UNL     1      42.147 -11.970   6.375  1.00  0.00     0.135 C 
HETATM   10  C   UNL     1      41.664 -12.759   1.930  1.00  0.00     0.069 C 
ENDROOT
BRANCH   6  11
HETATM   11  C   UNL     1      39.982 -12.335   4.904  1.00  0.00     0.156 C 
BRANCH  11  12
HETATM   12  C   UNL     1      39.195 -11.381   5.758  1.00  0.00     0.223 C 
HETATM   13  N   UNL     1      39.347 -10.069   5.393  1.00  0.00    -0.359 N 
HETATM   14  H   UNL     1      39.783  -9.876   4.484  1.00  0.00     0.162 HD
HETATM   15  O   UNL     1      38.592 -11.750   6.763  1.00  0.00    -0.273 OA
BRANCH  13  16
HETATM   16  C   UNL     1      39.204  -8.872   6.224  1.00  0.00     0.150 C 
BRANCH  16  17
HETATM   17  C   UNL     1      39.471  -7.477   5.630  1.00  0.00     0.254 C 
BRANCH  17  18
HETATM   18  N   UNL     1      39.575  -6.360   6.654  1.00  0.00    -0.070 N 
HETATM   19  H   UNL     1      39.405  -5.487   6.113  1.00  0.00     0.279 HD
HETATM   20  C   UNL     1      38.567  -6.425   7.776  1.00  0.00     0.235 C 
HETATM   21  C   UNL     1      38.713  -5.206   8.678  1.00  0.00     0.028 C 
HETATM   22  C   UNL     1      40.130  -5.064   9.215  1.00  0.00     0.003 C 
HETATM   23  C   UNL     1      41.141  -5.053   8.077  1.00  0.00     0.028 C 
HETATM   24  C   UNL     1      40.992  -6.273   7.184  1.00  0.00     0.235 C 
ENDBRANCH  17  18
ENDBRANCH  16  17
ENDBRANCH  13  16
ENDBRANCH  11  12
ENDBRANCH   6  11
BRANCH   7  25
HETATM   25  C   UNL     1      42.472 -15.089   2.863  1.00  0.00    -0.030 A 
HETATM   26  C   UNL     1      42.214 -15.945   3.942  1.00  0.00     0.010 A 
HETATM   27  C   UNL     1      42.665 -17.277   3.917  1.00  0.00     0.008 A 
HETATM   28  C   UNL     1      43.377 -17.791   2.823  1.00  0.00    -0.055 A 
HETATM   29  C   UNL     1      43.546 -16.972   1.708  1.00  0.00     0.008 A 
HETATM   30  C   UNL     1      43.119 -15.644   1.736  1.00  0.00     0.010 A 
BRANCH  28  31
HETATM   31  C   UNL     1      43.985 -19.186   2.882  1.00  0.00     0.010 C 
HETATM   32  C   UNL     1      44.115 -19.672   4.325  1.00  0.00     0.015 C 
HETATM   33  C   UNL     1      43.205 -20.210   2.043  1.00  0.00     0.015 C 
ENDBRANCH  28  31
ENDBRANCH   7  25
BRANCH  10  34
HETATM   34  C   UNL     1      40.474 -13.356   1.310  1.00  0.00     0.293 C 
HETATM   35  O   UNL     1      39.466 -13.553   1.976  1.00  0.00    -0.259 OA
BRANCH  34  36
HETATM   36  O   UNL     1      40.723 -13.748   0.050  1.00  0.00    -0.323 OA
HETATM   37  C   UNL     1      39.573 -13.731  -0.806  1.00  0.00     0.213 C 
ENDBRANCH  34  36
ENDBRANCH  10  34
TORSDOF 9
ENDMDL
MODEL 9
REMARK VINA RESULT:      -7.4      2.298      8.191
REMARK  9 active torsions:
REMARK  status: ('A' for Active; 'I' for Inactive)
REMARK    1  A    between atoms: C_6  and  C_7 
REMARK    2  A    between atoms: C_7  and  C_8 
REMARK       I    between atoms: C_8  and  N_9 
REMARK    3  A    between atoms: N_9  and  C_10 
REMARK    4  A    between atoms: C_10  and  C_11 
REMARK    5  A    between atoms: C_11  and  N_12 
REMARK    6  A    between atoms: C_20  and  C_21 
REMARK    7  A    between atoms: C_24  and  C_25 
REMARK    8  A    between atoms: C_32  and  C_33 
REMARK    9  A    between atoms: C_33  and  O_34 
ROOT
HETATM    1  C   UNL     1      43.385 -13.551   2.655  1.00  0.00     0.071 C 
HETATM    2  C   UNL     1      43.005 -12.267   3.350  1.00  0.00     0.048 C 
HETATM    3  N   UNL     1      42.622 -11.232   2.481  1.00  0.00    -0.229 NA
HETATM    4  C   UNL     1      41.755 -10.377   2.931  1.00  0.00     0.170 C 
HETATM    5  N   UNL     1      41.259 -10.394   4.447  1.00  0.00    -0.319 N 
HETATM    6  C   UNL     1      39.984 -10.611   4.276  1.00  0.00     0.011 C 
HETATM    7  C   UNL     1      42.445 -10.829   5.211  1.00  0.00     0.166 C 
HETATM    8  S   UNL     1      40.667  -9.435   1.959  1.00  0.00    -0.086 SA
HETATM    9  C   UNL     1      39.400  -9.575   3.312  1.00  0.00     0.135 C 
HETATM   10  C   UNL     1      42.874 -12.151   4.692  1.00  0.00     0.069 C 
ENDROOT
BRANCH   6  11
HETATM   11  C   UNL     1      39.456 -12.023   4.305  1.00  0.00     0.156 C 
BRANCH  11  12
HETATM   12  C   UNL     1      39.334 -12.834   3.045  1.00  0.00     0.223 C 
HETATM   13  N   UNL     1      39.821 -14.109   3.167  1.00  0.00    -0.359 N 
HETATM   14  H   UNL     1      40.014 -14.455   4.114  1.00  0.00     0.162 HD
HETATM   15  O   UNL     1      38.957 -12.341   1.984  1.00  0.00    -0.273 OA
BRANCH  13  16
HETATM   16  C   UNL     1      40.351 -14.984   2.119  1.00  0.00     0.150 C 
BRANCH  16  17
HETATM   17  C   UNL     1      40.600 -16.476   2.404  1.00  0.00     0.254 C 
BRANCH  17  18
HETATM   18  N   UNL     1      41.996 -16.803   2.904  1.00  0.00    -0.070 N 
HETATM   19  H   UNL     1      42.598 -16.041   2.531  1.00  0.00     0.279 HD
HETATM   20  C   UNL     1      42.146 -16.833   4.406  1.00  0.00     0.235 C 
HETATM   21  C   UNL     1      43.602 -17.077   4.779  1.00  0.00     0.028 C 
HETATM   22  C   UNL     1      44.145 -18.350   4.144  1.00  0.00     0.003 C 
HETATM   23  C   UNL     1      43.940 -18.331   2.635  1.00  0.00     0.028 C 
HETATM   24  C   UNL     1      42.484 -18.091   2.271  1.00  0.00     0.235 C 
ENDBRANCH  17  18
ENDBRANCH  16  17
ENDBRANCH  13  16
ENDBRANCH  11  12
ENDBRANCH   6  11
BRANCH   7  25
HETATM   25  C   UNL     1      42.589 -10.430   6.669  1.00  0.00    -0.030 A 
HETATM   26  C   UNL     1      41.592  -9.780   7.408  1.00  0.00     0.010 A 
HETATM   27  C   UNL     1      41.912  -9.116   8.606  1.00  0.00     0.008 A 
HETATM   28  C   UNL     1      43.225  -9.083   9.099  1.00  0.00    -0.055 A 
HETATM   29  C   UNL     1      44.199  -9.813   8.418  1.00  0.00     0.008 A 
HETATM   30  C   UNL     1      43.890 -10.456   7.219  1.00  0.00     0.010 A 
BRANCH  28  31
HETATM   31  C   UNL     1      43.576  -8.234  10.313  1.00  0.00     0.010 C 
HETATM   32  C   UNL     1      42.574  -7.095  10.498  1.00  0.00     0.015 C 
HETATM   33  C   UNL     1      43.688  -9.060  11.603  1.00  0.00     0.015 C 
ENDBRANCH  28  31
ENDBRANCH   7  25
BRANCH  10  34
HETATM   34  C   UNL     1      42.756 -13.299   5.600  1.00  0.00     0.293 C 
HETATM   35  O   UNL     1      43.755 -13.771   6.129  1.00  0.00    -0.259 OA
BRANCH  34  36
HETATM   36  O   UNL     1      41.503 -13.782   5.620  1.00  0.00    -0.323 OA
HETATM   37  C   UNL     1      41.203 -14.585   6.769  1.00  0.00     0.213 C 
ENDBRANCH  34  36
ENDBRANCH  10  34
TORSDOF 9
ENDMDL
MODEL 10
REMARK VINA RESULT:      -7.2     17.774     20.687
REMARK  9 active torsions:
REMARK  status: ('A' for Active; 'I' for Inactive)
REMARK    1  A    between atoms: C_6  and  C_7 
REMARK    2  A    between atoms: C_7  and  C_8 
REMARK       I    between atoms: C_8  and  N_9 
REMARK    3  A    between atoms: N_9  and  C_10 
REMARK    4  A    between atoms: C_10  and  C_11 
REMARK    5  A    between atoms: C_11  and  N_12 
REMARK    6  A    between atoms: C_20  and  C_21 
REMARK    7  A    between atoms: C_24  and  C_25 
REMARK    8  A    between atoms: C_32  and  C_33 
REMARK    9  A    between atoms: C_33  and  O_34 
ROOT
HETATM    1  C   UNL     1      47.275 -28.482  -2.007  1.00  0.00     0.071 C 
HETATM    2  C   UNL     1      46.818 -28.769  -0.599  1.00  0.00     0.048 C 
HETATM    3  N   UNL     1      45.502 -28.363  -0.324  1.00  0.00    -0.229 NA
HETATM    4  C   UNL     1      44.844 -29.053   0.556  1.00  0.00     0.170 C 
HETATM    5  N   UNL     1      45.534 -30.211   1.409  1.00  0.00    -0.319 N 
HETATM    6  C   UNL     1      44.824 -31.239   1.031  1.00  0.00     0.011 C 
HETATM    7  C   UNL     1      46.915 -29.735   1.616  1.00  0.00     0.166 C 
HETATM    8  S   UNL     1      43.116 -29.203   0.638  1.00  0.00    -0.086 SA
HETATM    9  C   UNL     1      43.334 -30.949   1.233  1.00  0.00     0.135 C 
HETATM   10  C   UNL     1      47.532 -29.504   0.286  1.00  0.00     0.069 C 
ENDROOT
BRANCH   6  11
HETATM   11  C   UNL     1      45.297 -32.090  -0.120  1.00  0.00     0.156 C 
BRANCH  11  12
HETATM   12  C   UNL     1      44.566 -32.098  -1.433  1.00  0.00     0.223 C 
HETATM   13  N   UNL     1      44.863 -31.024  -2.230  1.00  0.00    -0.359 N 
HETATM   14  H   UNL     1      45.678 -30.454  -1.975  1.00  0.00     0.162 HD
HETATM   15  O   UNL     1      43.691 -32.922  -1.689  1.00  0.00    -0.273 OA
BRANCH  13  16
HETATM   16  C   UNL     1      44.037 -30.407  -3.271  1.00  0.00     0.150 C 
BRANCH  16  17
HETATM   17  C   UNL     1      44.687 -29.565  -4.382  1.00  0.00     0.254 C 
BRANCH  17  18
HETATM   18  N   UNL     1      45.073 -30.344  -5.627  1.00  0.00    -0.070 N 
HETATM   19  H   UNL     1      45.526 -29.644  -6.250  1.00  0.00     0.279 HD
HETATM   20  C   UNL     1      46.049 -31.474  -5.398  1.00  0.00     0.235 C 
HETATM   21  C   UNL     1      46.427 -32.113  -6.728  1.00  0.00     0.028 C 
HETATM   22  C   UNL     1      45.203 -32.588  -7.498  1.00  0.00     0.003 C 
HETATM   23  C   UNL     1      44.203 -31.453  -7.677  1.00  0.00     0.028 C 
HETATM   24  C   UNL     1      43.828 -30.823  -6.346  1.00  0.00     0.235 C 
ENDBRANCH  17  18
ENDBRANCH  16  17
ENDBRANCH  13  16
ENDBRANCH  11  12
ENDBRANCH   6  11
BRANCH   7  25
HETATM   25  C   UNL     1      47.707 -30.218   2.818  1.00  0.00    -0.030 A 
HETATM   26  C   UNL     1      48.642 -29.436   3.510  1.00  0.00     0.010 A 
HETATM   27  C   UNL     1      49.592 -30.040   4.352  1.00  0.00     0.008 A 
HETATM   28  C   UNL     1      49.636 -31.431   4.530  1.00  0.00    -0.055 A 
HETATM   29  C   UNL     1      48.646 -32.201   3.922  1.00  0.00     0.008 A 
HETATM   30  C   UNL     1      47.713 -31.608   3.070  1.00  0.00     0.010 A 
BRANCH  28  31
HETATM   31  C   UNL     1      50.765 -32.075   5.324  1.00  0.00     0.010 C 
HETATM   32  C   UNL     1      51.343 -33.281   4.585  1.00  0.00     0.015 C 
HETATM   33  C   UNL     1      51.882 -31.082   5.681  1.00  0.00     0.015 C 
ENDBRANCH  28  31
ENDBRANCH   7  25
BRANCH  10  34
HETATM   34  C   UNL     1      48.651 -30.375  -0.095  1.00  0.00     0.293 C 
HETATM   35  O   UNL     1      48.443 -31.535  -0.429  1.00  0.00    -0.259 OA
BRANCH  34  36
HETATM   36  O   UNL     1      49.834 -29.774   0.117  1.00  0.00    -0.323 OA
HETATM   37  C   UNL     1      50.802 -30.604   0.772  1.00  0.00     0.213 C 
ENDBRANCH  34  36
ENDBRANCH  10  34
TORSDOF 9
ENDMDL
