MODEL 1
REMARK VINA RESULT:      -9.0      0.000      0.000
REMARK  7 active torsions:
REMARK  status: ('A' for Active; 'I' for Inactive)
REMARK    1  A    between atoms: O_2  and  C_3 
REMARK    2  A    between atoms: C_6  and  C_7 
REMARK    3  A    between atoms: C_11  and  C_12 
REMARK       I    between atoms: C_12  and  N_13 
REMARK    4  A    between atoms: N_13  and  N_14 
REMARK       I    between atoms: N_14  and  C_15 
REMARK    5  A    between atoms: C_15  and  C_16 
REMARK    6  A    between atoms: C_16  and  C_17 
REMARK    7  A    between atoms: C_17  and  C_18 
ROOT
HETATM    1  C   UNL     1      44.173 -11.091   7.831  1.00  0.00     0.288 C 
HETATM    2  N   UNL     1      43.561 -12.324   7.898  1.00  0.00    -0.262 N 
HETATM    3  O   UNL     1      44.863 -10.765   6.866  1.00  0.00    -0.264 OA
HETATM    4  H   UNL     1      42.952 -12.619   8.658  1.00  0.00     0.190 HD
ENDROOT
BRANCH   1   5
HETATM    5  C   UNL     1      43.936 -10.218   8.945  1.00  0.00     0.121 A 
HETATM    6  N   UNL     1      44.095  -8.865   8.842  1.00  0.00    -0.272 N 
HETATM    7  N   UNL     1      43.791  -8.188   9.958  1.00  0.00    -0.174 NA
HETATM    8  H   UNL     1      44.396  -8.346   8.022  1.00  0.00     0.189 HD
HETATM    9  C   UNL     1      43.436  -9.133  10.844  1.00  0.00     0.089 A 
HETATM   10  C   UNL     1      43.526 -10.422  10.247  1.00  0.00     0.071 A 
BRANCH   9  11
HETATM   11  C   UNL     1      42.996  -8.792  12.199  1.00  0.00    -0.005 A 
HETATM   12  C   UNL     1      43.568  -7.706  12.878  1.00  0.00     0.016 A 
HETATM   13  C   UNL     1      43.128  -7.339  14.156  1.00  0.00     0.037 A 
HETATM   14  C   UNL     1      42.109  -8.057  14.778  1.00  0.00     0.068 A 
HETATM   15  C   UNL     1      41.553  -9.156  14.120  1.00  0.00     0.037 A 
HETATM   16  C   UNL     1      41.987  -9.521  12.841  1.00  0.00     0.016 A 
BRANCH  14  17
HETATM   17  O   UNL     1      41.580  -7.798  16.012  1.00  0.00    -0.356 OA
HETATM   18  C   UNL     1      42.057  -6.636  16.678  1.00  0.00     0.210 C 
ENDBRANCH  14  17
ENDBRANCH   9  11
ENDBRANCH   1   5
BRANCH   2  19
HETATM   19  N   UNL     1      43.680 -13.199   6.814  1.00  0.00    -0.267 N 
HETATM   20  C   UNL     1      43.399 -14.531   7.022  1.00  0.00     0.236 C 
HETATM   21  O   UNL     1      43.146 -14.992   8.133  1.00  0.00    -0.272 OA
HETATM   22  H   UNL     1      43.748 -12.773   5.891  1.00  0.00     0.190 HD
BRANCH  20  23
HETATM   23  C   UNL     1      43.434 -15.374   5.771  1.00  0.00     0.109 C 
BRANCH  23  24
HETATM   24  C   UNL     1      44.164 -16.691   6.021  1.00  0.00     0.048 C 
BRANCH  24  25
HETATM   25  C   UNL     1      43.981 -17.659   4.876  1.00  0.00    -0.058 A 
HETATM   26  C   UNL     1      44.223 -19.027   5.055  1.00  0.00     0.009 A 
HETATM   27  C   UNL     1      44.061 -19.919   3.991  1.00  0.00     0.024 A 
HETATM   28  C   UNL     1      43.660 -19.444   2.745  1.00  0.00     0.034 A 
HETATM   29 CL   UNL     1      43.462 -20.542   1.435  1.00  0.00    -0.084 Cl
HETATM   30  C   UNL     1      43.419 -18.086   2.552  1.00  0.00     0.024 A 
HETATM   31  C   UNL     1      43.578 -17.195   3.616  1.00  0.00     0.009 A 
ENDBRANCH  24  25
ENDBRANCH  23  24
ENDBRANCH  20  23
ENDBRANCH   2  19
TORSDOF 7
ENDMDL
MODEL 2
REMARK VINA RESULT:      -8.8      4.284     11.841
REMARK  7 active torsions:
REMARK  status: ('A' for Active; 'I' for Inactive)
REMARK    1  A    between atoms: O_2  and  C_3 
REMARK    2  A    between atoms: C_6  and  C_7 
REMARK    3  A    between atoms: C_11  and  C_12 
REMARK       I    between atoms: C_12  and  N_13 
REMARK    4  A    between atoms: N_13  and  N_14 
REMARK       I    between atoms: N_14  and  C_15 
REMARK    5  A    between atoms: C_15  and  C_16 
REMARK    6  A    between atoms: C_16  and  C_17 
REMARK    7  A    between atoms: C_17  and  C_18 
ROOT
HETATM    1  C   UNL     1      42.039 -11.730   6.187  1.00  0.00     0.288 C 
HETATM    2  N   UNL     1      42.884 -11.559   7.263  1.00  0.00    -0.262 N 
HETATM    3  O   UNL     1      41.099 -10.965   5.976  1.00  0.00    -0.264 OA
HETATM    4  H   UNL     1      43.694 -12.144   7.451  1.00  0.00     0.190 HD
ENDROOT
BRANCH   1   5
HETATM    5  C   UNL     1      42.342 -12.839   5.328  1.00  0.00     0.121 A 
HETATM    6  N   UNL     1      42.516 -12.679   3.983  1.00  0.00    -0.272 N 
HETATM    7  N   UNL     1      42.838 -13.805   3.331  1.00  0.00    -0.174 NA
HETATM    8  H   UNL     1      42.441 -11.813   3.457  1.00  0.00     0.189 HD
HETATM    9  C   UNL     1      42.859 -14.754   4.280  1.00  0.00     0.089 A 
HETATM   10  C   UNL     1      42.541 -14.188   5.547  1.00  0.00     0.071 A 
BRANCH   9  11
HETATM   11  C   UNL     1      43.207 -16.144   3.972  1.00  0.00    -0.005 A 
HETATM   12  C   UNL     1      43.841 -16.945   4.934  1.00  0.00     0.016 A 
HETATM   13  C   UNL     1      44.141 -18.288   4.673  1.00  0.00     0.037 A 
HETATM   14  C   UNL     1      43.812 -18.851   3.442  1.00  0.00     0.068 A 
HETATM   15  C   UNL     1      43.205 -18.054   2.470  1.00  0.00     0.037 A 
HETATM   16  C   UNL     1      42.899 -16.713   2.730  1.00  0.00     0.016 A 
BRANCH  14  17
HETATM   17  O   UNL     1      44.036 -20.146   3.065  1.00  0.00    -0.356 OA
HETATM   18  C   UNL     1      43.631 -20.506   1.750  1.00  0.00     0.210 C 
ENDBRANCH  14  17
ENDBRANCH   9  11
ENDBRANCH   1   5
BRANCH   2  19
HETATM   19  N   UNL     1      42.699 -10.454   8.098  1.00  0.00    -0.267 N 
HETATM   20  C   UNL     1      43.586 -10.270   9.137  1.00  0.00     0.236 C 
HETATM   21  O   UNL     1      44.464 -11.085   9.413  1.00  0.00    -0.272 OA
HETATM   22  H   UNL     1      42.065  -9.730   7.763  1.00  0.00     0.190 HD
BRANCH  20  23
HETATM   23  C   UNL     1      43.383  -8.989   9.906  1.00  0.00     0.109 C 
BRANCH  23  24
HETATM   24  C   UNL     1      44.224  -8.978  11.179  1.00  0.00     0.048 C 
BRANCH  24  25
HETATM   25  C   UNL     1      43.384  -8.698  12.403  1.00  0.00    -0.058 A 
HETATM   26  C   UNL     1      43.586  -7.533  13.155  1.00  0.00     0.009 A 
HETATM   27  C   UNL     1      42.813  -7.282  14.291  1.00  0.00     0.024 A 
HETATM   28  C   UNL     1      41.838  -8.196  14.681  1.00  0.00     0.034 A 
HETATM   29 CL   UNL     1      40.888  -7.887  16.081  1.00  0.00    -0.084 Cl
HETATM   30  C   UNL     1      41.628  -9.360  13.945  1.00  0.00     0.024 A 
HETATM   31  C   UNL     1      42.399  -9.609  12.808  1.00  0.00     0.009 A 
ENDBRANCH  24  25
ENDBRANCH  23  24
ENDBRANCH  20  23
ENDBRANCH   2  19
TORSDOF 7
ENDMDL
MODEL 3
REMARK VINA RESULT:      -8.8      1.353      1.846
REMARK  7 active torsions:
REMARK  status: ('A' for Active; 'I' for Inactive)
REMARK    1  A    between atoms: O_2  and  C_3 
REMARK    2  A    between atoms: C_6  and  C_7 
REMARK    3  A    between atoms: C_11  and  C_12 
REMARK       I    between atoms: C_12  and  N_13 
REMARK    4  A    between atoms: N_13  and  N_14 
REMARK       I    between atoms: N_14  and  C_15 
REMARK    5  A    between atoms: C_15  and  C_16 
REMARK    6  A    between atoms: C_16  and  C_17 
REMARK    7  A    between atoms: C_17  and  C_18 
ROOT
HETATM    1  C   UNL     1      44.440 -11.457   7.479  1.00  0.00     0.288 C 
HETATM    2  N   UNL     1      43.427 -12.389   7.558  1.00  0.00    -0.262 N 
HETATM    3  O   UNL     1      45.375 -11.586   6.690  1.00  0.00    -0.264 OA
HETATM    4  H   UNL     1      42.618 -12.302   8.168  1.00  0.00     0.190 HD
ENDROOT
BRANCH   1   5
HETATM    5  C   UNL     1      44.320 -10.332   8.361  1.00  0.00     0.121 A 
HETATM    6  N   UNL     1      44.975  -9.157   8.118  1.00  0.00    -0.272 N 
HETATM    7  N   UNL     1      44.722  -8.191   9.012  1.00  0.00    -0.174 NA
HETATM    8  H   UNL     1      45.599  -8.955   7.343  1.00  0.00     0.189 HD
HETATM    9  C   UNL     1      43.881  -8.754   9.894  1.00  0.00     0.089 A 
HETATM   10  C   UNL     1      43.615 -10.103   9.526  1.00  0.00     0.071 A 
BRANCH   9  11
HETATM   11  C   UNL     1      43.335  -8.001  11.027  1.00  0.00    -0.005 A 
HETATM   12  C   UNL     1      43.519  -8.463  12.339  1.00  0.00     0.016 A 
HETATM   13  C   UNL     1      43.043  -7.734  13.436  1.00  0.00     0.037 A 
HETATM   14  C   UNL     1      42.370  -6.530  13.236  1.00  0.00     0.068 A 
HETATM   15  C   UNL     1      42.159  -6.077  11.932  1.00  0.00     0.037 A 
HETATM   16  C   UNL     1      42.639  -6.801  10.835  1.00  0.00     0.016 A 
BRANCH  14  17
HETATM   17  O   UNL     1      41.868  -5.718  14.214  1.00  0.00    -0.356 OA
HETATM   18  C   UNL     1      41.521  -6.341  15.444  1.00  0.00     0.210 C 
ENDBRANCH  14  17
ENDBRANCH   9  11
ENDBRANCH   1   5
BRANCH   2  19
HETATM   19  N   UNL     1      43.434 -13.472   6.675  1.00  0.00    -0.267 N 
HETATM   20  C   UNL     1      42.320 -13.675   5.889  1.00  0.00     0.236 C 
HETATM   21  O   UNL     1      41.295 -13.007   6.004  1.00  0.00    -0.272 OA
HETATM   22  H   UNL     1      44.337 -13.911   6.499  1.00  0.00     0.190 HD
BRANCH  20  23
HETATM   23  C   UNL     1      42.467 -14.789   4.882  1.00  0.00     0.109 C 
BRANCH  23  24
HETATM   24  C   UNL     1      43.474 -15.830   5.363  1.00  0.00     0.048 C 
BRANCH  24  25
HETATM   25  C   UNL     1      43.541 -17.016   4.431  1.00  0.00    -0.058 A 
HETATM   26  C   UNL     1      43.012 -16.937   3.136  1.00  0.00     0.009 A 
HETATM   27  C   UNL     1      43.068 -18.040   2.280  1.00  0.00     0.024 A 
HETATM   28  C   UNL     1      43.651 -19.226   2.718  1.00  0.00     0.034 A 
HETATM   29 CL   UNL     1      43.719 -20.585   1.664  1.00  0.00    -0.084 Cl
HETATM   30  C   UNL     1      44.179 -19.321   4.003  1.00  0.00     0.024 A 
HETATM   31  C   UNL     1      44.125 -18.217   4.858  1.00  0.00     0.009 A 
ENDBRANCH  24  25
ENDBRANCH  23  24
ENDBRANCH  20  23
ENDBRANCH   2  19
TORSDOF 7
ENDMDL
MODEL 4
REMARK VINA RESULT:      -8.8      4.297     11.840
REMARK  7 active torsions:
REMARK  status: ('A' for Active; 'I' for Inactive)
REMARK    1  A    between atoms: O_2  and  C_3 
REMARK    2  A    between atoms: C_6  and  C_7 
REMARK    3  A    between atoms: C_11  and  C_12 
REMARK       I    between atoms: C_12  and  N_13 
REMARK    4  A    between atoms: N_13  and  N_14 
REMARK       I    between atoms: N_14  and  C_15 
REMARK    5  A    between atoms: C_15  and  C_16 
REMARK    6  A    between atoms: C_16  and  C_17 
REMARK    7  A    between atoms: C_17  and  C_18 
ROOT
HETATM    1  C   UNL     1      44.016 -11.741   7.502  1.00  0.00     0.288 C 
HETATM    2  N   UNL     1      43.009 -10.898   7.920  1.00  0.00    -0.262 N 
HETATM    3  O   UNL     1      45.187 -11.560   7.832  1.00  0.00    -0.264 OA
HETATM    4  H   UNL     1      42.024 -11.033   7.703  1.00  0.00     0.190 HD
ENDROOT
BRANCH   1   5
HETATM    5  C   UNL     1      43.604 -12.843   6.680  1.00  0.00     0.121 A 
HETATM    6  N   UNL     1      42.487 -12.776   5.898  1.00  0.00    -0.272 N 
HETATM    7  N   UNL     1      42.266 -13.871   5.157  1.00  0.00    -0.174 NA
HETATM    8  H   UNL     1      41.842 -11.994   5.819  1.00  0.00     0.189 HD
HETATM    9  C   UNL     1      43.267 -14.706   5.477  1.00  0.00     0.089 A 
HETATM   10  C   UNL     1      44.123 -14.100   6.440  1.00  0.00     0.071 A 
BRANCH   9  11
HETATM   11  C   UNL     1      43.404 -16.022   4.847  1.00  0.00    -0.005 A 
HETATM   12  C   UNL     1      42.835 -16.267   3.588  1.00  0.00     0.016 A 
HETATM   13  C   UNL     1      42.994 -17.505   2.951  1.00  0.00     0.037 A 
HETATM   14  C   UNL     1      43.724 -18.519   3.568  1.00  0.00     0.068 A 
HETATM   15  C   UNL     1      44.271 -18.292   4.832  1.00  0.00     0.037 A 
HETATM   16  C   UNL     1      44.118 -17.055   5.467  1.00  0.00     0.016 A 
BRANCH  14  17
HETATM   17  O   UNL     1      43.965 -19.763   3.052  1.00  0.00    -0.356 OA
HETATM   18  C   UNL     1      43.138 -20.177   1.973  1.00  0.00     0.210 C 
ENDBRANCH  14  17
ENDBRANCH   9  11
ENDBRANCH   1   5
BRANCH   2  19
HETATM   19  N   UNL     1      43.322  -9.848   8.788  1.00  0.00    -0.267 N 
HETATM   20  C   UNL     1      42.283  -9.132   9.341  1.00  0.00     0.236 C 
HETATM   21  O   UNL     1      41.108  -9.314   9.027  1.00  0.00    -0.272 OA
HETATM   22  H   UNL     1      44.279  -9.815   9.137  1.00  0.00     0.190 HD
BRANCH  20  23
HETATM   23  C   UNL     1      42.711  -8.103  10.358  1.00  0.00     0.109 C 
BRANCH  23  24
HETATM   24  C   UNL     1      43.480  -8.755  11.503  1.00  0.00     0.048 C 
BRANCH  24  25
HETATM   25  C   UNL     1      42.851  -8.457  12.842  1.00  0.00    -0.058 A 
HETATM   26  C   UNL     1      41.800  -9.247  13.328  1.00  0.00     0.009 A 
HETATM   27  C   UNL     1      41.214  -8.962  14.564  1.00  0.00     0.024 A 
HETATM   28  C   UNL     1      41.675  -7.886  15.317  1.00  0.00     0.034 A 
HETATM   29 CL   UNL     1      40.952  -7.535  16.839  1.00  0.00    -0.084 Cl
HETATM   30  C   UNL     1      42.717  -7.091  14.846  1.00  0.00     0.024 A 
HETATM   31  C   UNL     1      43.304  -7.377  13.612  1.00  0.00     0.009 A 
ENDBRANCH  24  25
ENDBRANCH  23  24
ENDBRANCH  20  23
ENDBRANCH   2  19
TORSDOF 7
ENDMDL
MODEL 5
REMARK VINA RESULT:      -8.4      1.810      2.157
REMARK  7 active torsions:
REMARK  status: ('A' for Active; 'I' for Inactive)
REMARK    1  A    between atoms: O_2  and  C_3 
REMARK    2  A    between atoms: C_6  and  C_7 
REMARK    3  A    between atoms: C_11  and  C_12 
REMARK       I    between atoms: C_12  and  N_13 
REMARK    4  A    between atoms: N_13  and  N_14 
REMARK       I    between atoms: N_14  and  C_15 
REMARK    5  A    between atoms: C_15  and  C_16 
REMARK    6  A    between atoms: C_16  and  C_17 
REMARK    7  A    between atoms: C_17  and  C_18 
ROOT
HETATM    1  C   UNL     1      44.134 -10.999   7.603  1.00  0.00     0.288 C 
HETATM    2  N   UNL     1      43.040 -11.776   7.287  1.00  0.00    -0.262 N 
HETATM    3  O   UNL     1      45.031 -10.785   6.789  1.00  0.00    -0.264 OA
HETATM    4  H   UNL     1      42.259 -11.947   7.916  1.00  0.00     0.190 HD
ENDROOT
BRANCH   1   5
HETATM    5  C   UNL     1      44.143 -10.449   8.929  1.00  0.00     0.121 A 
HETATM    6  N   UNL     1      45.298 -10.019   9.519  1.00  0.00    -0.272 N 
HETATM    7  N   UNL     1      45.129  -9.491  10.739  1.00  0.00    -0.174 NA
HETATM    8  H   UNL     1      46.233 -10.050   9.124  1.00  0.00     0.189 HD
HETATM    9  C   UNL     1      43.812  -9.592  10.976  1.00  0.00     0.089 A 
HETATM   10  C   UNL     1      43.160 -10.200   9.865  1.00  0.00     0.071 A 
BRANCH   9  11
HETATM   11  C   UNL     1      43.209  -9.089  12.213  1.00  0.00    -0.005 A 
HETATM   12  C   UNL     1      43.645  -7.877  12.771  1.00  0.00     0.016 A 
HETATM   13  C   UNL     1      43.050  -7.359  13.928  1.00  0.00     0.037 A 
HETATM   14  C   UNL     1      42.010  -8.048  14.548  1.00  0.00     0.068 A 
HETATM   15  C   UNL     1      41.588  -9.267  14.015  1.00  0.00     0.037 A 
HETATM   16  C   UNL     1      42.178  -9.785  12.855  1.00  0.00     0.016 A 
BRANCH  14  17
HETATM   17  O   UNL     1      41.337  -7.649  15.670  1.00  0.00    -0.356 OA
HETATM   18  C   UNL     1      40.422  -6.572  15.514  1.00  0.00     0.210 C 
ENDBRANCH  14  17
ENDBRANCH   9  11
ENDBRANCH   1   5
BRANCH   2  19
HETATM   19  N   UNL     1      42.923 -12.281   5.989  1.00  0.00    -0.267 N 
HETATM   20  C   UNL     1      41.663 -12.358   5.435  1.00  0.00     0.236 C 
HETATM   21  O   UNL     1      40.642 -12.095   6.066  1.00  0.00    -0.272 OA
HETATM   22  H   UNL     1      43.783 -12.352   5.447  1.00  0.00     0.190 HD
BRANCH  20  23
HETATM   23  C   UNL     1      41.647 -12.797   3.991  1.00  0.00     0.109 C 
BRANCH  23  24
HETATM   24  C   UNL     1      43.033 -13.252   3.544  1.00  0.00     0.048 C 
BRANCH  24  25
HETATM   25  C   UNL     1      43.056 -14.722   3.200  1.00  0.00    -0.058 A 
HETATM   26  C   UNL     1      43.058 -15.691   4.212  1.00  0.00     0.009 A 
HETATM   27  C   UNL     1      43.088 -17.050   3.890  1.00  0.00     0.024 A 
HETATM   28  C   UNL     1      43.120 -17.445   2.555  1.00  0.00     0.034 A 
HETATM   29 CL   UNL     1      43.159 -19.118   2.158  1.00  0.00    -0.084 Cl
HETATM   30  C   UNL     1      43.121 -16.492   1.538  1.00  0.00     0.024 A 
HETATM   31  C   UNL     1      43.088 -15.134   1.860  1.00  0.00     0.009 A 
ENDBRANCH  24  25
ENDBRANCH  23  24
ENDBRANCH  20  23
ENDBRANCH   2  19
TORSDOF 7
ENDMDL
MODEL 6
REMARK VINA RESULT:      -7.9      9.153     12.616
REMARK  7 active torsions:
REMARK  status: ('A' for Active; 'I' for Inactive)
REMARK    1  A    between atoms: O_2  and  C_3 
REMARK    2  A    between atoms: C_6  and  C_7 
REMARK    3  A    between atoms: C_11  and  C_12 
REMARK       I    between atoms: C_12  and  N_13 
REMARK    4  A    between atoms: N_13  and  N_14 
REMARK       I    between atoms: N_14  and  C_15 
REMARK    5  A    between atoms: C_15  and  C_16 
REMARK    6  A    between atoms: C_16  and  C_17 
REMARK    7  A    between atoms: C_17  and  C_18 
ROOT
HETATM    1  C   UNL     1      40.741 -11.893  -0.208  1.00  0.00     0.288 C 
HETATM    2  N   UNL     1      41.294 -13.132  -0.450  1.00  0.00    -0.262 N 
HETATM    3  O   UNL     1      40.451 -11.527   0.930  1.00  0.00    -0.264 OA
HETATM    4  H   UNL     1      41.583 -13.459  -1.369  1.00  0.00     0.190 HD
ENDROOT
BRANCH   1   5
HETATM    5  C   UNL     1      40.546 -11.062  -1.362  1.00  0.00     0.121 A 
HETATM    6  N   UNL     1      39.354 -11.030  -2.029  1.00  0.00    -0.272 N 
HETATM    7  N   UNL     1      39.322 -10.170  -3.056  1.00  0.00    -0.174 NA
HETATM    8  H   UNL     1      38.519 -11.567  -1.814  1.00  0.00     0.189 HD
HETATM    9  C   UNL     1      40.548  -9.625  -3.084  1.00  0.00     0.089 A 
HETATM   10  C   UNL     1      41.350 -10.169  -2.041  1.00  0.00     0.071 A 
BRANCH   9  11
HETATM   11  C   UNL     1      40.912  -8.594  -4.061  1.00  0.00    -0.005 A 
HETATM   12  C   UNL     1      42.074  -7.829  -3.882  1.00  0.00     0.016 A 
HETATM   13  C   UNL     1      42.461  -6.871  -4.828  1.00  0.00     0.037 A 
HETATM   14  C   UNL     1      41.688  -6.662  -5.968  1.00  0.00     0.068 A 
HETATM   15  C   UNL     1      40.515  -7.401  -6.140  1.00  0.00     0.037 A 
HETATM   16  C   UNL     1      40.130  -8.362  -5.198  1.00  0.00     0.016 A 
BRANCH  14  17
HETATM   17  O   UNL     1      41.958  -5.772  -6.970  1.00  0.00    -0.356 OA
HETATM   18  C   UNL     1      43.300  -5.314  -7.071  1.00  0.00     0.210 C 
ENDBRANCH  14  17
ENDBRANCH   9  11
ENDBRANCH   1   5
BRANCH   2  19
HETATM   19  N   UNL     1      41.587 -13.966   0.633  1.00  0.00    -0.267 N 
HETATM   20  C   UNL     1      40.796 -15.077   0.829  1.00  0.00     0.236 C 
HETATM   21  O   UNL     1      39.794 -15.307   0.156  1.00  0.00    -0.272 OA
HETATM   22  H   UNL     1      42.495 -13.833   1.077  1.00  0.00     0.190 HD
BRANCH  20  23
HETATM   23  C   UNL     1      41.262 -15.980   1.944  1.00  0.00     0.109 C 
BRANCH  23  24
HETATM   24  C   UNL     1      42.770 -16.204   1.870  1.00  0.00     0.048 C 
BRANCH  24  25
HETATM   25  C   UNL     1      43.207 -17.366   2.729  1.00  0.00    -0.058 A 
HETATM   26  C   UNL     1      43.238 -18.666   2.208  1.00  0.00     0.009 A 
HETATM   27  C   UNL     1      43.635 -19.741   3.008  1.00  0.00     0.024 A 
HETATM   28  C   UNL     1      43.998 -19.519   4.334  1.00  0.00     0.034 A 
HETATM   29 CL   UNL     1      44.484 -20.842   5.320  1.00  0.00    -0.084 Cl
HETATM   30  C   UNL     1      43.969 -18.232   4.867  1.00  0.00     0.024 A 
HETATM   31  C   UNL     1      43.575 -17.158   4.066  1.00  0.00     0.009 A 
ENDBRANCH  24  25
ENDBRANCH  23  24
ENDBRANCH  20  23
ENDBRANCH   2  19
TORSDOF 7
ENDMDL
MODEL 7
REMARK VINA RESULT:      -7.8      9.144     12.356
REMARK  7 active torsions:
REMARK  status: ('A' for Active; 'I' for Inactive)
REMARK    1  A    between atoms: O_2  and  C_3 
REMARK    2  A    between atoms: C_6  and  C_7 
REMARK    3  A    between atoms: C_11  and  C_12 
REMARK       I    between atoms: C_12  and  N_13 
REMARK    4  A    between atoms: N_13  and  N_14 
REMARK       I    between atoms: N_14  and  C_15 
REMARK    5  A    between atoms: C_15  and  C_16 
REMARK    6  A    between atoms: C_16  and  C_17 
REMARK    7  A    between atoms: C_17  and  C_18 
ROOT
HETATM    1  C   UNL     1      41.174 -12.649   0.661  1.00  0.00     0.288 C 
HETATM    2  N   UNL     1      41.247 -12.782  -0.710  1.00  0.00    -0.262 N 
HETATM    3  O   UNL     1      40.973 -11.559   1.194  1.00  0.00    -0.264 OA
HETATM    4  H   UNL     1      41.373 -13.668  -1.192  1.00  0.00     0.190 HD
ENDROOT
BRANCH   1   5
HETATM    5  C   UNL     1      41.332 -13.862   1.412  1.00  0.00     0.121 A 
HETATM    6  N   UNL     1      40.255 -14.577   1.854  1.00  0.00    -0.272 N 
HETATM    7  N   UNL     1      40.572 -15.707   2.500  1.00  0.00    -0.174 NA
HETATM    8  H   UNL     1      39.274 -14.344   1.727  1.00  0.00     0.189 HD
HETATM    9  C   UNL     1      41.914 -15.733   2.505  1.00  0.00     0.089 A 
HETATM   10  C   UNL     1      42.428 -14.584   1.840  1.00  0.00     0.071 A 
BRANCH   9  11
HETATM   11  C   UNL     1      42.662 -16.844   3.099  1.00  0.00    -0.005 A 
HETATM   12  C   UNL     1      43.068 -16.786   4.441  1.00  0.00     0.016 A 
HETATM   13  C   UNL     1      43.745 -17.857   5.038  1.00  0.00     0.037 A 
HETATM   14  C   UNL     1      44.029 -19.004   4.299  1.00  0.00     0.068 A 
HETATM   15  C   UNL     1      43.651 -19.059   2.956  1.00  0.00     0.037 A 
HETATM   16  C   UNL     1      42.970 -17.992   2.359  1.00  0.00     0.016 A 
BRANCH  14  17
HETATM   17  O   UNL     1      44.669 -20.121   4.761  1.00  0.00    -0.356 OA
HETATM   18  C   UNL     1      43.843 -21.194   5.195  1.00  0.00     0.210 C 
ENDBRANCH  14  17
ENDBRANCH   9  11
ENDBRANCH   1   5
BRANCH   2  19
HETATM   19  N   UNL     1      41.024 -11.658  -1.510  1.00  0.00    -0.267 N 
HETATM   20  C   UNL     1      40.978 -11.833  -2.876  1.00  0.00     0.236 C 
HETATM   21  O   UNL     1      41.221 -12.910  -3.417  1.00  0.00    -0.272 OA
HETATM   22  H   UNL     1      40.687 -10.820  -1.037  1.00  0.00     0.190 HD
BRANCH  20  23
HETATM   23  C   UNL     1      40.611 -10.590  -3.648  1.00  0.00     0.109 C 
BRANCH  23  24
HETATM   24  C   UNL     1      40.137  -9.485  -2.710  1.00  0.00     0.048 C 
BRANCH  24  25
HETATM   25  C   UNL     1      41.233  -8.488  -2.420  1.00  0.00    -0.058 A 
HETATM   26  C   UNL     1      41.555  -8.146  -1.099  1.00  0.00     0.009 A 
HETATM   27  C   UNL     1      42.565  -7.216  -0.835  1.00  0.00     0.024 A 
HETATM   28  C   UNL     1      43.253  -6.623  -1.891  1.00  0.00     0.034 A 
HETATM   29 CL   UNL     1      44.495  -5.478  -1.565  1.00  0.00    -0.084 Cl
HETATM   30  C   UNL     1      42.942  -6.952  -3.208  1.00  0.00     0.024 A 
HETATM   31  C   UNL     1      41.935  -7.882  -3.472  1.00  0.00     0.009 A 
ENDBRANCH  24  25
ENDBRANCH  23  24
ENDBRANCH  20  23
ENDBRANCH   2  19
TORSDOF 7
ENDMDL
MODEL 8
REMARK VINA RESULT:      -7.7      2.884      3.600
REMARK  7 active torsions:
REMARK  status: ('A' for Active; 'I' for Inactive)
REMARK    1  A    between atoms: O_2  and  C_3 
REMARK    2  A    between atoms: C_6  and  C_7 
REMARK    3  A    between atoms: C_11  and  C_12 
REMARK       I    between atoms: C_12  and  N_13 
REMARK    4  A    between atoms: N_13  and  N_14 
REMARK       I    between atoms: N_14  and  C_15 
REMARK    5  A    between atoms: C_15  and  C_16 
REMARK    6  A    between atoms: C_16  and  C_17 
REMARK    7  A    between atoms: C_17  and  C_18 
ROOT
HETATM    1  C   UNL     1      44.206 -11.616   7.314  1.00  0.00     0.288 C 
HETATM    2  N   UNL     1      43.133 -12.480   7.296  1.00  0.00    -0.262 N 
HETATM    3  O   UNL     1      45.274 -11.901   6.775  1.00  0.00    -0.264 OA
HETATM    4  H   UNL     1      42.221 -12.268   7.695  1.00  0.00     0.190 HD
ENDROOT
BRANCH   1   5
HETATM    5  C   UNL     1      43.987 -10.366   7.984  1.00  0.00     0.121 A 
HETATM    6  N   UNL     1      44.796  -9.945   9.001  1.00  0.00    -0.272 N 
HETATM    7  N   UNL     1      44.484  -8.737   9.490  1.00  0.00    -0.174 NA
HETATM    8  H   UNL     1      45.590 -10.442   9.394  1.00  0.00     0.189 HD
HETATM    9  C   UNL     1      43.412  -8.348   8.781  1.00  0.00     0.089 A 
HETATM   10  C   UNL     1      43.063  -9.351   7.832  1.00  0.00     0.071 A 
BRANCH   9  11
HETATM   11  C   UNL     1      42.778  -7.045   8.994  1.00  0.00    -0.005 A 
HETATM   12  C   UNL     1      42.903  -6.390  10.228  1.00  0.00     0.016 A 
HETATM   13  C   UNL     1      42.341  -5.124  10.435  1.00  0.00     0.037 A 
HETATM   14  C   UNL     1      41.641  -4.493   9.408  1.00  0.00     0.068 A 
HETATM   15  C   UNL     1      41.490  -5.150   8.185  1.00  0.00     0.037 A 
HETATM   16  C   UNL     1      42.055  -6.413   7.975  1.00  0.00     0.016 A 
BRANCH  14  17
HETATM   17  O   UNL     1      41.058  -3.258   9.473  1.00  0.00    -0.356 OA
HETATM   18  C   UNL     1      41.719  -2.204   8.786  1.00  0.00     0.210 C 
ENDBRANCH  14  17
ENDBRANCH   9  11
ENDBRANCH   1   5
BRANCH   2  19
HETATM   19  N   UNL     1      43.245 -13.683   6.594  1.00  0.00    -0.267 N 
HETATM   20  C   UNL     1      43.231 -14.858   7.314  1.00  0.00     0.236 C 
HETATM   21  O   UNL     1      43.223 -14.885   8.543  1.00  0.00    -0.272 OA
HETATM   22  H   UNL     1      43.105 -13.638   5.585  1.00  0.00     0.190 HD
BRANCH  20  23
HETATM   23  C   UNL     1      43.232 -16.105   6.465  1.00  0.00     0.109 C 
BRANCH  23  24
HETATM   24  C   UNL     1      43.276 -15.755   4.981  1.00  0.00     0.048 C 
BRANCH  24  25
HETATM   25  C   UNL     1      43.377 -16.989   4.117  1.00  0.00    -0.058 A 
HETATM   26  C   UNL     1      42.701 -17.058   2.891  1.00  0.00     0.009 A 
HETATM   27  C   UNL     1      42.790 -18.206   2.098  1.00  0.00     0.024 A 
HETATM   28  C   UNL     1      43.552 -19.288   2.530  1.00  0.00     0.034 A 
HETATM   29 CL   UNL     1      43.660 -20.701   1.554  1.00  0.00    -0.084 Cl
HETATM   30  C   UNL     1      44.227 -19.234   3.747  1.00  0.00     0.024 A 
HETATM   31  C   UNL     1      44.141 -18.087   4.538  1.00  0.00     0.009 A 
ENDBRANCH  24  25
ENDBRANCH  23  24
ENDBRANCH  20  23
ENDBRANCH   2  19
TORSDOF 7
ENDMDL
MODEL 9
REMARK VINA RESULT:      -7.6     18.798     20.291
REMARK  7 active torsions:
REMARK  status: ('A' for Active; 'I' for Inactive)
REMARK    1  A    between atoms: O_2  and  C_3 
REMARK    2  A    between atoms: C_6  and  C_7 
REMARK    3  A    between atoms: C_11  and  C_12 
REMARK       I    between atoms: C_12  and  N_13 
REMARK    4  A    between atoms: N_13  and  N_14 
REMARK       I    between atoms: N_14  and  C_15 
REMARK    5  A    between atoms: C_15  and  C_16 
REMARK    6  A    between atoms: C_16  and  C_17 
REMARK    7  A    between atoms: C_17  and  C_18 
ROOT
HETATM    1  C   UNL     1      43.139 -29.628   1.983  1.00  0.00     0.288 C 
HETATM    2  N   UNL     1      44.029 -29.096   2.891  1.00  0.00    -0.262 N 
HETATM    3  O   UNL     1      43.285 -29.478   0.771  1.00  0.00    -0.264 OA
HETATM    4  H   UNL     1      43.967 -29.229   3.897  1.00  0.00     0.190 HD
ENDROOT
BRANCH   1   5
HETATM    5  C   UNL     1      42.051 -30.376   2.545  1.00  0.00     0.121 A 
HETATM    6  N   UNL     1      41.141 -31.022   1.756  1.00  0.00    -0.272 N 
HETATM    7  N   UNL     1      40.214 -31.712   2.435  1.00  0.00    -0.174 NA
HETATM    8  H   UNL     1      41.116 -31.037   0.741  1.00  0.00     0.189 HD
HETATM    9  C   UNL     1      40.509 -31.499   3.728  1.00  0.00     0.089 A 
HETATM   10  C   UNL     1      41.650 -30.654   3.837  1.00  0.00     0.071 A 
BRANCH   9  11
HETATM   11  C   UNL     1      39.735 -32.117   4.808  1.00  0.00    -0.005 A 
HETATM   12  C   UNL     1      38.642 -32.945   4.511  1.00  0.00     0.016 A 
HETATM   13  C   UNL     1      37.919 -33.580   5.529  1.00  0.00     0.037 A 
HETATM   14  C   UNL     1      38.277 -33.393   6.862  1.00  0.00     0.068 A 
HETATM   15  C   UNL     1      39.348 -32.549   7.167  1.00  0.00     0.037 A 
HETATM   16  C   UNL     1      40.075 -31.918   6.151  1.00  0.00     0.016 A 
BRANCH  14  17
HETATM   17  O   UNL     1      37.667 -33.961   7.946  1.00  0.00    -0.356 OA
HETATM   18  C   UNL     1      36.454 -34.660   7.700  1.00  0.00     0.210 C 
ENDBRANCH  14  17
ENDBRANCH   9  11
ENDBRANCH   1   5
BRANCH   2  19
HETATM   19  N   UNL     1      45.158 -28.422   2.415  1.00  0.00    -0.267 N 
HETATM   20  C   UNL     1      46.353 -29.107   2.374  1.00  0.00     0.236 C 
HETATM   21  O   UNL     1      46.484 -30.243   2.826  1.00  0.00    -0.272 OA
HETATM   22  H   UNL     1      44.991 -27.547   1.920  1.00  0.00     0.190 HD
BRANCH  20  23
HETATM   23  C   UNL     1      47.484 -28.342   1.733  1.00  0.00     0.109 C 
BRANCH  23  24
HETATM   24  C   UNL     1      47.953 -29.031   0.455  1.00  0.00     0.048 C 
BRANCH  24  25
HETATM   25  C   UNL     1      46.848 -29.123  -0.570  1.00  0.00    -0.058 A 
HETATM   26  C   UNL     1      46.428 -30.369  -1.056  1.00  0.00     0.009 A 
HETATM   27  C   UNL     1      45.410 -30.449  -2.010  1.00  0.00     0.024 A 
HETATM   28  C   UNL     1      44.813 -29.285  -2.485  1.00  0.00     0.034 A 
HETATM   29 CL   UNL     1      43.562 -29.384  -3.661  1.00  0.00    -0.084 Cl
HETATM   30  C   UNL     1      45.222 -28.040  -2.013  1.00  0.00     0.024 A 
HETATM   31  C   UNL     1      46.236 -27.959  -1.057  1.00  0.00     0.009 A 
ENDBRANCH  24  25
ENDBRANCH  23  24
ENDBRANCH  20  23
ENDBRANCH   2  19
TORSDOF 7
ENDMDL
MODEL 10
REMARK VINA RESULT:      -7.6      3.439      4.478
REMARK  7 active torsions:
REMARK  status: ('A' for Active; 'I' for Inactive)
REMARK    1  A    between atoms: O_2  and  C_3 
REMARK    2  A    between atoms: C_6  and  C_7 
REMARK    3  A    between atoms: C_11  and  C_12 
REMARK       I    between atoms: C_12  and  N_13 
REMARK    4  A    between atoms: N_13  and  N_14 
REMARK       I    between atoms: N_14  and  C_15 
REMARK    5  A    between atoms: C_15  and  C_16 
REMARK    6  A    between atoms: C_16  and  C_17 
REMARK    7  A    between atoms: C_17  and  C_18 
ROOT
HETATM    1  C   UNL     1      43.030 -13.361   5.887  1.00  0.00     0.288 C 
HETATM    2  N   UNL     1      41.973 -13.393   5.002  1.00  0.00    -0.262 N 
HETATM    3  O   UNL     1      43.755 -14.340   6.062  1.00  0.00    -0.264 OA
HETATM    4  H   UNL     1      41.374 -12.596   4.799  1.00  0.00     0.190 HD
ENDROOT
BRANCH   1   5
HETATM    5  C   UNL     1      43.232 -12.115   6.569  1.00  0.00     0.121 A 
HETATM    6  N   UNL     1      44.405 -11.830   7.209  1.00  0.00    -0.272 N 
HETATM    7  N   UNL     1      44.450 -10.609   7.758  1.00  0.00    -0.174 NA
HETATM    8  H   UNL     1      45.219 -12.433   7.290  1.00  0.00     0.189 HD
HETATM    9  C   UNL     1      43.251 -10.069   7.488  1.00  0.00     0.089 A 
HETATM   10  C   UNL     1      42.453 -10.990   6.752  1.00  0.00     0.071 A 
BRANCH   9  11
HETATM   11  C   UNL     1      42.910  -8.704   7.898  1.00  0.00    -0.005 A 
HETATM   12  C   UNL     1      43.574  -8.102   8.978  1.00  0.00     0.016 A 
HETATM   13  C   UNL     1      43.292  -6.783   9.355  1.00  0.00     0.037 A 
HETATM   14  C   UNL     1      42.337  -6.045   8.659  1.00  0.00     0.068 A 
HETATM   15  C   UNL     1      41.652  -6.646   7.600  1.00  0.00     0.037 A 
HETATM   16  C   UNL     1      41.936  -7.962   7.218  1.00  0.00     0.016 A 
BRANCH  14  17
HETATM   17  O   UNL     1      41.977  -4.751   8.914  1.00  0.00    -0.356 OA
HETATM   18  C   UNL     1      40.866  -4.243   8.187  1.00  0.00     0.210 C 
ENDBRANCH  14  17
ENDBRANCH   9  11
ENDBRANCH   1   5
BRANCH   2  19
HETATM   19  N   UNL     1      41.762 -14.547   4.242  1.00  0.00    -0.267 N 
HETATM   20  C   UNL     1      41.830 -14.441   2.870  1.00  0.00     0.236 C 
HETATM   21  O   UNL     1      41.970 -13.365   2.292  1.00  0.00    -0.272 OA
HETATM   22  H   UNL     1      41.794 -15.434   4.742  1.00  0.00     0.190 HD
BRANCH  20  23
HETATM   23  C   UNL     1      41.713 -15.757   2.140  1.00  0.00     0.109 C 
BRANCH  23  24
HETATM   24  C   UNL     1      43.091 -16.322   1.811  1.00  0.00     0.048 C 
BRANCH  24  25
HETATM   25  C   UNL     1      43.434 -17.506   2.684  1.00  0.00    -0.058 A 
HETATM   26  C   UNL     1      43.346 -18.811   2.182  1.00  0.00     0.009 A 
HETATM   27  C   UNL     1      43.656 -19.904   2.996  1.00  0.00     0.024 A 
HETATM   28  C   UNL     1      44.052 -19.695   4.314  1.00  0.00     0.034 A 
HETATM   29 CL   UNL     1      44.433 -21.041   5.316  1.00  0.00    -0.084 Cl
HETATM   30  C   UNL     1      44.142 -18.403   4.828  1.00  0.00     0.024 A 
HETATM   31  C   UNL     1      43.835 -17.311   4.014  1.00  0.00     0.009 A 
ENDBRANCH  24  25
ENDBRANCH  23  24
ENDBRANCH  20  23
ENDBRANCH   2  19
TORSDOF 7
ENDMDL
