MODEL 1
REMARK VINA RESULT:      -8.7      0.000      0.000
REMARK  5 active torsions:
REMARK  status: ('A' for Active; 'I' for Inactive)
REMARK    1  A    between atoms: C_4  and  C_5 
REMARK    2  A    between atoms: C_5  and  N_6 
REMARK       I    between atoms: N_6  and  C_7 
REMARK    3  A    between atoms: C_7  and  C_8 
REMARK    4  A    between atoms: C_11  and  N_12 
REMARK       I    between atoms: N_12  and  C_13 
REMARK       I    between atoms: C_13  and  N_14 
REMARK    5  A    between atoms: N_14  and  C_15 
ROOT
HETATM    1  C   UNL     1      43.116 -13.653   4.499  1.00  0.00     0.032 A 
HETATM    2  C   UNL     1      43.105 -12.261   4.367  1.00  0.00     0.019 A 
HETATM    3  C   UNL     1      43.270 -11.446   5.495  1.00  0.00     0.030 A 
HETATM    4  C   UNL     1      43.438 -12.010   6.763  1.00  0.00     0.036 A 
HETATM    5  C   UNL     1      43.496 -13.403   6.881  1.00  0.00     0.030 A 
HETATM    6  C   UNL     1      43.339 -14.220   5.758  1.00  0.00     0.019 A 
ENDROOT
BRANCH   4   7
HETATM    7  N   UNL     1      43.555 -11.259   7.951  1.00  0.00    -0.309 N 
HETATM    8  C   UNL     1      44.684 -10.686   8.470  1.00  0.00     0.325 C 
HETATM    9  N   UNL     1      44.539 -10.022   9.661  1.00  0.00    -0.306 N 
HETATM   10  O   UNL     1      45.788 -10.658   7.931  1.00  0.00    -0.247 OA
HETATM   11  H   UNL     1      45.345  -9.449   9.884  1.00  0.00     0.171 HD
HETATM   12  H   UNL     1      42.688 -10.911   8.331  1.00  0.00     0.170 HD
BRANCH   9  13
HETATM   13  C   UNL     1      43.537 -10.081  10.608  1.00  0.00     0.072 A 
HETATM   14  C   UNL     1      42.260  -9.486  10.698  1.00  0.00     0.169 A 
HETATM   15  N   UNL     1      41.618  -9.817  11.822  1.00  0.00    -0.185 NA
HETATM   16  N   UNL     1      42.462 -10.665  12.430  1.00  0.00    -0.287 N 
HETATM   17  H   UNL     1      42.183 -11.069  13.319  1.00  0.00     0.188 HD
HETATM   18  C   UNL     1      43.618 -10.869  11.733  1.00  0.00     0.140 A 
ENDBRANCH   9  13
ENDBRANCH   4   7
BRANCH   1  19
HETATM   19  C   UNL     1      42.881 -14.572   3.351  1.00  0.00     0.251 C 
HETATM   20  N   UNL     1      43.234 -15.889   3.538  1.00  0.00    -0.353 N 
HETATM   21  H   UNL     1      43.624 -16.205   4.414  1.00  0.00     0.163 HD
HETATM   22  O   UNL     1      42.452 -14.133   2.291  1.00  0.00    -0.268 OA
BRANCH  20  23
HETATM   23  C   UNL     1      43.172 -16.830   2.442  1.00  0.00     0.161 C 
BRANCH  23  24
HETATM   24  C   UNL     1      43.467 -18.242   2.883  1.00  0.00    -0.041 A 
HETATM   25  C   UNL     1      43.940 -18.492   4.179  1.00  0.00     0.009 A 
HETATM   26  C   UNL     1      44.178 -19.800   4.609  1.00  0.00     0.001 A 
HETATM   27  C   UNL     1      43.945 -20.871   3.749  1.00  0.00     0.000 A 
HETATM   28  C   UNL     1      43.464 -20.639   2.463  1.00  0.00     0.001 A 
HETATM   29  C   UNL     1      43.216 -19.332   2.036  1.00  0.00     0.009 A 
ENDBRANCH  23  24
ENDBRANCH  20  23
ENDBRANCH   1  19
TORSDOF 5
ENDMDL
MODEL 2
REMARK VINA RESULT:      -8.2      5.859      8.949
REMARK  5 active torsions:
REMARK  status: ('A' for Active; 'I' for Inactive)
REMARK    1  A    between atoms: C_4  and  C_5 
REMARK    2  A    between atoms: C_5  and  N_6 
REMARK       I    between atoms: N_6  and  C_7 
REMARK    3  A    between atoms: C_7  and  C_8 
REMARK    4  A    between atoms: C_11  and  N_12 
REMARK       I    between atoms: N_12  and  C_13 
REMARK       I    between atoms: C_13  and  N_14 
REMARK    5  A    between atoms: N_14  and  C_15 
ROOT
HETATM    1  C   UNL     1      41.267 -15.120   2.065  1.00  0.00     0.032 A 
HETATM    2  C   UNL     1      40.329 -15.728   1.225  1.00  0.00     0.019 A 
HETATM    3  C   UNL     1      39.806 -15.027   0.130  1.00  0.00     0.030 A 
HETATM    4  C   UNL     1      40.207 -13.714  -0.132  1.00  0.00     0.036 A 
HETATM    5  C   UNL     1      41.182 -13.128   0.684  1.00  0.00     0.030 A 
HETATM    6  C   UNL     1      41.711 -13.826   1.772  1.00  0.00     0.019 A 
ENDROOT
BRANCH   4   7
HETATM    7  N   UNL     1      39.688 -12.924  -1.179  1.00  0.00    -0.309 N 
HETATM    8  C   UNL     1      39.911 -13.064  -2.522  1.00  0.00     0.325 C 
HETATM    9  N   UNL     1      39.304 -12.148  -3.342  1.00  0.00    -0.306 N 
HETATM   10  O   UNL     1      40.546 -13.973  -3.053  1.00  0.00    -0.247 OA
HETATM   11  H   UNL     1      39.332 -12.423  -4.316  1.00  0.00     0.171 HD
HETATM   12  H   UNL     1      38.893 -12.352  -0.939  1.00  0.00     0.170 HD
BRANCH   9  13
HETATM   13  C   UNL     1      38.760 -10.912  -3.060  1.00  0.00     0.072 A 
HETATM   14  C   UNL     1      39.319  -9.623  -2.913  1.00  0.00     0.169 A 
HETATM   15  N   UNL     1      38.402  -8.697  -2.621  1.00  0.00    -0.185 NA
HETATM   16  N   UNL     1      37.247  -9.381  -2.628  1.00  0.00    -0.287 N 
HETATM   17  H   UNL     1      36.386  -8.877  -2.440  1.00  0.00     0.188 HD
HETATM   18  C   UNL     1      37.408 -10.708  -2.903  1.00  0.00     0.140 A 
ENDBRANCH   9  13
ENDBRANCH   4   7
BRANCH   1  19
HETATM   19  C   UNL     1      41.811 -15.786   3.280  1.00  0.00     0.251 C 
HETATM   20  N   UNL     1      43.159 -16.061   3.278  1.00  0.00    -0.353 N 
HETATM   21  H   UNL     1      43.740 -15.812   2.490  1.00  0.00     0.163 HD
HETATM   22  O   UNL     1      41.058 -16.114   4.190  1.00  0.00    -0.268 OA
BRANCH  20  23
HETATM   23  C   UNL     1      43.757 -16.825   4.350  1.00  0.00     0.161 C 
BRANCH  23  24
HETATM   24  C   UNL     1      43.781 -18.304   4.055  1.00  0.00    -0.041 A 
HETATM   25  C   UNL     1      43.579 -18.766   2.745  1.00  0.00     0.009 A 
HETATM   26  C   UNL     1      43.639 -20.130   2.456  1.00  0.00     0.001 A 
HETATM   27  C   UNL     1      43.901 -21.049   3.470  1.00  0.00     0.000 A 
HETATM   28  C   UNL     1      44.115 -20.604   4.773  1.00  0.00     0.001 A 
HETATM   29  C   UNL     1      44.066 -19.239   5.061  1.00  0.00     0.009 A 
ENDBRANCH  23  24
ENDBRANCH  20  23
ENDBRANCH   1  19
TORSDOF 5
ENDMDL
MODEL 3
REMARK VINA RESULT:      -7.9      2.262      2.655
REMARK  5 active torsions:
REMARK  status: ('A' for Active; 'I' for Inactive)
REMARK    1  A    between atoms: C_4  and  C_5 
REMARK    2  A    between atoms: C_5  and  N_6 
REMARK       I    between atoms: N_6  and  C_7 
REMARK    3  A    between atoms: C_7  and  C_8 
REMARK    4  A    between atoms: C_11  and  N_12 
REMARK       I    between atoms: N_12  and  C_13 
REMARK       I    between atoms: C_13  and  N_14 
REMARK    5  A    between atoms: N_14  and  C_15 
ROOT
HETATM    1  C   UNL     1      41.327 -14.302   4.140  1.00  0.00     0.032 A 
HETATM    2  C   UNL     1      40.196 -13.496   3.969  1.00  0.00     0.019 A 
HETATM    3  C   UNL     1      39.962 -12.420   4.835  1.00  0.00     0.030 A 
HETATM    4  C   UNL     1      40.844 -12.143   5.883  1.00  0.00     0.036 A 
HETATM    5  C   UNL     1      41.998 -12.923   6.019  1.00  0.00     0.030 A 
HETATM    6  C   UNL     1      42.240 -13.993   5.154  1.00  0.00     0.019 A 
ENDROOT
BRANCH   4   7
HETATM    7  N   UNL     1      40.649 -11.115   6.828  1.00  0.00    -0.309 N 
HETATM    8  C   UNL     1      41.025  -9.802   6.726  1.00  0.00     0.325 C 
HETATM    9  N   UNL     1      40.739  -9.000   7.799  1.00  0.00    -0.306 N 
HETATM   10  O   UNL     1      41.529  -9.275   5.736  1.00  0.00    -0.247 OA
HETATM   11  H   UNL     1      40.846  -8.015   7.585  1.00  0.00     0.171 HD
HETATM   12  H   UNL     1      39.963 -11.305   7.541  1.00  0.00     0.170 HD
BRANCH   9  13
HETATM   13  C   UNL     1      40.425  -9.321   9.104  1.00  0.00     0.072 A 
HETATM   14  C   UNL     1      41.188  -9.385  10.291  1.00  0.00     0.169 A 
HETATM   15  N   UNL     1      40.463  -9.763  11.347  1.00  0.00    -0.185 NA
HETATM   16  N   UNL     1      39.223  -9.894  10.848  1.00  0.00    -0.287 N 
HETATM   17  H   UNL     1      38.476 -10.169  11.479  1.00  0.00     0.188 HD
HETATM   18  C   UNL     1      39.147  -9.623   9.513  1.00  0.00     0.140 A 
ENDBRANCH   9  13
ENDBRANCH   4   7
BRANCH   1  19
HETATM   19  C   UNL     1      41.599 -15.497   3.296  1.00  0.00     0.251 C 
HETATM   20  N   UNL     1      42.921 -15.782   3.044  1.00  0.00    -0.353 N 
HETATM   21  H   UNL     1      43.659 -15.208   3.424  1.00  0.00     0.163 HD
HETATM   22  O   UNL     1      40.668 -16.135   2.816  1.00  0.00    -0.268 OA
BRANCH  20  23
HETATM   23  C   UNL     1      43.284 -16.840   2.126  1.00  0.00     0.161 C 
BRANCH  23  24
HETATM   24  C   UNL     1      43.564 -18.141   2.836  1.00  0.00    -0.041 A 
HETATM   25  C   UNL     1      43.978 -18.140   4.177  1.00  0.00     0.009 A 
HETATM   26  C   UNL     1      44.201 -19.341   4.852  1.00  0.00     0.001 A 
HETATM   27  C   UNL     1      44.014 -20.556   4.198  1.00  0.00     0.000 A 
HETATM   28  C   UNL     1      43.592 -20.574   2.871  1.00  0.00     0.001 A 
HETATM   29  C   UNL     1      43.358 -19.373   2.197  1.00  0.00     0.009 A 
ENDBRANCH  23  24
ENDBRANCH  20  23
ENDBRANCH   1  19
TORSDOF 5
ENDMDL
MODEL 4
REMARK VINA RESULT:      -7.8      5.905      9.153
REMARK  5 active torsions:
REMARK  status: ('A' for Active; 'I' for Inactive)
REMARK    1  A    between atoms: C_4  and  C_5 
REMARK    2  A    between atoms: C_5  and  N_6 
REMARK       I    between atoms: N_6  and  C_7 
REMARK    3  A    between atoms: C_7  and  C_8 
REMARK    4  A    between atoms: C_11  and  N_12 
REMARK       I    between atoms: N_12  and  C_13 
REMARK       I    between atoms: C_13  and  N_14 
REMARK    5  A    between atoms: N_14  and  C_15 
ROOT
HETATM    1  C   UNL     1      41.000 -14.444   1.906  1.00  0.00     0.032 A 
HETATM    2  C   UNL     1      40.525 -15.208   0.835  1.00  0.00     0.019 A 
HETATM    3  C   UNL     1      39.858 -14.589  -0.230  1.00  0.00     0.030 A 
HETATM    4  C   UNL     1      39.652 -13.207  -0.235  1.00  0.00     0.036 A 
HETATM    5  C   UNL     1      40.172 -12.442   0.816  1.00  0.00     0.030 A 
HETATM    6  C   UNL     1      40.843 -13.054   1.877  1.00  0.00     0.019 A 
ENDROOT
BRANCH   4   7
HETATM    7  N   UNL     1      38.944 -12.517  -1.241  1.00  0.00    -0.309 N 
HETATM    8  C   UNL     1      39.253 -12.430  -2.571  1.00  0.00     0.325 C 
HETATM    9  N   UNL     1      38.412 -11.675  -3.346  1.00  0.00    -0.306 N 
HETATM   10  O   UNL     1      40.172 -13.022  -3.135  1.00  0.00    -0.247 OA
HETATM   11  H   UNL     1      38.566 -11.818  -4.337  1.00  0.00     0.171 HD
HETATM   12  H   UNL     1      37.997 -12.262  -1.008  1.00  0.00     0.170 HD
BRANCH   9  13
HETATM   13  C   UNL     1      37.481 -10.719  -2.994  1.00  0.00     0.072 A 
HETATM   14  C   UNL     1      37.593  -9.379  -2.561  1.00  0.00     0.169 A 
HETATM   15  N   UNL     1      36.405  -8.820  -2.312  1.00  0.00    -0.185 NA
HETATM   16  N   UNL     1      35.528  -9.785  -2.634  1.00  0.00    -0.287 N 
HETATM   17  H   UNL     1      34.537  -9.588  -2.537  1.00  0.00     0.188 HD
HETATM   18  C   UNL     1      36.124 -10.935  -3.064  1.00  0.00     0.140 A 
ENDBRANCH   9  13
ENDBRANCH   4   7
BRANCH   1  19
HETATM   19  C   UNL     1      41.657 -15.048   3.097  1.00  0.00     0.251 C 
HETATM   20  N   UNL     1      42.854 -15.691   2.877  1.00  0.00    -0.353 N 
HETATM   21  H   UNL     1      43.258 -15.737   1.953  1.00  0.00     0.163 HD
HETATM   22  O   UNL     1      41.104 -15.009   4.190  1.00  0.00    -0.268 OA
BRANCH  20  23
HETATM   23  C   UNL     1      43.502 -16.424   3.942  1.00  0.00     0.161 C 
BRANCH  23  24
HETATM   24  C   UNL     1      43.559 -17.905   3.664  1.00  0.00    -0.041 A 
HETATM   25  C   UNL     1      43.171 -18.404   2.412  1.00  0.00     0.009 A 
HETATM   26  C   UNL     1      43.258 -19.770   2.133  1.00  0.00     0.001 A 
HETATM   27  C   UNL     1      43.735 -20.652   3.101  1.00  0.00     0.000 A 
HETATM   28  C   UNL     1      44.135 -20.169   4.344  1.00  0.00     0.001 A 
HETATM   29  C   UNL     1      44.058 -18.802   4.621  1.00  0.00     0.009 A 
ENDBRANCH  23  24
ENDBRANCH  20  23
ENDBRANCH   1  19
TORSDOF 5
ENDMDL
MODEL 5
REMARK VINA RESULT:      -7.7      7.214     10.322
REMARK  5 active torsions:
REMARK  status: ('A' for Active; 'I' for Inactive)
REMARK    1  A    between atoms: C_4  and  C_5 
REMARK    2  A    between atoms: C_5  and  N_6 
REMARK       I    between atoms: N_6  and  C_7 
REMARK    3  A    between atoms: C_7  and  C_8 
REMARK    4  A    between atoms: C_11  and  N_12 
REMARK       I    between atoms: N_12  and  C_13 
REMARK       I    between atoms: C_13  and  N_14 
REMARK    5  A    between atoms: N_14  and  C_15 
ROOT
HETATM    1  C   UNL     1      39.972 -13.467   0.890  1.00  0.00     0.032 A 
HETATM    2  C   UNL     1      39.849 -14.186  -0.303  1.00  0.00     0.019 A 
HETATM    3  C   UNL     1      39.007 -13.721  -1.322  1.00  0.00     0.030 A 
HETATM    4  C   UNL     1      38.276 -12.541  -1.159  1.00  0.00     0.036 A 
HETATM    5  C   UNL     1      38.440 -11.801   0.018  1.00  0.00     0.030 A 
HETATM    6  C   UNL     1      39.283 -12.257   1.033  1.00  0.00     0.019 A 
ENDROOT
BRANCH   4   7
HETATM    7  N   UNL     1      37.368 -12.037  -2.113  1.00  0.00    -0.309 N 
HETATM    8  C   UNL     1      37.597 -11.073  -3.057  1.00  0.00     0.325 C 
HETATM    9  N   UNL     1      36.536 -10.738  -3.859  1.00  0.00    -0.306 N 
HETATM   10  O   UNL     1      38.679 -10.538  -3.289  1.00  0.00    -0.247 OA
HETATM   11  H   UNL     1      36.816 -10.186  -4.660  1.00  0.00     0.171 HD
HETATM   12  H   UNL     1      36.548 -12.601  -2.273  1.00  0.00     0.170 HD
BRANCH   9  13
HETATM   13  C   UNL     1      35.183 -10.958  -3.698  1.00  0.00     0.072 A 
HETATM   14  C   UNL     1      34.160 -10.233  -3.049  1.00  0.00     0.169 A 
HETATM   15  N   UNL     1      32.971 -10.837  -3.133  1.00  0.00    -0.185 NA
HETATM   16  N   UNL     1      33.221 -11.925  -3.879  1.00  0.00    -0.287 N 
HETATM   17  H   UNL     1      32.451 -12.550  -4.094  1.00  0.00     0.188 HD
HETATM   18  C   UNL     1      34.528 -12.032  -4.255  1.00  0.00     0.140 A 
ENDBRANCH   9  13
ENDBRANCH   4   7
BRANCH   1  19
HETATM   19  C   UNL     1      40.797 -13.941   2.034  1.00  0.00     0.251 C 
HETATM   20  N   UNL     1      40.322 -15.033   2.723  1.00  0.00    -0.353 N 
HETATM   21  H   UNL     1      39.461 -15.485   2.452  1.00  0.00     0.163 HD
HETATM   22  O   UNL     1      41.810 -13.329   2.356  1.00  0.00    -0.268 OA
BRANCH  20  23
HETATM   23  C   UNL     1      40.980 -15.486   3.929  1.00  0.00     0.161 C 
BRANCH  23  24
HETATM   24  C   UNL     1      42.032 -16.529   3.649  1.00  0.00    -0.041 A 
HETATM   25  C   UNL     1      43.005 -16.828   4.613  1.00  0.00     0.009 A 
HETATM   26  C   UNL     1      43.959 -17.820   4.377  1.00  0.00     0.001 A 
HETATM   27  C   UNL     1      43.951 -18.526   3.176  1.00  0.00     0.000 A 
HETATM   28  C   UNL     1      42.983 -18.249   2.214  1.00  0.00     0.001 A 
HETATM   29  C   UNL     1      42.022 -17.264   2.453  1.00  0.00     0.009 A 
ENDBRANCH  23  24
ENDBRANCH  20  23
ENDBRANCH   1  19
TORSDOF 5
ENDMDL
MODEL 6
REMARK VINA RESULT:      -7.5      3.339      9.794
REMARK  5 active torsions:
REMARK  status: ('A' for Active; 'I' for Inactive)
REMARK    1  A    between atoms: C_4  and  C_5 
REMARK    2  A    between atoms: C_5  and  N_6 
REMARK       I    between atoms: N_6  and  C_7 
REMARK    3  A    between atoms: C_7  and  C_8 
REMARK    4  A    between atoms: C_11  and  N_12 
REMARK       I    between atoms: N_12  and  C_13 
REMARK       I    between atoms: C_13  and  N_14 
REMARK    5  A    between atoms: N_14  and  C_15 
ROOT
HETATM    1  C   UNL     1      44.000 -10.947   7.775  1.00  0.00     0.032 A 
HETATM    2  C   UNL     1      44.699 -11.977   7.139  1.00  0.00     0.019 A 
HETATM    3  C   UNL     1      44.214 -12.521   5.941  1.00  0.00     0.030 A 
HETATM    4  C   UNL     1      43.028 -12.049   5.373  1.00  0.00     0.036 A 
HETATM    5  C   UNL     1      42.359 -10.985   5.990  1.00  0.00     0.030 A 
HETATM    6  C   UNL     1      42.842 -10.435   7.180  1.00  0.00     0.019 A 
ENDROOT
BRANCH   4   7
HETATM    7  N   UNL     1      42.448 -12.579   4.202  1.00  0.00    -0.309 N 
HETATM    8  C   UNL     1      42.407 -12.012   2.958  1.00  0.00     0.325 C 
HETATM    9  N   UNL     1      41.759 -12.723   1.982  1.00  0.00    -0.306 N 
HETATM   10  O   UNL     1      42.957 -10.962   2.629  1.00  0.00    -0.247 OA
HETATM   11  H   UNL     1      41.942 -12.362   1.054  1.00  0.00     0.171 HD
HETATM   12  H   UNL     1      42.252 -13.568   4.224  1.00  0.00     0.170 HD
BRANCH   9  13
HETATM   13  C   UNL     1      40.858 -13.765   2.077  1.00  0.00     0.072 A 
HETATM   14  C   UNL     1      40.931 -15.135   1.745  1.00  0.00     0.169 A 
HETATM   15  N   UNL     1      39.793 -15.786   1.999  1.00  0.00    -0.185 NA
HETATM   16  N   UNL     1      39.004 -14.844   2.540  1.00  0.00    -0.287 N 
HETATM   17  H   UNL     1      38.068 -15.108   2.832  1.00  0.00     0.188 HD
HETATM   18  C   UNL     1      39.604 -13.621   2.624  1.00  0.00     0.140 A 
ENDBRANCH   9  13
ENDBRANCH   4   7
BRANCH   1  19
HETATM   19  C   UNL     1      44.426 -10.373   9.081  1.00  0.00     0.251 C 
HETATM   20  N   UNL     1      43.641  -9.367   9.595  1.00  0.00    -0.353 N 
HETATM   21  H   UNL     1      42.816  -9.049   9.106  1.00  0.00     0.163 HD
HETATM   22  O   UNL     1      45.462 -10.757   9.612  1.00  0.00    -0.268 OA
BRANCH  20  23
HETATM   23  C   UNL     1      44.043  -8.654  10.787  1.00  0.00     0.161 C 
BRANCH  23  24
HETATM   24  C   UNL     1      43.073  -8.849  11.924  1.00  0.00    -0.041 A 
HETATM   25  C   UNL     1      43.191  -8.082  13.093  1.00  0.00     0.009 A 
HETATM   26  C   UNL     1      42.273  -8.229  14.135  1.00  0.00     0.001 A 
HETATM   27  C   UNL     1      41.226  -9.141  14.021  1.00  0.00     0.000 A 
HETATM   28  C   UNL     1      41.088  -9.900  12.862  1.00  0.00     0.001 A 
HETATM   29  C   UNL     1      42.000  -9.747  11.815  1.00  0.00     0.009 A 
ENDBRANCH  23  24
ENDBRANCH  20  23
ENDBRANCH   1  19
TORSDOF 5
ENDMDL
MODEL 7
REMARK VINA RESULT:      -7.4      1.492      1.990
REMARK  5 active torsions:
REMARK  status: ('A' for Active; 'I' for Inactive)
REMARK    1  A    between atoms: C_4  and  C_5 
REMARK    2  A    between atoms: C_5  and  N_6 
REMARK       I    between atoms: N_6  and  C_7 
REMARK    3  A    between atoms: C_7  and  C_8 
REMARK    4  A    between atoms: C_11  and  N_12 
REMARK       I    between atoms: N_12  and  C_13 
REMARK       I    between atoms: C_13  and  N_14 
REMARK    5  A    between atoms: N_14  and  C_15 
ROOT
HETATM    1  C   UNL     1      43.049 -11.782   4.942  1.00  0.00     0.032 A 
HETATM    2  C   UNL     1      42.343 -10.587   5.110  1.00  0.00     0.019 A 
HETATM    3  C   UNL     1      42.451  -9.869   6.309  1.00  0.00     0.030 A 
HETATM    4  C   UNL     1      43.254 -10.339   7.351  1.00  0.00     0.036 A 
HETATM    5  C   UNL     1      43.996 -11.510   7.158  1.00  0.00     0.030 A 
HETATM    6  C   UNL     1      43.897 -12.226   5.963  1.00  0.00     0.019 A 
ENDROOT
BRANCH   4   7
HETATM    7  N   UNL     1      43.372  -9.704   8.605  1.00  0.00    -0.309 N 
HETATM    8  C   UNL     1      44.300  -8.773   8.988  1.00  0.00     0.325 C 
HETATM    9  N   UNL     1      44.215  -8.322  10.279  1.00  0.00    -0.306 N 
HETATM   10  O   UNL     1      45.149  -8.265   8.259  1.00  0.00    -0.247 OA
HETATM   11  H   UNL     1      44.781  -7.497  10.437  1.00  0.00     0.171 HD
HETATM   12  H   UNL     1      42.559  -9.761   9.198  1.00  0.00     0.170 HD
BRANCH   9  13
HETATM   13  C   UNL     1      43.569  -8.852  11.377  1.00  0.00     0.072 A 
HETATM   14  C   UNL     1      43.244 -10.172  11.759  1.00  0.00     0.169 A 
HETATM   15  N   UNL     1      42.588 -10.223  12.921  1.00  0.00    -0.185 NA
HETATM   16  N   UNL     1      42.535  -8.940  13.310  1.00  0.00    -0.287 N 
HETATM   17  H   UNL     1      42.083  -8.721  14.193  1.00  0.00     0.188 HD
HETATM   18  C   UNL     1      43.124  -8.083  12.427  1.00  0.00     0.140 A 
ENDBRANCH   9  13
ENDBRANCH   4   7
BRANCH   1  19
HETATM   19  C   UNL     1      42.927 -12.624   3.720  1.00  0.00     0.251 C 
HETATM   20  N   UNL     1      42.812 -13.981   3.919  1.00  0.00    -0.353 N 
HETATM   21  H   UNL     1      42.805 -14.372   4.849  1.00  0.00     0.163 HD
HETATM   22  O   UNL     1      42.990 -12.108   2.610  1.00  0.00    -0.268 OA
BRANCH  20  23
HETATM   23  C   UNL     1      42.824 -14.893   2.796  1.00  0.00     0.161 C 
BRANCH  23  24
HETATM   24  C   UNL     1      43.254 -16.282   3.193  1.00  0.00    -0.041 A 
HETATM   25  C   UNL     1      43.695 -16.539   4.500  1.00  0.00     0.009 A 
HETATM   26  C   UNL     1      44.058 -17.831   4.886  1.00  0.00     0.001 A 
HETATM   27  C   UNL     1      43.984 -18.881   3.973  1.00  0.00     0.000 A 
HETATM   28  C   UNL     1      43.537 -18.643   2.676  1.00  0.00     0.001 A 
HETATM   29  C   UNL     1      43.164 -17.353   2.291  1.00  0.00     0.009 A 
ENDBRANCH  23  24
ENDBRANCH  20  23
ENDBRANCH   1  19
TORSDOF 5
ENDMDL
MODEL 8
REMARK VINA RESULT:      -7.4      3.210      4.671
REMARK  5 active torsions:
REMARK  status: ('A' for Active; 'I' for Inactive)
REMARK    1  A    between atoms: C_4  and  C_5 
REMARK    2  A    between atoms: C_5  and  N_6 
REMARK       I    between atoms: N_6  and  C_7 
REMARK    3  A    between atoms: C_7  and  C_8 
REMARK    4  A    between atoms: C_11  and  N_12 
REMARK       I    between atoms: N_12  and  C_13 
REMARK       I    between atoms: C_13  and  N_14 
REMARK    5  A    between atoms: N_14  and  C_15 
ROOT
HETATM    1  C   UNL     1      43.046 -13.357   3.445  1.00  0.00     0.032 A 
HETATM    2  C   UNL     1      43.504 -12.037   3.375  1.00  0.00     0.019 A 
HETATM    3  C   UNL     1      43.765 -11.320   4.551  1.00  0.00     0.030 A 
HETATM    4  C   UNL     1      43.565 -11.907   5.803  1.00  0.00     0.036 A 
HETATM    5  C   UNL     1      43.154 -13.243   5.866  1.00  0.00     0.030 A 
HETATM    6  C   UNL     1      42.899 -13.965   4.697  1.00  0.00     0.019 A 
ENDROOT
BRANCH   4   7
HETATM    7  N   UNL     1      43.753 -11.235   7.028  1.00  0.00    -0.309 N 
HETATM    8  C   UNL     1      44.936 -10.947   7.652  1.00  0.00     0.325 C 
HETATM    9  N   UNL     1      44.850 -10.300   8.858  1.00  0.00    -0.306 N 
HETATM   10  O   UNL     1      46.058 -11.156   7.195  1.00  0.00    -0.247 OA
HETATM   11  H   UNL     1      45.743  -9.931   9.163  1.00  0.00     0.171 HD
HETATM   12  H   UNL     1      42.959 -10.710   7.361  1.00  0.00     0.170 HD
BRANCH   9  13
HETATM   13  C   UNL     1      43.788 -10.156   9.727  1.00  0.00     0.072 A 
HETATM   14  C   UNL     1      42.597  -9.399   9.677  1.00  0.00     0.169 A 
HETATM   15  N   UNL     1      41.844  -9.555  10.769  1.00  0.00    -0.185 NA
HETATM   16  N   UNL     1      42.527 -10.451  11.499  1.00  0.00    -0.287 N 
HETATM   17  H   UNL     1      42.139 -10.744  12.390  1.00  0.00     0.188 HD
HETATM   18  C   UNL     1      43.689 -10.854  10.909  1.00  0.00     0.140 A 
ENDBRANCH   9  13
ENDBRANCH   4   7
BRANCH   1  19
HETATM   19  C   UNL     1      42.689 -14.150   2.237  1.00  0.00     0.251 C 
HETATM   20  N   UNL     1      41.382 -14.070   1.815  1.00  0.00    -0.353 N 
HETATM   21  H   UNL     1      40.712 -13.495   2.303  1.00  0.00     0.163 HD
HETATM   22  O   UNL     1      43.526 -14.872   1.708  1.00  0.00    -0.268 OA
BRANCH  20  23
HETATM   23  C   UNL     1      40.905 -14.906   0.735  1.00  0.00     0.161 C 
BRANCH  23  24
HETATM   24  C   UNL     1      39.959 -14.170  -0.180  1.00  0.00    -0.041 A 
HETATM   25  C   UNL     1      39.470 -14.793  -1.339  1.00  0.00     0.009 A 
HETATM   26  C   UNL     1      38.563 -14.134  -2.171  1.00  0.00     0.001 A 
HETATM   27  C   UNL     1      38.133 -12.846  -1.856  1.00  0.00     0.000 A 
HETATM   28  C   UNL     1      38.600 -12.221  -0.702  1.00  0.00     0.001 A 
HETATM   29  C   UNL     1      39.499 -12.883   0.136  1.00  0.00     0.009 A 
ENDBRANCH  23  24
ENDBRANCH  20  23
ENDBRANCH   1  19
TORSDOF 5
ENDMDL
MODEL 9
REMARK VINA RESULT:      -7.3      2.802     10.040
REMARK  5 active torsions:
REMARK  status: ('A' for Active; 'I' for Inactive)
REMARK    1  A    between atoms: C_4  and  C_5 
REMARK    2  A    between atoms: C_5  and  N_6 
REMARK       I    between atoms: N_6  and  C_7 
REMARK    3  A    between atoms: C_7  and  C_8 
REMARK    4  A    between atoms: C_11  and  N_12 
REMARK       I    between atoms: N_12  and  C_13 
REMARK       I    between atoms: C_13  and  N_14 
REMARK    5  A    between atoms: N_14  and  C_15 
ROOT
HETATM    1  C   UNL     1      43.456 -10.384   7.800  1.00  0.00     0.032 A 
HETATM    2  C   UNL     1      44.077 -11.621   7.602  1.00  0.00     0.019 A 
HETATM    3  C   UNL     1      43.511 -12.561   6.731  1.00  0.00     0.030 A 
HETATM    4  C   UNL     1      42.320 -12.281   6.057  1.00  0.00     0.036 A 
HETATM    5  C   UNL     1      41.729 -11.023   6.221  1.00  0.00     0.030 A 
HETATM    6  C   UNL     1      42.293 -10.080   7.083  1.00  0.00     0.019 A 
ENDROOT
BRANCH   4   7
HETATM    7  N   UNL     1      41.660 -13.194   5.207  1.00  0.00    -0.309 N 
HETATM    8  C   UNL     1      40.535 -13.924   5.477  1.00  0.00     0.325 C 
HETATM    9  N   UNL     1      40.100 -14.765   4.485  1.00  0.00    -0.306 N 
HETATM   10  O   UNL     1      39.850 -13.838   6.494  1.00  0.00    -0.247 OA
HETATM   11  H   UNL     1      39.164 -15.112   4.656  1.00  0.00     0.171 HD
HETATM   12  H   UNL     1      41.899 -13.127   4.230  1.00  0.00     0.170 HD
BRANCH   9  13
HETATM   13  C   UNL     1      40.754 -15.260   3.376  1.00  0.00     0.072 A 
HETATM   14  C   UNL     1      40.935 -14.768   2.065  1.00  0.00     0.169 A 
HETATM   15  N   UNL     1      41.640 -15.603   1.297  1.00  0.00    -0.185 NA
HETATM   16  N   UNL     1      41.955 -16.609   2.129  1.00  0.00    -0.287 N 
HETATM   17  H   UNL     1      42.512 -17.377   1.768  1.00  0.00     0.188 HD
HETATM   18  C   UNL     1      41.461 -16.440   3.389  1.00  0.00     0.140 A 
ENDBRANCH   9  13
ENDBRANCH   4   7
BRANCH   1  19
HETATM   19  C   UNL     1      43.970  -9.369   8.760  1.00  0.00     0.251 C 
HETATM   20  N   UNL     1      43.895  -9.693  10.095  1.00  0.00    -0.353 N 
HETATM   21  H   UNL     1      43.516 -10.580  10.395  1.00  0.00     0.163 HD
HETATM   22  O   UNL     1      44.375  -8.286   8.351  1.00  0.00    -0.268 OA
BRANCH  20  23
HETATM   23  C   UNL     1      44.243  -8.723  11.109  1.00  0.00     0.161 C 
BRANCH  23  24
HETATM   24  C   UNL     1      43.264  -8.719  12.256  1.00  0.00    -0.041 A 
HETATM   25  C   UNL     1      42.276  -9.711  12.345  1.00  0.00     0.009 A 
HETATM   26  C   UNL     1      41.391  -9.737  13.424  1.00  0.00     0.001 A 
HETATM   27  C   UNL     1      41.482  -8.774  14.427  1.00  0.00     0.000 A 
HETATM   28  C   UNL     1      42.466  -7.790  14.359  1.00  0.00     0.001 A 
HETATM   29  C   UNL     1      43.358  -7.769  13.285  1.00  0.00     0.009 A 
ENDBRANCH  23  24
ENDBRANCH  20  23
ENDBRANCH   1  19
TORSDOF 5
ENDMDL
MODEL 10
REMARK VINA RESULT:      -7.2      1.833      2.366
REMARK  5 active torsions:
REMARK  status: ('A' for Active; 'I' for Inactive)
REMARK    1  A    between atoms: C_4  and  C_5 
REMARK    2  A    between atoms: C_5  and  N_6 
REMARK       I    between atoms: N_6  and  C_7 
REMARK    3  A    between atoms: C_7  and  C_8 
REMARK    4  A    between atoms: C_11  and  N_12 
REMARK       I    between atoms: N_12  and  C_13 
REMARK       I    between atoms: C_13  and  N_14 
REMARK    5  A    between atoms: N_14  and  C_15 
ROOT
HETATM    1  C   UNL     1      42.386 -13.962   4.455  1.00  0.00     0.032 A 
HETATM    2  C   UNL     1      43.411 -13.027   4.278  1.00  0.00     0.019 A 
HETATM    3  C   UNL     1      43.518 -11.929   5.141  1.00  0.00     0.030 A 
HETATM    4  C   UNL     1      42.603 -11.748   6.182  1.00  0.00     0.036 A 
HETATM    5  C   UNL     1      41.609 -12.713   6.384  1.00  0.00     0.030 A 
HETATM    6  C   UNL     1      41.502 -13.814   5.529  1.00  0.00     0.019 A 
ENDROOT
BRANCH   4   7
HETATM    7  N   UNL     1      42.611 -10.643   7.057  1.00  0.00    -0.309 N 
HETATM    8  C   UNL     1      43.380 -10.467   8.176  1.00  0.00     0.325 C 
HETATM    9  N   UNL     1      43.183  -9.306   8.877  1.00  0.00    -0.306 N 
HETATM   10  O   UNL     1      44.269 -11.223   8.562  1.00  0.00    -0.247 OA
HETATM   11  H   UNL     1      43.913  -9.137   9.559  1.00  0.00     0.171 HD
HETATM   12  H   UNL     1      42.185  -9.802   6.699  1.00  0.00     0.170 HD
BRANCH   9  13
HETATM   13  C   UNL     1      42.134  -8.410   8.855  1.00  0.00     0.072 A 
HETATM   14  C   UNL     1      40.833  -8.436   9.404  1.00  0.00     0.169 A 
HETATM   15  N   UNL     1      40.133  -7.334   9.118  1.00  0.00    -0.185 NA
HETATM   16  N   UNL     1      41.002  -6.579   8.427  1.00  0.00    -0.287 N 
HETATM   17  H   UNL     1      40.696  -5.667   8.102  1.00  0.00     0.188 HD
HETATM   18  C   UNL     1      42.219  -7.173   8.259  1.00  0.00     0.140 A 
ENDBRANCH   9  13
ENDBRANCH   4   7
BRANCH   1  19
HETATM   19  C   UNL     1      42.179 -15.113   3.534  1.00  0.00     0.251 C 
HETATM   20  N   UNL     1      43.303 -15.816   3.168  1.00  0.00    -0.353 N 
HETATM   21  H   UNL     1      44.215 -15.560   3.517  1.00  0.00     0.163 HD
HETATM   22  O   UNL     1      41.060 -15.356   3.097  1.00  0.00    -0.268 OA
BRANCH  20  23
HETATM   23  C   UNL     1      43.225 -16.864   2.174  1.00  0.00     0.161 C 
BRANCH  23  24
HETATM   24  C   UNL     1      43.455 -18.232   2.767  1.00  0.00    -0.041 A 
HETATM   25  C   UNL     1      43.225 -19.383   1.999  1.00  0.00     0.009 A 
HETATM   26  C   UNL     1      43.473 -20.651   2.527  1.00  0.00     0.001 A 
HETATM   27  C   UNL     1      43.954 -20.785   3.828  1.00  0.00     0.000 A 
HETATM   28  C   UNL     1      44.198 -19.651   4.598  1.00  0.00     0.001 A 
HETATM   29  C   UNL     1      43.960 -18.381   4.068  1.00  0.00     0.009 A 
ENDBRANCH  23  24
ENDBRANCH  20  23
ENDBRANCH   1  19
TORSDOF 5
ENDMDL
