MODEL 1
REMARK VINA RESULT:      -9.1      0.000      0.000
REMARK  7 active torsions:
REMARK  status: ('A' for Active; 'I' for Inactive)
REMARK    1  A    between atoms: C_3  and  C_4 
REMARK       I    between atoms: C_4  and  N_5 
REMARK    2  A    between atoms: N_5  and  C_6 
REMARK    3  A    between atoms: C_6  and  C_7 
REMARK    4  A    between atoms: C_7  and  O_8 
REMARK    5  A    between atoms: C_7  and  C_9 
REMARK    6  A    between atoms: C_18  and  N_19 
REMARK       I    between atoms: N_19  and  C_20 
REMARK    7  A    between atoms: C_20  and  C_21 
ROOT
HETATM    1  C   UNL     1      40.853 -10.319   6.322  1.00  0.00     0.050 C 
HETATM    2  C   UNL     1      41.965 -11.318   6.279  1.00  0.00    -0.037 A 
HETATM    3  C   UNL     1      43.117 -11.275   7.059  1.00  0.00     0.080 A 
HETATM    4  S   UNL     1      44.156 -12.592   6.704  1.00  0.00    -0.066 SA
HETATM    5  C   UNL     1      43.083 -13.254   5.579  1.00  0.00     0.078 A 
HETATM    6  C   UNL     1      41.958 -12.476   5.430  1.00  0.00     0.045 A 
ENDROOT
BRANCH   3   7
HETATM    7  C   UNL     1      43.462 -10.296   8.086  1.00  0.00     0.259 C 
HETATM    8  N   UNL     1      43.585 -10.773   9.376  1.00  0.00    -0.354 N 
HETATM    9  H   UNL     1      43.364 -11.752   9.517  1.00  0.00     0.162 HD
HETATM   10  O   UNL     1      43.621  -9.099   7.854  1.00  0.00    -0.267 OA
BRANCH   8  11
HETATM   11  C   UNL     1      43.599  -9.896  10.543  1.00  0.00     0.159 C 
BRANCH  11  12
HETATM   12  C   UNL     1      42.780 -10.408  11.753  1.00  0.00     0.169 C 
BRANCH  12  13
HETATM   13  O   UNL     1      43.390 -11.536  12.381  1.00  0.00    -0.389 OA
HETATM   14  H   UNL     1      44.350 -11.493  12.186  1.00  0.00     0.210 HD
ENDBRANCH  12  13
BRANCH  12  15
HETATM   15  C   UNL     1      42.661  -9.315  12.801  1.00  0.00    -0.028 A 
HETATM   16  C   UNL     1      43.474  -8.172  12.732  1.00  0.00     0.013 A 
HETATM   17  C   UNL     1      43.387  -7.183  13.715  1.00  0.00     0.043 A 
HETATM   18  C   UNL     1      42.492  -7.335  14.768  1.00  0.00     0.116 A 
HETATM   19  F   UNL     1      42.414  -6.386  15.711  1.00  0.00    -0.206 F 
HETATM   20  C   UNL     1      41.680  -8.458  14.859  1.00  0.00     0.043 A 
HETATM   21  C   UNL     1      41.765  -9.447  13.878  1.00  0.00     0.013 A 
ENDBRANCH  12  15
ENDBRANCH  11  12
ENDBRANCH   8  11
ENDBRANCH   3   7
BRANCH   5  22
HETATM   22  N   UNL     1      43.315 -14.456   4.936  1.00  0.00    -0.317 N 
HETATM   23  C   UNL     1      42.830 -15.700   5.291  1.00  0.00     0.258 C 
HETATM   24  O   UNL     1      42.178 -15.963   6.297  1.00  0.00    -0.267 OA
HETATM   25  H   UNL     1      43.921 -14.400   4.127  1.00  0.00     0.169 HD
BRANCH  23  26
HETATM   26  C   UNL     1      43.091 -16.817   4.323  1.00  0.00     0.054 A 
HETATM   27  C   UNL     1      42.433 -17.025   3.101  1.00  0.00     0.049 A 
HETATM   28 CL   UNL     1      41.234 -15.957   2.453  1.00  0.00    -0.083 Cl
HETATM   29  C   UNL     1      42.749 -18.140   2.310  1.00  0.00     0.025 A 
HETATM   30  C   UNL     1      43.728 -19.046   2.716  1.00  0.00     0.002 A 
HETATM   31  C   UNL     1      44.402 -18.841   3.914  1.00  0.00     0.001 A 
HETATM   32  C   UNL     1      44.087 -17.737   4.708  1.00  0.00     0.019 A 
ENDBRANCH  23  26
ENDBRANCH   5  22
TORSDOF 7
ENDMDL
MODEL 2
REMARK VINA RESULT:      -8.9      4.384     10.772
REMARK  7 active torsions:
REMARK  status: ('A' for Active; 'I' for Inactive)
REMARK    1  A    between atoms: C_3  and  C_4 
REMARK       I    between atoms: C_4  and  N_5 
REMARK    2  A    between atoms: N_5  and  C_6 
REMARK    3  A    between atoms: C_6  and  C_7 
REMARK    4  A    between atoms: C_7  and  O_8 
REMARK    5  A    between atoms: C_7  and  C_9 
REMARK    6  A    between atoms: C_18  and  N_19 
REMARK       I    between atoms: N_19  and  C_20 
REMARK    7  A    between atoms: C_20  and  C_21 
ROOT
HETATM    1  C   UNL     1      46.035 -11.133   6.853  1.00  0.00     0.050 C 
HETATM    2  C   UNL     1      44.729 -10.682   7.426  1.00  0.00    -0.037 A 
HETATM    3  C   UNL     1      43.494 -10.786   6.793  1.00  0.00     0.080 A 
HETATM    4  S   UNL     1      42.241 -10.143   7.771  1.00  0.00    -0.066 SA
HETATM    5  C   UNL     1      43.293  -9.784   9.044  1.00  0.00     0.078 A 
HETATM    6  C   UNL     1      44.594 -10.105   8.733  1.00  0.00     0.045 A 
ENDROOT
BRANCH   3   7
HETATM    7  C   UNL     1      43.206 -11.375   5.488  1.00  0.00     0.259 C 
HETATM    8  N   UNL     1      42.358 -12.464   5.477  1.00  0.00    -0.354 N 
HETATM    9  H   UNL     1      42.052 -12.806   6.381  1.00  0.00     0.162 HD
HETATM   10  O   UNL     1      43.694 -10.963   4.437  1.00  0.00    -0.267 OA
BRANCH   8  11
HETATM   11  C   UNL     1      42.231 -13.353   4.326  1.00  0.00     0.159 C 
BRANCH  11  12
HETATM   12  C   UNL     1      41.411 -14.641   4.584  1.00  0.00     0.169 C 
BRANCH  12  13
HETATM   13  O   UNL     1      40.155 -14.627   3.905  1.00  0.00    -0.389 OA
HETATM   14  H   UNL     1      39.491 -14.264   4.530  1.00  0.00     0.210 HD
ENDBRANCH  12  13
BRANCH  12  15
HETATM   15  C   UNL     1      42.179 -15.855   4.092  1.00  0.00    -0.028 A 
HETATM   16  C   UNL     1      43.206 -16.411   4.872  1.00  0.00     0.013 A 
HETATM   17  C   UNL     1      43.934 -17.507   4.404  1.00  0.00     0.043 A 
HETATM   18  C   UNL     1      43.641 -18.048   3.157  1.00  0.00     0.116 A 
HETATM   19  F   UNL     1      44.343 -19.098   2.710  1.00  0.00    -0.206 F 
HETATM   20  C   UNL     1      42.631 -17.514   2.367  1.00  0.00     0.043 A 
HETATM   21  C   UNL     1      41.902 -16.419   2.833  1.00  0.00     0.013 A 
ENDBRANCH  12  15
ENDBRANCH  11  12
ENDBRANCH   8  11
ENDBRANCH   3   7
BRANCH   5  22
HETATM   22  N   UNL     1      42.863  -9.273  10.254  1.00  0.00    -0.317 N 
HETATM   23  C   UNL     1      42.968  -9.868  11.496  1.00  0.00     0.258 C 
HETATM   24  O   UNL     1      43.384 -11.000  11.725  1.00  0.00    -0.267 OA
HETATM   25  H   UNL     1      42.410  -8.369  10.201  1.00  0.00     0.169 HD
BRANCH  23  26
HETATM   26  C   UNL     1      42.576  -9.023  12.674  1.00  0.00     0.054 A 
HETATM   27  C   UNL     1      41.411  -9.164  13.443  1.00  0.00     0.049 A 
HETATM   28 CL   UNL     1      40.239 -10.417  13.206  1.00  0.00    -0.083 Cl
HETATM   29  C   UNL     1      41.148  -8.275  14.496  1.00  0.00     0.025 A 
HETATM   30  C   UNL     1      42.043  -7.250  14.802  1.00  0.00     0.002 A 
HETATM   31  C   UNL     1      43.210  -7.112  14.062  1.00  0.00     0.001 A 
HETATM   32  C   UNL     1      43.474  -7.990  13.010  1.00  0.00     0.019 A 
ENDBRANCH  23  26
ENDBRANCH   5  22
TORSDOF 7
ENDMDL
MODEL 3
REMARK VINA RESULT:      -8.6      2.282      2.980
REMARK  7 active torsions:
REMARK  status: ('A' for Active; 'I' for Inactive)
REMARK    1  A    between atoms: C_3  and  C_4 
REMARK       I    between atoms: C_4  and  N_5 
REMARK    2  A    between atoms: N_5  and  C_6 
REMARK    3  A    between atoms: C_6  and  C_7 
REMARK    4  A    between atoms: C_7  and  O_8 
REMARK    5  A    between atoms: C_7  and  C_9 
REMARK    6  A    between atoms: C_18  and  N_19 
REMARK       I    between atoms: N_19  and  C_20 
REMARK    7  A    between atoms: C_20  and  C_21 
ROOT
HETATM    1  C   UNL     1      38.948 -10.793   4.717  1.00  0.00     0.050 C 
HETATM    2  C   UNL     1      40.120 -11.662   5.043  1.00  0.00    -0.037 A 
HETATM    3  C   UNL     1      41.121 -11.352   5.959  1.00  0.00     0.080 A 
HETATM    4  S   UNL     1      42.296 -12.598   6.038  1.00  0.00    -0.066 SA
HETATM    5  C   UNL     1      41.473 -13.570   4.927  1.00  0.00     0.078 A 
HETATM    6  C   UNL     1      40.336 -12.955   4.458  1.00  0.00     0.045 A 
ENDROOT
BRANCH   3   7
HETATM    7  C   UNL     1      41.222 -10.165   6.804  1.00  0.00     0.259 C 
HETATM    8  N   UNL     1      42.337  -9.371   6.621  1.00  0.00    -0.354 N 
HETATM    9  H   UNL     1      43.027  -9.710   5.960  1.00  0.00     0.162 HD
HETATM   10  O   UNL     1      40.388  -9.868   7.657  1.00  0.00    -0.267 OA
BRANCH   8  11
HETATM   11  C   UNL     1      42.749  -8.355   7.585  1.00  0.00     0.159 C 
BRANCH  11  12
HETATM   12  C   UNL     1      43.987  -8.726   8.435  1.00  0.00     0.169 C 
BRANCH  12  13
HETATM   13  O   UNL     1      44.977  -7.697   8.428  1.00  0.00    -0.389 OA
HETATM   14  H   UNL     1      45.232  -7.545   7.493  1.00  0.00     0.210 HD
ENDBRANCH  12  13
BRANCH  12  15
HETATM   15  C   UNL     1      43.579  -8.952   9.880  1.00  0.00    -0.028 A 
HETATM   16  C   UNL     1      43.203  -7.869  10.691  1.00  0.00     0.013 A 
HETATM   17  C   UNL     1      42.859  -8.074  12.029  1.00  0.00     0.043 A 
HETATM   18  C   UNL     1      42.894  -9.359  12.560  1.00  0.00     0.116 A 
HETATM   19  F   UNL     1      42.566  -9.551  13.846  1.00  0.00    -0.206 F 
HETATM   20  C   UNL     1      43.264 -10.445  11.779  1.00  0.00     0.043 A 
HETATM   21  C   UNL     1      43.607 -10.243  10.442  1.00  0.00     0.013 A 
ENDBRANCH  12  15
ENDBRANCH  11  12
ENDBRANCH   8  11
ENDBRANCH   3   7
BRANCH   5  22
HETATM   22  N   UNL     1      41.893 -14.842   4.585  1.00  0.00    -0.317 N 
HETATM   23  C   UNL     1      42.809 -15.185   3.609  1.00  0.00     0.258 C 
HETATM   24  O   UNL     1      43.341 -14.417   2.813  1.00  0.00    -0.267 OA
HETATM   25  H   UNL     1      41.460 -15.592   5.110  1.00  0.00     0.169 HD
BRANCH  23  26
HETATM   26  C   UNL     1      43.218 -16.629   3.557  1.00  0.00     0.054 A 
HETATM   27  C   UNL     1      43.993 -17.304   4.512  1.00  0.00     0.049 A 
HETATM   28 CL   UNL     1      44.555 -16.589   5.985  1.00  0.00    -0.083 Cl
HETATM   29  C   UNL     1      44.338 -18.650   4.317  1.00  0.00     0.025 A 
HETATM   30  C   UNL     1      43.906 -19.338   3.183  1.00  0.00     0.002 A 
HETATM   31  C   UNL     1      43.120 -18.687   2.240  1.00  0.00     0.001 A 
HETATM   32  C   UNL     1      42.779 -17.346   2.426  1.00  0.00     0.019 A 
ENDBRANCH  23  26
ENDBRANCH   5  22
TORSDOF 7
ENDMDL
MODEL 4
REMARK VINA RESULT:      -8.6      7.300     10.404
REMARK  7 active torsions:
REMARK  status: ('A' for Active; 'I' for Inactive)
REMARK    1  A    between atoms: C_3  and  C_4 
REMARK       I    between atoms: C_4  and  N_5 
REMARK    2  A    between atoms: N_5  and  C_6 
REMARK    3  A    between atoms: C_6  and  C_7 
REMARK    4  A    between atoms: C_7  and  O_8 
REMARK    5  A    between atoms: C_7  and  C_9 
REMARK    6  A    between atoms: C_18  and  N_19 
REMARK       I    between atoms: N_19  and  C_20 
REMARK    7  A    between atoms: C_20  and  C_21 
ROOT
HETATM    1  C   UNL     1      40.871 -11.228   4.498  1.00  0.00     0.050 C 
HETATM    2  C   UNL     1      41.165 -12.364   3.570  1.00  0.00    -0.037 A 
HETATM    3  C   UNL     1      41.235 -12.273   2.183  1.00  0.00     0.080 A 
HETATM    4  S   UNL     1      41.580 -13.798   1.479  1.00  0.00    -0.066 SA
HETATM    5  C   UNL     1      41.698 -14.567   2.979  1.00  0.00     0.078 A 
HETATM    6  C   UNL     1      41.443 -13.700   4.016  1.00  0.00     0.045 A 
ENDROOT
BRANCH   3   7
HETATM    7  C   UNL     1      41.081 -11.077   1.358  1.00  0.00     0.259 C 
HETATM    8  N   UNL     1      39.851 -10.899   0.756  1.00  0.00    -0.354 N 
HETATM    9  H   UNL     1      39.175 -11.643   0.885  1.00  0.00     0.162 HD
HETATM   10  O   UNL     1      41.983 -10.263   1.170  1.00  0.00    -0.267 OA
BRANCH   8  11
HETATM   11  C   UNL     1      39.638  -9.957  -0.338  1.00  0.00     0.159 C 
BRANCH  11  12
HETATM   12  C   UNL     1      40.134 -10.441  -1.722  1.00  0.00     0.169 C 
BRANCH  12  13
HETATM   13  O   UNL     1      41.559 -10.479  -1.803  1.00  0.00    -0.389 OA
HETATM   14  H   UNL     1      41.790 -10.896  -2.660  1.00  0.00     0.210 HD
ENDBRANCH  12  13
BRANCH  12  15
HETATM   15  C   UNL     1      39.627 -11.847  -1.994  1.00  0.00    -0.028 A 
HETATM   16  C   UNL     1      40.531 -12.907  -2.169  1.00  0.00     0.013 A 
HETATM   17  C   UNL     1      40.064 -14.193  -2.453  1.00  0.00     0.043 A 
HETATM   18  C   UNL     1      38.697 -14.421  -2.565  1.00  0.00     0.116 A 
HETATM   19  F   UNL     1      38.254 -15.655  -2.840  1.00  0.00    -0.206 F 
HETATM   20  C   UNL     1      37.785 -13.388  -2.398  1.00  0.00     0.043 A 
HETATM   21  C   UNL     1      38.248 -12.103  -2.114  1.00  0.00     0.013 A 
ENDBRANCH  12  15
ENDBRANCH  11  12
ENDBRANCH   8  11
ENDBRANCH   3   7
BRANCH   5  22
HETATM   22  N   UNL     1      42.055 -15.895   3.116  1.00  0.00    -0.317 N 
HETATM   23  C   UNL     1      43.079 -16.556   2.466  1.00  0.00     0.258 C 
HETATM   24  O   UNL     1      43.794 -16.093   1.583  1.00  0.00    -0.267 OA
HETATM   25  H   UNL     1      41.482 -16.429   3.757  1.00  0.00     0.169 HD
BRANCH  23  26
HETATM   26  C   UNL     1      43.364 -17.957   2.925  1.00  0.00     0.054 A 
HETATM   27  C   UNL     1      43.949 -18.325   4.147  1.00  0.00     0.049 A 
HETATM   28 CL   UNL     1      44.376 -17.202   5.393  1.00  0.00    -0.083 Cl
HETATM   29  C   UNL     1      44.198 -19.676   4.431  1.00  0.00     0.025 A 
HETATM   30  C   UNL     1      43.857 -20.671   3.515  1.00  0.00     0.002 A 
HETATM   31  C   UNL     1      43.259 -20.322   2.310  1.00  0.00     0.001 A 
HETATM   32  C   UNL     1      43.014 -18.979   2.020  1.00  0.00     0.019 A 
ENDBRANCH  23  26
ENDBRANCH   5  22
TORSDOF 7
ENDMDL
MODEL 5
REMARK VINA RESULT:      -8.3      7.963     10.407
REMARK  7 active torsions:
REMARK  status: ('A' for Active; 'I' for Inactive)
REMARK    1  A    between atoms: C_3  and  C_4 
REMARK       I    between atoms: C_4  and  N_5 
REMARK    2  A    between atoms: N_5  and  C_6 
REMARK    3  A    between atoms: C_6  and  C_7 
REMARK    4  A    between atoms: C_7  and  O_8 
REMARK    5  A    between atoms: C_7  and  C_9 
REMARK    6  A    between atoms: C_18  and  N_19 
REMARK       I    between atoms: N_19  and  C_20 
REMARK    7  A    between atoms: C_20  and  C_21 
ROOT
HETATM    1  C   UNL     1      40.096 -11.725   3.446  1.00  0.00     0.050 C 
HETATM    2  C   UNL     1      40.360 -12.988   2.691  1.00  0.00    -0.037 A 
HETATM    3  C   UNL     1      40.153 -13.168   1.326  1.00  0.00     0.080 A 
HETATM    4  S   UNL     1      40.561 -14.761   0.842  1.00  0.00    -0.066 SA
HETATM    5  C   UNL     1      41.066 -15.201   2.393  1.00  0.00     0.078 A 
HETATM    6  C   UNL     1      40.896 -14.175   3.294  1.00  0.00     0.045 A 
ENDROOT
BRANCH   3   7
HETATM    7  C   UNL     1      39.683 -12.181   0.357  1.00  0.00     0.259 C 
HETATM    8  N   UNL     1      40.653 -11.448  -0.296  1.00  0.00    -0.354 N 
HETATM    9  H   UNL     1      41.611 -11.610  -0.005  1.00  0.00     0.162 HD
HETATM   10  O   UNL     1      38.493 -11.973   0.127  1.00  0.00    -0.267 OA
BRANCH   8  11
HETATM   11  C   UNL     1      40.354 -10.224  -1.033  1.00  0.00     0.159 C 
BRANCH  11  12
HETATM   12  C   UNL     1      41.176  -8.986  -0.600  1.00  0.00     0.169 C 
BRANCH  12  13
HETATM   13  O   UNL     1      42.279  -9.334   0.237  1.00  0.00    -0.389 OA
HETATM   14  H   UNL     1      42.349  -8.641   0.928  1.00  0.00     0.210 HD
ENDBRANCH  12  13
BRANCH  12  15
HETATM   15  C   UNL     1      41.739  -8.281  -1.822  1.00  0.00    -0.028 A 
HETATM   16  C   UNL     1      41.234  -8.563  -3.101  1.00  0.00     0.013 A 
HETATM   17  C   UNL     1      41.775  -7.940  -4.228  1.00  0.00     0.043 A 
HETATM   18  C   UNL     1      42.822  -7.037  -4.080  1.00  0.00     0.116 A 
HETATM   19  F   UNL     1      43.341  -6.443  -5.163  1.00  0.00    -0.206 F 
HETATM   20  C   UNL     1      43.340  -6.743  -2.825  1.00  0.00     0.043 A 
HETATM   21  C   UNL     1      42.801  -7.365  -1.698  1.00  0.00     0.013 A 
ENDBRANCH  12  15
ENDBRANCH  11  12
ENDBRANCH   8  11
ENDBRANCH   3   7
BRANCH   5  22
HETATM   22  N   UNL     1      41.620 -16.435   2.682  1.00  0.00    -0.317 N 
HETATM   23  C   UNL     1      42.890 -16.875   2.364  1.00  0.00     0.258 C 
HETATM   24  O   UNL     1      43.717 -16.271   1.688  1.00  0.00    -0.267 OA
HETATM   25  H   UNL     1      41.006 -17.078   3.167  1.00  0.00     0.169 HD
BRANCH  23  26
HETATM   26  C   UNL     1      43.302 -18.196   2.946  1.00  0.00     0.054 A 
HETATM   27  C   UNL     1      43.855 -18.404   4.219  1.00  0.00     0.049 A 
HETATM   28 CL   UNL     1      44.088 -17.151   5.390  1.00  0.00    -0.083 Cl
HETATM   29  C   UNL     1      44.236 -19.693   4.621  1.00  0.00     0.025 A 
HETATM   30  C   UNL     1      44.057 -20.785   3.772  1.00  0.00     0.002 A 
HETATM   31  C   UNL     1      43.492 -20.596   2.517  1.00  0.00     0.001 A 
HETATM   32  C   UNL     1      43.117 -19.315   2.109  1.00  0.00     0.019 A 
ENDBRANCH  23  26
ENDBRANCH   5  22
TORSDOF 7
ENDMDL
MODEL 6
REMARK VINA RESULT:      -8.3      1.683      2.469
REMARK  7 active torsions:
REMARK  status: ('A' for Active; 'I' for Inactive)
REMARK    1  A    between atoms: C_3  and  C_4 
REMARK       I    between atoms: C_4  and  N_5 
REMARK    2  A    between atoms: N_5  and  C_6 
REMARK    3  A    between atoms: C_6  and  C_7 
REMARK    4  A    between atoms: C_7  and  O_8 
REMARK    5  A    between atoms: C_7  and  C_9 
REMARK    6  A    between atoms: C_18  and  N_19 
REMARK       I    between atoms: N_19  and  C_20 
REMARK    7  A    between atoms: C_20  and  C_21 
ROOT
HETATM    1  C   UNL     1      46.196 -10.248   7.980  1.00  0.00     0.050 C 
HETATM    2  C   UNL     1      44.980 -10.902   7.406  1.00  0.00    -0.037 A 
HETATM    3  C   UNL     1      43.674 -10.447   7.559  1.00  0.00     0.080 A 
HETATM    4  S   UNL     1      42.560 -11.480   6.763  1.00  0.00    -0.066 SA
HETATM    5  C   UNL     1      43.779 -12.486   6.167  1.00  0.00     0.078 A 
HETATM    6  C   UNL     1      45.024 -12.082   6.590  1.00  0.00     0.045 A 
ENDROOT
BRANCH   3   7
HETATM    7  C   UNL     1      43.223  -9.247   8.259  1.00  0.00     0.259 C 
HETATM    8  N   UNL     1      43.020  -9.366   9.619  1.00  0.00    -0.354 N 
HETATM    9  H   UNL     1      43.141 -10.293  10.013  1.00  0.00     0.162 HD
HETATM   10  O   UNL     1      43.004  -8.176   7.695  1.00  0.00    -0.267 OA
BRANCH   8  11
HETATM   11  C   UNL     1      42.273  -8.381  10.395  1.00  0.00     0.159 C 
BRANCH  11  12
HETATM   12  C   UNL     1      41.363  -8.974  11.498  1.00  0.00     0.169 C 
BRANCH  12  13
HETATM   13  O   UNL     1      41.471 -10.395  11.583  1.00  0.00    -0.389 OA
HETATM   14  H   UNL     1      41.346 -10.751  10.677  1.00  0.00     0.210 HD
ENDBRANCH  12  13
BRANCH  12  15
HETATM   15  C   UNL     1      41.750  -8.407  12.853  1.00  0.00    -0.028 A 
HETATM   16  C   UNL     1      40.965  -8.676  13.986  1.00  0.00     0.013 A 
HETATM   17  C   UNL     1      41.303  -8.127  15.225  1.00  0.00     0.043 A 
HETATM   18  C   UNL     1      42.422  -7.308  15.334  1.00  0.00     0.116 A 
HETATM   19  F   UNL     1      42.741  -6.781  16.524  1.00  0.00    -0.206 F 
HETATM   20  C   UNL     1      43.212  -7.027  14.228  1.00  0.00     0.043 A 
HETATM   21  C   UNL     1      42.876  -7.574  12.989  1.00  0.00     0.013 A 
ENDBRANCH  12  15
ENDBRANCH  11  12
ENDBRANCH   8  11
ENDBRANCH   3   7
BRANCH   5  22
HETATM   22  N   UNL     1      43.529 -13.552   5.323  1.00  0.00    -0.317 N 
HETATM   23  C   UNL     1      42.807 -14.694   5.611  1.00  0.00     0.258 C 
HETATM   24  O   UNL     1      42.339 -14.998   6.705  1.00  0.00    -0.267 OA
HETATM   25  H   UNL     1      43.940 -13.475   4.401  1.00  0.00     0.169 HD
BRANCH  23  26
HETATM   26  C   UNL     1      42.538 -15.620   4.461  1.00  0.00     0.054 A 
HETATM   27  C   UNL     1      43.264 -16.778   4.142  1.00  0.00     0.049 A 
HETATM   28 CL   UNL     1      44.575 -17.391   5.092  1.00  0.00    -0.083 Cl
HETATM   29  C   UNL     1      42.927 -17.532   3.008  1.00  0.00     0.025 A 
HETATM   30  C   UNL     1      41.862 -17.153   2.191  1.00  0.00     0.002 A 
HETATM   31  C   UNL     1      41.122 -16.020   2.507  1.00  0.00     0.001 A 
HETATM   32  C   UNL     1      41.456 -15.263   3.631  1.00  0.00     0.019 A 
ENDBRANCH  23  26
ENDBRANCH   5  22
TORSDOF 7
ENDMDL
MODEL 7
REMARK VINA RESULT:      -8.3      7.064     10.341
REMARK  7 active torsions:
REMARK  status: ('A' for Active; 'I' for Inactive)
REMARK    1  A    between atoms: C_3  and  C_4 
REMARK       I    between atoms: C_4  and  N_5 
REMARK    2  A    between atoms: N_5  and  C_6 
REMARK    3  A    between atoms: C_6  and  C_7 
REMARK    4  A    between atoms: C_7  and  O_8 
REMARK    5  A    between atoms: C_7  and  C_9 
REMARK    6  A    between atoms: C_18  and  N_19 
REMARK       I    between atoms: N_19  and  C_20 
REMARK    7  A    between atoms: C_20  and  C_21 
ROOT
HETATM    1  C   UNL     1      39.903 -11.819   5.398  1.00  0.00     0.050 C 
HETATM    2  C   UNL     1      40.057 -12.877   4.352  1.00  0.00    -0.037 A 
HETATM    3  C   UNL     1      39.627 -12.773   3.032  1.00  0.00     0.080 A 
HETATM    4  S   UNL     1      39.974 -14.204   2.153  1.00  0.00    -0.066 SA
HETATM    5  C   UNL     1      40.740 -14.936   3.469  1.00  0.00     0.078 A 
HETATM    6  C   UNL     1      40.707 -14.135   4.587  1.00  0.00     0.045 A 
ENDROOT
BRANCH   3   7
HETATM    7  C   UNL     1      38.985 -11.629   2.391  1.00  0.00     0.259 C 
HETATM    8  N   UNL     1      37.983 -11.913   1.484  1.00  0.00    -0.354 N 
HETATM    9  H   UNL     1      37.817 -12.894   1.290  1.00  0.00     0.162 HD
HETATM   10  O   UNL     1      39.309 -10.463   2.606  1.00  0.00    -0.267 OA
BRANCH   8  11
HETATM   11  C   UNL     1      37.478 -10.928   0.533  1.00  0.00     0.159 C 
BRANCH  11  12
HETATM   12  C   UNL     1      37.105 -11.496  -0.858  1.00  0.00     0.169 C 
BRANCH  12  13
HETATM   13  O   UNL     1      36.642 -10.482  -1.750  1.00  0.00    -0.389 OA
HETATM   14  H   UNL     1      37.422  -9.952  -2.018  1.00  0.00     0.210 HD
ENDBRANCH  12  13
BRANCH  12  15
HETATM   15  C   UNL     1      38.320 -12.144  -1.500  1.00  0.00    -0.028 A 
HETATM   16  C   UNL     1      39.466 -11.383  -1.781  1.00  0.00     0.013 A 
HETATM   17  C   UNL     1      40.570 -11.972  -2.402  1.00  0.00     0.043 A 
HETATM   18  C   UNL     1      40.530 -13.319  -2.744  1.00  0.00     0.116 A 
HETATM   19  F   UNL     1      41.590 -13.881  -3.342  1.00  0.00    -0.206 F 
HETATM   20  C   UNL     1      39.407 -14.092  -2.477  1.00  0.00     0.043 A 
HETATM   21  C   UNL     1      38.303 -13.505  -1.858  1.00  0.00     0.013 A 
ENDBRANCH  12  15
ENDBRANCH  11  12
ENDBRANCH   8  11
ENDBRANCH   3   7
BRANCH   5  22
HETATM   22  N   UNL     1      41.354 -16.172   3.388  1.00  0.00    -0.317 N 
HETATM   23  C   UNL     1      42.676 -16.429   3.080  1.00  0.00     0.258 C 
HETATM   24  O   UNL     1      43.514 -15.600   2.735  1.00  0.00    -0.267 OA
HETATM   25  H   UNL     1      40.749 -16.965   3.563  1.00  0.00     0.169 HD
BRANCH  23  26
HETATM   26  C   UNL     1      43.131 -17.852   3.230  1.00  0.00     0.054 A 
HETATM   27  C   UNL     1      43.778 -18.401   4.347  1.00  0.00     0.049 A 
HETATM   28 CL   UNL     1      44.098 -17.528   5.808  1.00  0.00    -0.083 Cl
HETATM   29  C   UNL     1      44.187 -19.743   4.337  1.00  0.00     0.025 A 
HETATM   30  C   UNL     1      43.946 -20.552   3.227  1.00  0.00     0.002 A 
HETATM   31  C   UNL     1      43.287 -20.027   2.122  1.00  0.00     0.001 A 
HETATM   32  C   UNL     1      42.883 -18.691   2.125  1.00  0.00     0.019 A 
ENDBRANCH  23  26
ENDBRANCH   5  22
TORSDOF 7
ENDMDL
MODEL 8
REMARK VINA RESULT:      -8.1      7.582     10.739
REMARK  7 active torsions:
REMARK  status: ('A' for Active; 'I' for Inactive)
REMARK    1  A    between atoms: C_3  and  C_4 
REMARK       I    between atoms: C_4  and  N_5 
REMARK    2  A    between atoms: N_5  and  C_6 
REMARK    3  A    between atoms: C_6  and  C_7 
REMARK    4  A    between atoms: C_7  and  O_8 
REMARK    5  A    between atoms: C_7  and  C_9 
REMARK    6  A    between atoms: C_18  and  N_19 
REMARK       I    between atoms: N_19  and  C_20 
REMARK    7  A    between atoms: C_20  and  C_21 
ROOT
HETATM    1  C   UNL     1      39.900 -15.769   1.435  1.00  0.00     0.050 C 
HETATM    2  C   UNL     1      40.472 -14.387   1.419  1.00  0.00    -0.037 A 
HETATM    3  C   UNL     1      41.032 -13.735   2.514  1.00  0.00     0.080 A 
HETATM    4  S   UNL     1      41.561 -12.159   2.092  1.00  0.00    -0.066 SA
HETATM    5  C   UNL     1      41.118 -12.345   0.472  1.00  0.00     0.078 A 
HETATM    6  C   UNL     1      40.536 -13.569   0.241  1.00  0.00     0.045 A 
ENDROOT
BRANCH   3   7
HETATM    7  C   UNL     1      41.213 -14.256   3.866  1.00  0.00     0.259 C 
HETATM    8  N   UNL     1      42.466 -14.746   4.175  1.00  0.00    -0.354 N 
HETATM    9  H   UNL     1      43.142 -14.762   3.420  1.00  0.00     0.162 HD
HETATM   10  O   UNL     1      40.313 -14.293   4.703  1.00  0.00    -0.267 OA
BRANCH   8  11
HETATM   11  C   UNL     1      42.719 -15.584   5.343  1.00  0.00     0.159 C 
BRANCH  11  12
HETATM   12  C   UNL     1      44.023 -16.415   5.278  1.00  0.00     0.169 C 
BRANCH  12  13
HETATM   13  O   UNL     1      44.374 -16.970   6.546  1.00  0.00    -0.389 OA
HETATM   14  H   UNL     1      45.071 -17.642   6.387  1.00  0.00     0.210 HD
ENDBRANCH  12  13
BRANCH  12  15
HETATM   15  C   UNL     1      43.857 -17.572   4.308  1.00  0.00    -0.028 A 
HETATM   16  C   UNL     1      43.331 -17.353   3.025  1.00  0.00     0.013 A 
HETATM   17  C   UNL     1      43.147 -18.423   2.145  1.00  0.00     0.043 A 
HETATM   18  C   UNL     1      43.485 -19.710   2.546  1.00  0.00     0.116 A 
HETATM   19  F   UNL     1      43.304 -20.734   1.701  1.00  0.00    -0.206 F 
HETATM   20  C   UNL     1      44.005 -19.951   3.811  1.00  0.00     0.043 A 
HETATM   21  C   UNL     1      44.189 -18.885   4.691  1.00  0.00     0.013 A 
ENDBRANCH  12  15
ENDBRANCH  11  12
ENDBRANCH   8  11
ENDBRANCH   3   7
BRANCH   5  22
HETATM   22  N   UNL     1      41.365 -11.383  -0.489  1.00  0.00    -0.317 N 
HETATM   23  C   UNL     1      40.718 -10.172  -0.645  1.00  0.00     0.258 C 
HETATM   24  O   UNL     1      39.745  -9.784  -0.006  1.00  0.00    -0.267 OA
HETATM   25  H   UNL     1      42.095 -11.615  -1.152  1.00  0.00     0.169 HD
BRANCH  23  26
HETATM   26  C   UNL     1      41.297  -9.234  -1.665  1.00  0.00     0.054 A 
HETATM   27  C   UNL     1      40.844  -9.060  -2.981  1.00  0.00     0.049 A 
HETATM   28 CL   UNL     1      39.458  -9.861  -3.643  1.00  0.00    -0.083 Cl
HETATM   29  C   UNL     1      41.507  -8.175  -3.845  1.00  0.00     0.025 A 
HETATM   30  C   UNL     1      42.612  -7.447  -3.406  1.00  0.00     0.002 A 
HETATM   31  C   UNL     1      43.059  -7.594  -2.098  1.00  0.00     0.001 A 
HETATM   32  C   UNL     1      42.406  -8.478  -1.236  1.00  0.00     0.019 A 
ENDBRANCH  23  26
ENDBRANCH   5  22
TORSDOF 7
ENDMDL
MODEL 9
REMARK VINA RESULT:      -7.9      5.541     11.104
REMARK  7 active torsions:
REMARK  status: ('A' for Active; 'I' for Inactive)
REMARK    1  A    between atoms: C_3  and  C_4 
REMARK       I    between atoms: C_4  and  N_5 
REMARK    2  A    between atoms: N_5  and  C_6 
REMARK    3  A    between atoms: C_6  and  C_7 
REMARK    4  A    between atoms: C_7  and  O_8 
REMARK    5  A    between atoms: C_7  and  C_9 
REMARK    6  A    between atoms: C_18  and  N_19 
REMARK       I    between atoms: N_19  and  C_20 
REMARK    7  A    between atoms: C_20  and  C_21 
ROOT
HETATM    1  C   UNL     1      43.345 -16.663   5.179  1.00  0.00     0.050 C 
HETATM    2  C   UNL     1      43.269 -15.176   5.322  1.00  0.00    -0.037 A 
HETATM    3  C   UNL     1      43.053 -14.278   4.282  1.00  0.00     0.080 A 
HETATM    4  S   UNL     1      43.048 -12.660   4.851  1.00  0.00    -0.066 SA
HETATM    5  C   UNL     1      43.266 -13.129   6.459  1.00  0.00     0.078 A 
HETATM    6  C   UNL     1      43.384 -14.494   6.580  1.00  0.00     0.045 A 
ENDROOT
BRANCH   3   7
HETATM    7  C   UNL     1      42.821 -14.583   2.872  1.00  0.00     0.259 C 
HETATM    8  N   UNL     1      41.504 -14.669   2.468  1.00  0.00    -0.354 N 
HETATM    9  H   UNL     1      40.803 -14.575   3.196  1.00  0.00     0.162 HD
HETATM   10  O   UNL     1      43.727 -14.781   2.065  1.00  0.00    -0.267 OA
BRANCH   8  11
HETATM   11  C   UNL     1      41.105 -15.276   1.203  1.00  0.00     0.159 C 
BRANCH  11  12
HETATM   12  C   UNL     1      39.849 -14.652   0.547  1.00  0.00     0.169 C 
BRANCH  12  13
HETATM   13  O   UNL     1      39.120 -13.824   1.454  1.00  0.00    -0.389 OA
HETATM   14  H   UNL     1      38.188 -13.809   1.149  1.00  0.00     0.210 HD
ENDBRANCH  12  13
BRANCH  12  15
HETATM   15  C   UNL     1      40.253 -13.787  -0.633  1.00  0.00    -0.028 A 
HETATM   16  C   UNL     1      40.846 -12.532  -0.425  1.00  0.00     0.013 A 
HETATM   17  C   UNL     1      41.187 -11.722  -1.511  1.00  0.00     0.043 A 
HETATM   18  C   UNL     1      40.934 -12.163  -2.805  1.00  0.00     0.116 A 
HETATM   19  F   UNL     1      41.259 -11.382  -3.844  1.00  0.00    -0.206 F 
HETATM   20  C   UNL     1      40.347 -13.400  -3.036  1.00  0.00     0.043 A 
HETATM   21  C   UNL     1      40.005 -14.210  -1.953  1.00  0.00     0.013 A 
ENDBRANCH  12  15
ENDBRANCH  11  12
ENDBRANCH   8  11
ENDBRANCH   3   7
BRANCH   5  22
HETATM   22  N   UNL     1      43.276 -12.229   7.509  1.00  0.00    -0.317 N 
HETATM   23  C   UNL     1      44.234 -11.273   7.781  1.00  0.00     0.258 C 
HETATM   24  O   UNL     1      45.294 -11.118   7.180  1.00  0.00    -0.267 OA
HETATM   25  H   UNL     1      42.493 -12.306   8.147  1.00  0.00     0.169 HD
BRANCH  23  26
HETATM   26  C   UNL     1      43.918 -10.307   8.886  1.00  0.00     0.054 A 
HETATM   27  C   UNL     1      42.898  -9.343   8.877  1.00  0.00     0.049 A 
HETATM   28 CL   UNL     1      41.756  -9.154   7.590  1.00  0.00    -0.083 Cl
HETATM   29  C   UNL     1      42.739  -8.473   9.966  1.00  0.00     0.025 A 
HETATM   30  C   UNL     1      43.579  -8.562  11.076  1.00  0.00     0.002 A 
HETATM   31  C   UNL     1      44.580  -9.526  11.107  1.00  0.00     0.001 A 
HETATM   32  C   UNL     1      44.746 -10.390  10.024  1.00  0.00     0.019 A 
ENDBRANCH  23  26
ENDBRANCH   5  22
TORSDOF 7
ENDMDL
MODEL 10
REMARK VINA RESULT:      -7.8      4.546     10.774
REMARK  7 active torsions:
REMARK  status: ('A' for Active; 'I' for Inactive)
REMARK    1  A    between atoms: C_3  and  C_4 
REMARK       I    between atoms: C_4  and  N_5 
REMARK    2  A    between atoms: N_5  and  C_6 
REMARK    3  A    between atoms: C_6  and  C_7 
REMARK    4  A    between atoms: C_7  and  O_8 
REMARK    5  A    between atoms: C_7  and  C_9 
REMARK    6  A    between atoms: C_18  and  N_19 
REMARK       I    between atoms: N_19  and  C_20 
REMARK    7  A    between atoms: C_20  and  C_21 
ROOT
HETATM    1  C   UNL     1      41.201  -9.005   4.048  1.00  0.00     0.050 C 
HETATM    2  C   UNL     1      41.801  -9.383   5.365  1.00  0.00    -0.037 A 
HETATM    3  C   UNL     1      42.532 -10.541   5.613  1.00  0.00     0.080 A 
HETATM    4  S   UNL     1      43.036 -10.617   7.251  1.00  0.00    -0.066 SA
HETATM    5  C   UNL     1      42.356  -9.116   7.625  1.00  0.00     0.078 A 
HETATM    6  C   UNL     1      41.713  -8.564   6.541  1.00  0.00     0.045 A 
ENDROOT
BRANCH   3   7
HETATM    7  C   UNL     1      42.896 -11.588   4.662  1.00  0.00     0.259 C 
HETATM    8  N   UNL     1      42.080 -12.701   4.628  1.00  0.00    -0.354 N 
HETATM    9  H   UNL     1      41.330 -12.729   5.310  1.00  0.00     0.162 HD
HETATM   10  O   UNL     1      43.883 -11.525   3.931  1.00  0.00    -0.267 OA
BRANCH   8  11
HETATM   11  C   UNL     1      42.477 -13.951   3.989  1.00  0.00     0.159 C 
BRANCH  11  12
HETATM   12  C   UNL     1      43.195 -14.959   4.919  1.00  0.00     0.169 C 
BRANCH  12  13
HETATM   13  O   UNL     1      42.451 -15.224   6.108  1.00  0.00    -0.389 OA
HETATM   14  H   UNL     1      41.546 -14.871   5.969  1.00  0.00     0.210 HD
ENDBRANCH  12  13
BRANCH  12  15
HETATM   15  C   UNL     1      43.390 -16.283   4.200  1.00  0.00    -0.028 A 
HETATM   16  C   UNL     1      43.994 -17.366   4.858  1.00  0.00     0.013 A 
HETATM   17  C   UNL     1      44.203 -18.573   4.186  1.00  0.00     0.043 A 
HETATM   18  C   UNL     1      43.811 -18.699   2.858  1.00  0.00     0.116 A 
HETATM   19  F   UNL     1      44.016 -19.857   2.216  1.00  0.00    -0.206 F 
HETATM   20  C   UNL     1      43.213 -17.641   2.186  1.00  0.00     0.043 A 
HETATM   21  C   UNL     1      43.004 -16.435   2.855  1.00  0.00     0.013 A 
ENDBRANCH  12  15
ENDBRANCH  11  12
ENDBRANCH   8  11
ENDBRANCH   3   7
BRANCH   5  22
HETATM   22  N   UNL     1      42.485  -8.520   8.866  1.00  0.00    -0.317 N 
HETATM   23  C   UNL     1      41.633  -8.646   9.945  1.00  0.00     0.258 C 
HETATM   24  O   UNL     1      40.559  -9.242   9.955  1.00  0.00    -0.267 OA
HETATM   25  H   UNL     1      43.292  -7.918   8.971  1.00  0.00     0.169 HD
BRANCH  23  26
HETATM   26  C   UNL     1      42.095  -8.031  11.235  1.00  0.00     0.054 A 
HETATM   27  C   UNL     1      42.678  -8.713  12.314  1.00  0.00     0.049 A 
HETATM   28 CL   UNL     1      43.042 -10.405  12.309  1.00  0.00    -0.083 Cl
HETATM   29  C   UNL     1      43.027  -8.017  13.482  1.00  0.00     0.025 A 
HETATM   30  C   UNL     1      42.814  -6.642  13.582  1.00  0.00     0.002 A 
HETATM   31  C   UNL     1      42.257  -5.952  12.512  1.00  0.00     0.001 A 
HETATM   32  C   UNL     1      41.903  -6.640  11.350  1.00  0.00     0.019 A 
ENDBRANCH  23  26
ENDBRANCH   5  22
TORSDOF 7
ENDMDL
