MODEL 1
REMARK VINA RESULT:      -8.8      0.000      0.000
REMARK  5 active torsions:
REMARK  status: ('A' for Active; 'I' for Inactive)
REMARK    1  A    between atoms: C_2  and  C_3 
REMARK    2  A    between atoms: C_8  and  C_9 
REMARK       I    between atoms: C_9  and  N_10 
REMARK    3  A    between atoms: N_10  and  C_11 
REMARK    4  A    between atoms: C_11  and  C_12 
REMARK    5  A    between atoms: C_19  and  C_20 
ROOT
HETATM    1  C   UNL     1      41.695 -15.373   4.860  1.00  0.00     0.118 C 
HETATM    2  N   UNL     1      40.582 -14.861   4.068  1.00  0.00    -0.366 N 
HETATM    3  C   UNL     1      40.778 -13.886   3.151  1.00  0.00     0.123 C 
HETATM    4  N   UNL     1      41.932 -13.148   3.118  1.00  0.00    -0.240 N 
HETATM    5  N   UNL     1      42.035 -12.375   2.022  1.00  0.00    -0.165 NA
HETATM    6  C   UNL     1      40.841 -12.525   1.405  1.00  0.00     0.148 C 
HETATM    7  C   UNL     1      40.016 -13.450   2.101  1.00  0.00     0.088 C 
HETATM    8  C   UNL     1      43.064 -13.370   3.999  1.00  0.00     0.221 C 
HETATM    9  C   UNL     1      42.668 -14.240   5.208  1.00  0.00     0.066 C 
HETATM   10  H   UNL     1      39.827 -15.531   3.924  1.00  0.00     0.161 HD
ENDROOT
BRANCH   6  11
HETATM   11  C   UNL     1      40.519 -11.843   0.142  1.00  0.00     0.272 C 
HETATM   12  N   UNL     1      40.921 -12.541  -0.973  1.00  0.00    -0.353 N 
HETATM   13  H   UNL     1      41.530 -13.337  -0.798  1.00  0.00     0.162 HD
HETATM   14  O   UNL     1      39.935 -10.765   0.093  1.00  0.00    -0.266 OA
BRANCH  12  15
HETATM   15  C   UNL     1      40.774 -12.028  -2.317  1.00  0.00     0.155 C 
BRANCH  15  16
HETATM   16  C   UNL     1      39.674 -12.745  -3.101  1.00  0.00     0.139 C 
HETATM   17  O   UNL     1      39.872 -14.172  -3.063  1.00  0.00    -0.384 OA
HETATM   18  C   UNL     1      38.585 -14.804  -3.095  1.00  0.00     0.168 C 
HETATM   19  C   UNL     1      37.535 -13.711  -3.053  1.00  0.00     0.029 C 
HETATM   20  C   UNL     1      38.295 -12.529  -2.506  1.00  0.00     0.035 C 
ENDBRANCH  15  16
ENDBRANCH  12  15
ENDBRANCH   6  11
BRANCH   8  21
HETATM   21  C   UNL     1      43.647 -12.061   4.487  1.00  0.00     0.409 C 
HETATM   22  F   UNL     1      42.695 -11.137   4.748  1.00  0.00    -0.169 F 
HETATM   23  F   UNL     1      44.316 -12.267   5.655  1.00  0.00    -0.169 F 
HETATM   24  F   UNL     1      44.541 -11.518   3.636  1.00  0.00    -0.169 F 
ENDBRANCH   8  21
BRANCH   1  25
HETATM   25  C   UNL     1      42.346 -16.587   4.211  1.00  0.00    -0.035 A 
HETATM   26  C   UNL     1      43.315 -17.374   4.856  1.00  0.00     0.011 A 
HETATM   27  C   UNL     1      43.886 -18.482   4.221  1.00  0.00     0.024 A 
HETATM   28  C   UNL     1      43.498 -18.814   2.929  1.00  0.00     0.034 A 
HETATM   29  C   UNL     1      42.542 -18.052   2.265  1.00  0.00     0.024 A 
HETATM   30 CL   UNL     1      44.208 -20.170   2.142  1.00  0.00    -0.084 Cl
HETATM   31  C   UNL     1      41.967 -16.948   2.905  1.00  0.00     0.011 A 
ENDBRANCH   1  25
TORSDOF 5
ENDMDL
MODEL 2
REMARK VINA RESULT:      -8.5      4.510      8.146
REMARK  5 active torsions:
REMARK  status: ('A' for Active; 'I' for Inactive)
REMARK    1  A    between atoms: C_2  and  C_3 
REMARK    2  A    between atoms: C_8  and  C_9 
REMARK       I    between atoms: C_9  and  N_10 
REMARK    3  A    between atoms: N_10  and  C_11 
REMARK    4  A    between atoms: C_11  and  C_12 
REMARK    5  A    between atoms: C_19  and  C_20 
ROOT
HETATM    1  C   UNL     1      39.832 -14.894   2.002  1.00  0.00     0.118 C 
HETATM    2  N   UNL     1      39.829 -14.336   3.350  1.00  0.00    -0.366 N 
HETATM    3  C   UNL     1      40.944 -14.371   4.114  1.00  0.00     0.123 C 
HETATM    4  N   UNL     1      42.016 -15.162   3.790  1.00  0.00    -0.240 N 
HETATM    5  N   UNL     1      43.104 -14.913   4.542  1.00  0.00    -0.165 NA
HETATM    6  C   UNL     1      42.665 -14.030   5.467  1.00  0.00     0.148 C 
HETATM    7  C   UNL     1      41.305 -13.685   5.243  1.00  0.00     0.088 C 
HETATM    8  C   UNL     1      42.093 -15.975   2.590  1.00  0.00     0.221 C 
HETATM    9  C   UNL     1      40.703 -16.155   1.948  1.00  0.00     0.066 C 
HETATM   10  H   UNL     1      39.157 -13.582   3.490  1.00  0.00     0.161 HD
ENDROOT
BRANCH   6  11
HETATM   11  C   UNL     1      43.547 -13.480   6.508  1.00  0.00     0.272 C 
HETATM   12  N   UNL     1      44.263 -12.382   6.092  1.00  0.00    -0.353 N 
HETATM   13  H   UNL     1      44.234 -12.190   5.094  1.00  0.00     0.162 HD
HETATM   14  O   UNL     1      43.621 -13.949   7.639  1.00  0.00    -0.266 OA
BRANCH  12  15
HETATM   15  C   UNL     1      45.247 -11.723   6.924  1.00  0.00     0.155 C 
BRANCH  15  16
HETATM   16  C   UNL     1      44.634 -10.632   7.802  1.00  0.00     0.139 C 
HETATM   17  O   UNL     1      44.347 -11.144   9.119  1.00  0.00    -0.384 OA
HETATM   18  C   UNL     1      44.511 -10.074  10.061  1.00  0.00     0.168 C 
HETATM   19  C   UNL     1      45.019  -8.865   9.299  1.00  0.00     0.029 C 
HETATM   20  C   UNL     1      45.579  -9.468   8.036  1.00  0.00     0.035 C 
ENDBRANCH  15  16
ENDBRANCH  12  15
ENDBRANCH   6  11
BRANCH   8  21
HETATM   21  C   UNL     1      42.695 -17.332   2.882  1.00  0.00     0.409 C 
HETATM   22  F   UNL     1      42.525 -17.706   4.171  1.00  0.00    -0.169 F 
HETATM   23  F   UNL     1      42.077 -18.279   2.122  1.00  0.00    -0.169 F 
HETATM   24  F   UNL     1      44.008 -17.415   2.588  1.00  0.00    -0.169 F 
ENDBRANCH   8  21
BRANCH   1  25
HETATM   25  C   UNL     1      40.171 -13.845   0.952  1.00  0.00    -0.035 A 
HETATM   26  C   UNL     1      40.036 -14.071  -0.429  1.00  0.00     0.011 A 
HETATM   27  C   UNL     1      40.360 -13.078  -1.359  1.00  0.00     0.024 A 
HETATM   28  C   UNL     1      40.829 -11.846  -0.920  1.00  0.00     0.034 A 
HETATM   29  C   UNL     1      40.975 -11.595   0.441  1.00  0.00     0.024 A 
HETATM   30 CL   UNL     1      41.239 -10.628  -2.063  1.00  0.00    -0.084 Cl
HETATM   31  C   UNL     1      40.644 -12.587   1.370  1.00  0.00     0.011 A 
ENDBRANCH   1  25
TORSDOF 5
ENDMDL
MODEL 3
REMARK VINA RESULT:      -8.5      4.345      7.776
REMARK  5 active torsions:
REMARK  status: ('A' for Active; 'I' for Inactive)
REMARK    1  A    between atoms: C_2  and  C_3 
REMARK    2  A    between atoms: C_8  and  C_9 
REMARK       I    between atoms: C_9  and  N_10 
REMARK    3  A    between atoms: N_10  and  C_11 
REMARK    4  A    between atoms: C_11  and  C_12 
REMARK    5  A    between atoms: C_19  and  C_20 
ROOT
HETATM    1  C   UNL     1      42.637 -14.339   2.353  1.00  0.00     0.118 C 
HETATM    2  N   UNL     1      43.502 -13.240   2.768  1.00  0.00    -0.366 N 
HETATM    3  C   UNL     1      43.191 -12.486   3.847  1.00  0.00     0.123 C 
HETATM    4  N   UNL     1      41.944 -12.521   4.416  1.00  0.00    -0.240 N 
HETATM    5  N   UNL     1      41.880 -11.869   5.591  1.00  0.00    -0.165 NA
HETATM    6  C   UNL     1      43.094 -11.283   5.704  1.00  0.00     0.148 C 
HETATM    7  C   UNL     1      43.935 -11.630   4.613  1.00  0.00     0.088 C 
HETATM    8  C   UNL     1      40.874 -13.397   3.975  1.00  0.00     0.221 C 
HETATM    9  C   UNL     1      41.165 -13.972   2.575  1.00  0.00     0.066 C 
HETATM   10  H   UNL     1      44.483 -13.361   2.516  1.00  0.00     0.161 HD
ENDROOT
BRANCH   6  11
HETATM   11  C   UNL     1      43.461 -10.458   6.865  1.00  0.00     0.272 C 
HETATM   12  N   UNL     1      44.474 -10.999   7.621  1.00  0.00    -0.353 N 
HETATM   13  H   UNL     1      44.724 -11.959   7.399  1.00  0.00     0.162 HD
HETATM   14  O   UNL     1      42.924  -9.384   7.119  1.00  0.00    -0.266 OA
BRANCH  12  15
HETATM   15  C   UNL     1      44.948 -10.397   8.848  1.00  0.00     0.155 C 
BRANCH  15  16
HETATM   16  C   UNL     1      43.849 -10.280   9.906  1.00  0.00     0.139 C 
HETATM   17  O   UNL     1      43.906 -11.393  10.820  1.00  0.00    -0.384 OA
HETATM   18  C   UNL     1      43.470 -10.937  12.108  1.00  0.00     0.168 C 
HETATM   19  C   UNL     1      43.223  -9.444  12.008  1.00  0.00     0.029 C 
HETATM   20  C   UNL     1      44.006  -9.050  10.781  1.00  0.00     0.035 C 
ENDBRANCH  15  16
ENDBRANCH  12  15
ENDBRANCH   6  11
BRANCH   8  21
HETATM   21  C   UNL     1      39.544 -12.675   3.959  1.00  0.00     0.409 C 
HETATM   22  F   UNL     1      38.951 -12.658   5.175  1.00  0.00    -0.169 F 
HETATM   23  F   UNL     1      39.735 -11.374   3.605  1.00  0.00    -0.169 F 
HETATM   24  F   UNL     1      38.666 -13.180   3.068  1.00  0.00    -0.169 F 
ENDBRANCH   8  21
BRANCH   1  25
HETATM   25  C   UNL     1      43.058 -15.664   2.975  1.00  0.00    -0.035 A 
HETATM   26  C   UNL     1      43.341 -15.813   4.344  1.00  0.00     0.011 A 
HETATM   27  C   UNL     1      43.725 -17.050   4.871  1.00  0.00     0.024 A 
HETATM   28  C   UNL     1      43.836 -18.154   4.035  1.00  0.00     0.034 A 
HETATM   29  C   UNL     1      43.564 -18.035   2.676  1.00  0.00     0.024 A 
HETATM   30 CL   UNL     1      44.319 -19.674   4.681  1.00  0.00    -0.084 Cl
HETATM   31  C   UNL     1      43.174 -16.799   2.151  1.00  0.00     0.011 A 
ENDBRANCH   1  25
TORSDOF 5
ENDMDL
MODEL 4
REMARK VINA RESULT:      -8.4      4.571      8.090
REMARK  5 active torsions:
REMARK  status: ('A' for Active; 'I' for Inactive)
REMARK    1  A    between atoms: C_2  and  C_3 
REMARK    2  A    between atoms: C_8  and  C_9 
REMARK       I    between atoms: C_9  and  N_10 
REMARK    3  A    between atoms: N_10  and  C_11 
REMARK    4  A    between atoms: C_11  and  C_12 
REMARK    5  A    between atoms: C_19  and  C_20 
ROOT
HETATM    1  C   UNL     1      40.601 -15.053   5.369  1.00  0.00     0.118 C 
HETATM    2  N   UNL     1      40.909 -13.783   6.016  1.00  0.00    -0.366 N 
HETATM    3  C   UNL     1      42.191 -13.402   6.215  1.00  0.00     0.123 C 
HETATM    4  N   UNL     1      43.233 -14.284   6.091  1.00  0.00    -0.240 N 
HETATM    5  N   UNL     1      44.438 -13.687   6.121  1.00  0.00    -0.165 NA
HETATM    6  C   UNL     1      44.155 -12.397   6.413  1.00  0.00     0.148 C 
HETATM    7  C   UNL     1      42.753 -12.188   6.503  1.00  0.00     0.088 C 
HETATM    8  C   UNL     1      43.082 -15.668   5.679  1.00  0.00     0.221 C 
HETATM    9  C   UNL     1      41.614 -16.125   5.790  1.00  0.00     0.066 C 
HETATM   10  H   UNL     1      40.194 -13.066   5.893  1.00  0.00     0.161 HD
ENDROOT
BRANCH   6  11
HETATM   11  C   UNL     1      45.204 -11.374   6.542  1.00  0.00     0.272 C 
HETATM   12  N   UNL     1      45.224 -10.765   7.774  1.00  0.00    -0.353 N 
HETATM   13  H   UNL     1      44.427 -10.961   8.375  1.00  0.00     0.162 HD
HETATM   14  O   UNL     1      45.991 -11.105   5.640  1.00  0.00    -0.266 OA
BRANCH  12  15
HETATM   15  C   UNL     1      46.122  -9.679   8.101  1.00  0.00     0.155 C 
BRANCH  15  16
HETATM   16  C   UNL     1      45.510  -8.692   9.096  1.00  0.00     0.139 C 
HETATM   17  O   UNL     1      44.772  -7.667   8.403  1.00  0.00    -0.384 OA
HETATM   18  C   UNL     1      43.674  -7.266   9.233  1.00  0.00     0.168 C 
HETATM   19  C   UNL     1      43.677  -8.157  10.461  1.00  0.00     0.029 C 
HETATM   20  C   UNL     1      44.497  -9.343  10.020  1.00  0.00     0.035 C 
ENDBRANCH  15  16
ENDBRANCH  12  15
ENDBRANCH   6  11
BRANCH   8  21
HETATM   21  C   UNL     1      43.961 -16.586   6.500  1.00  0.00     0.409 C 
HETATM   22  F   UNL     1      43.808 -16.394   7.830  1.00  0.00    -0.169 F 
HETATM   23  F   UNL     1      43.622 -17.882   6.255  1.00  0.00    -0.169 F 
HETATM   24  F   UNL     1      45.273 -16.481   6.206  1.00  0.00    -0.169 F 
ENDBRANCH   8  21
BRANCH   1  25
HETATM   25  C   UNL     1      40.430 -14.901   3.864  1.00  0.00    -0.035 A 
HETATM   26  C   UNL     1      40.089 -13.683   3.251  1.00  0.00     0.011 A 
HETATM   27  C   UNL     1      39.943 -13.590   1.863  1.00  0.00     0.024 A 
HETATM   28  C   UNL     1      40.131 -14.715   1.070  1.00  0.00     0.034 A 
HETATM   29  C   UNL     1      40.468 -15.934   1.650  1.00  0.00     0.024 A 
HETATM   30 CL   UNL     1      39.940 -14.604  -0.636  1.00  0.00    -0.084 Cl
HETATM   31  C   UNL     1      40.620 -16.024   3.038  1.00  0.00     0.011 A 
ENDBRANCH   1  25
TORSDOF 5
ENDMDL
MODEL 5
REMARK VINA RESULT:      -8.0      1.857      3.015
REMARK  5 active torsions:
REMARK  status: ('A' for Active; 'I' for Inactive)
REMARK    1  A    between atoms: C_2  and  C_3 
REMARK    2  A    between atoms: C_8  and  C_9 
REMARK       I    between atoms: C_9  and  N_10 
REMARK    3  A    between atoms: N_10  and  C_11 
REMARK    4  A    between atoms: C_11  and  C_12 
REMARK    5  A    between atoms: C_19  and  C_20 
ROOT
HETATM    1  C   UNL     1      41.801 -15.363   4.967  1.00  0.00     0.118 C 
HETATM    2  N   UNL     1      40.555 -14.870   4.392  1.00  0.00    -0.366 N 
HETATM    3  C   UNL     1      40.564 -13.880   3.470  1.00  0.00     0.123 C 
HETATM    4  N   UNL     1      41.677 -13.112   3.247  1.00  0.00    -0.240 N 
HETATM    5  N   UNL     1      41.568 -12.324   2.163  1.00  0.00    -0.165 NA
HETATM    6  C   UNL     1      40.287 -12.497   1.762  1.00  0.00     0.148 C 
HETATM    7  C   UNL     1      39.620 -13.451   2.576  1.00  0.00     0.088 C 
HETATM    8  C   UNL     1      42.951 -13.315   3.912  1.00  0.00     0.221 C 
HETATM    9  C   UNL     1      42.794 -14.209   5.158  1.00  0.00     0.066 C 
HETATM   10  H   UNL     1      39.802 -15.558   4.371  1.00  0.00     0.161 HD
ENDROOT
BRANCH   6  11
HETATM   11  C   UNL     1      39.734 -11.809   0.586  1.00  0.00     0.272 C 
HETATM   12  N   UNL     1      40.623 -10.948  -0.012  1.00  0.00    -0.353 N 
HETATM   13  H   UNL     1      41.474 -10.760   0.512  1.00  0.00     0.162 HD
HETATM   14  O   UNL     1      38.594 -12.001   0.174  1.00  0.00    -0.266 OA
BRANCH  12  15
HETATM   15  C   UNL     1      40.272 -10.112  -1.139  1.00  0.00     0.155 C 
BRANCH  15  16
HETATM   16  C   UNL     1      41.499  -9.525  -1.838  1.00  0.00     0.139 C 
HETATM   17  O   UNL     1      41.101  -8.680  -2.937  1.00  0.00    -0.384 OA
HETATM   18  C   UNL     1      42.068  -7.629  -3.067  1.00  0.00     0.168 C 
HETATM   19  C   UNL     1      43.062  -7.776  -1.931  1.00  0.00     0.029 C 
HETATM   20  C   UNL     1      42.316  -8.623  -0.931  1.00  0.00     0.035 C 
ENDBRANCH  15  16
ENDBRANCH  12  15
ENDBRANCH   6  11
BRANCH   8  21
HETATM   21  C   UNL     1      43.580 -11.998   4.311  1.00  0.00     0.409 C 
HETATM   22  F   UNL     1      44.311 -12.097   5.445  1.00  0.00    -0.169 F 
HETATM   23  F   UNL     1      44.437 -11.587   3.335  1.00  0.00    -0.169 F 
HETATM   24  F   UNL     1      42.687 -10.999   4.469  1.00  0.00    -0.169 F 
ENDBRANCH   8  21
BRANCH   1  25
HETATM   25  C   UNL     1      42.356 -16.552   4.195  1.00  0.00    -0.035 A 
HETATM   26  C   UNL     1      41.948 -16.876   2.890  1.00  0.00     0.011 A 
HETATM   27  C   UNL     1      42.485 -17.979   2.218  1.00  0.00     0.024 A 
HETATM   28  C   UNL     1      43.434 -18.777   2.846  1.00  0.00     0.034 A 
HETATM   29  C   UNL     1      43.855 -18.481   4.138  1.00  0.00     0.024 A 
HETATM   30 CL   UNL     1      44.087 -20.140   2.025  1.00  0.00    -0.084 Cl
HETATM   31  C   UNL     1      43.322 -17.373   4.806  1.00  0.00     0.011 A 
ENDBRANCH   1  25
TORSDOF 5
ENDMDL
MODEL 6
REMARK VINA RESULT:      -8.0      1.588      2.456
REMARK  5 active torsions:
REMARK  status: ('A' for Active; 'I' for Inactive)
REMARK    1  A    between atoms: C_2  and  C_3 
REMARK    2  A    between atoms: C_8  and  C_9 
REMARK       I    between atoms: C_9  and  N_10 
REMARK    3  A    between atoms: N_10  and  C_11 
REMARK    4  A    between atoms: C_11  and  C_12 
REMARK    5  A    between atoms: C_19  and  C_20 
ROOT
HETATM    1  C   UNL     1      41.583 -15.465   5.424  1.00  0.00     0.118 C 
HETATM    2  N   UNL     1      40.456 -15.439   4.498  1.00  0.00    -0.366 N 
HETATM    3  C   UNL     1      40.579 -14.870   3.277  1.00  0.00     0.123 C 
HETATM    4  N   UNL     1      41.637 -14.058   2.963  1.00  0.00    -0.240 N 
HETATM    5  N   UNL     1      41.701 -13.753   1.654  1.00  0.00    -0.165 NA
HETATM    6  C   UNL     1      40.564 -14.278   1.143  1.00  0.00     0.148 C 
HETATM    7  C   UNL     1      39.823 -14.967   2.140  1.00  0.00     0.088 C 
HETATM    8  C   UNL     1      42.744 -13.781   3.861  1.00  0.00     0.221 C 
HETATM    9  C   UNL     1      42.396 -14.169   5.311  1.00  0.00     0.066 C 
HETATM   10  H   UNL     1      39.795 -16.205   4.622  1.00  0.00     0.161 HD
ENDROOT
BRANCH   6  11
HETATM   11  C   UNL     1      40.226 -14.175  -0.285  1.00  0.00     0.272 C 
HETATM   12  N   UNL     1      40.882 -13.154  -0.929  1.00  0.00    -0.353 N 
HETATM   13  H   UNL     1      41.375 -12.499  -0.328  1.00  0.00     0.162 HD
HETATM   14  O   UNL     1      39.445 -14.939  -0.844  1.00  0.00    -0.266 OA
BRANCH  12  15
HETATM   15  C   UNL     1      40.648 -12.820  -2.317  1.00  0.00     0.155 C 
BRANCH  15  16
HETATM   16  C   UNL     1      39.944 -11.473  -2.486  1.00  0.00     0.139 C 
HETATM   17  O   UNL     1      39.403 -11.024  -1.227  1.00  0.00    -0.384 OA
HETATM   18  C   UNL     1      39.449  -9.591  -1.205  1.00  0.00     0.168 C 
HETATM   19  C   UNL     1      40.142  -9.134  -2.475  1.00  0.00     0.029 C 
HETATM   20  C   UNL     1      40.888 -10.367  -2.919  1.00  0.00     0.035 C 
ENDBRANCH  15  16
ENDBRANCH  12  15
ENDBRANCH   6  11
BRANCH   8  21
HETATM   21  C   UNL     1      43.143 -12.322   3.809  1.00  0.00     0.409 C 
HETATM   22  F   UNL     1      42.083 -11.503   3.624  1.00  0.00    -0.169 F 
HETATM   23  F   UNL     1      43.707 -11.961   4.995  1.00  0.00    -0.169 F 
HETATM   24  F   UNL     1      44.061 -12.047   2.860  1.00  0.00    -0.169 F 
ENDBRANCH   8  21
BRANCH   1  25
HETATM   25  C   UNL     1      42.404 -16.740   5.290  1.00  0.00    -0.035 A 
HETATM   26  C   UNL     1      42.912 -17.199   4.062  1.00  0.00     0.011 A 
HETATM   27  C   UNL     1      43.662 -18.377   3.986  1.00  0.00     0.024 A 
HETATM   28  C   UNL     1      43.909 -19.116   5.136  1.00  0.00     0.034 A 
HETATM   29  C   UNL     1      43.417 -18.686   6.365  1.00  0.00     0.024 A 
HETATM   30 CL   UNL     1      44.822 -20.571   5.042  1.00  0.00    -0.084 Cl
HETATM   31  C   UNL     1      42.673 -17.504   6.441  1.00  0.00     0.011 A 
ENDBRANCH   1  25
TORSDOF 5
ENDMDL
MODEL 7
REMARK VINA RESULT:      -7.9      1.962      2.551
REMARK  5 active torsions:
REMARK  status: ('A' for Active; 'I' for Inactive)
REMARK    1  A    between atoms: C_2  and  C_3 
REMARK    2  A    between atoms: C_8  and  C_9 
REMARK       I    between atoms: C_9  and  N_10 
REMARK    3  A    between atoms: N_10  and  C_11 
REMARK    4  A    between atoms: C_11  and  C_12 
REMARK    5  A    between atoms: C_19  and  C_20 
ROOT
HETATM    1  C   UNL     1      41.796 -15.504   4.985  1.00  0.00     0.118 C 
HETATM    2  N   UNL     1      40.559 -15.052   4.358  1.00  0.00    -0.366 N 
HETATM    3  C   UNL     1      40.576 -14.080   3.418  1.00  0.00     0.123 C 
HETATM    4  N   UNL     1      41.678 -13.290   3.218  1.00  0.00    -0.240 N 
HETATM    5  N   UNL     1      41.587 -12.525   2.116  1.00  0.00    -0.165 NA
HETATM    6  C   UNL     1      40.326 -12.736   1.676  1.00  0.00     0.148 C 
HETATM    7  C   UNL     1      39.653 -13.690   2.486  1.00  0.00     0.088 C 
HETATM    8  C   UNL     1      42.933 -13.450   3.929  1.00  0.00     0.221 C 
HETATM    9  C   UNL     1      42.755 -14.324   5.186  1.00  0.00     0.066 C 
HETATM   10  H   UNL     1      39.824 -15.758   4.326  1.00  0.00     0.161 HD
ENDROOT
BRANCH   6  11
HETATM   11  C   UNL     1      39.796 -12.083   0.469  1.00  0.00     0.272 C 
HETATM   12  N   UNL     1      38.449 -12.288   0.284  1.00  0.00    -0.353 N 
HETATM   13  H   UNL     1      38.024 -12.989   0.886  1.00  0.00     0.162 HD
HETATM   14  O   UNL     1      40.490 -11.410  -0.287  1.00  0.00    -0.266 OA
BRANCH  12  15
HETATM   15  C   UNL     1      37.731 -11.802  -0.874  1.00  0.00     0.155 C 
BRANCH  15  16
HETATM   16  C   UNL     1      37.100 -10.429  -0.639  1.00  0.00     0.139 C 
HETATM   17  O   UNL     1      36.087 -10.161  -1.629  1.00  0.00    -0.384 OA
HETATM   18  C   UNL     1      35.070  -9.352  -1.022  1.00  0.00     0.168 C 
HETATM   19  C   UNL     1      35.425  -9.193   0.445  1.00  0.00     0.029 C 
HETATM   20  C   UNL     1      36.377 -10.336   0.691  1.00  0.00     0.035 C 
ENDBRANCH  15  16
ENDBRANCH  12  15
ENDBRANCH   6  11
BRANCH   8  21
HETATM   21  C   UNL     1      43.518 -12.111   4.323  1.00  0.00     0.409 C 
HETATM   22  F   UNL     1      44.251 -11.555   3.332  1.00  0.00    -0.169 F 
HETATM   23  F   UNL     1      42.510 -11.235   4.595  1.00  0.00    -0.169 F 
HETATM   24  F   UNL     1      44.279 -12.160   5.435  1.00  0.00    -0.169 F 
ENDBRANCH   8  21
BRANCH   1  25
HETATM   25  C   UNL     1      42.404 -16.694   4.254  1.00  0.00    -0.035 A 
HETATM   26  C   UNL     1      43.370 -17.537   4.832  1.00  0.00     0.011 A 
HETATM   27  C   UNL     1      43.901 -18.619   4.123  1.00  0.00     0.024 A 
HETATM   28  C   UNL     1      43.477 -18.871   2.824  1.00  0.00     0.034 A 
HETATM   29  C   UNL     1      42.524 -18.052   2.227  1.00  0.00     0.024 A 
HETATM   30 CL   UNL     1      44.138 -20.195   1.948  1.00  0.00    -0.084 Cl
HETATM   31  C   UNL     1      41.988 -16.974   2.940  1.00  0.00     0.011 A 
ENDBRANCH   1  25
TORSDOF 5
ENDMDL
MODEL 8
REMARK VINA RESULT:      -7.9      5.491      7.805
REMARK  5 active torsions:
REMARK  status: ('A' for Active; 'I' for Inactive)
REMARK    1  A    between atoms: C_2  and  C_3 
REMARK    2  A    between atoms: C_8  and  C_9 
REMARK       I    between atoms: C_9  and  N_10 
REMARK    3  A    between atoms: N_10  and  C_11 
REMARK    4  A    between atoms: C_11  and  C_12 
REMARK    5  A    between atoms: C_19  and  C_20 
ROOT
HETATM    1  C   UNL     1      43.491  -8.420   8.297  1.00  0.00     0.118 C 
HETATM    2  N   UNL     1      42.404  -8.442   7.325  1.00  0.00    -0.366 N 
HETATM    3  C   UNL     1      42.037  -9.597   6.725  1.00  0.00     0.123 C 
HETATM    4  N   UNL     1      42.825 -10.717   6.774  1.00  0.00    -0.240 N 
HETATM    5  N   UNL     1      42.211 -11.818   6.304  1.00  0.00    -0.165 NA
HETATM    6  C   UNL     1      41.040 -11.352   5.813  1.00  0.00     0.148 C 
HETATM    7  C   UNL     1      40.909  -9.955   6.038  1.00  0.00     0.088 C 
HETATM    8  C   UNL     1      44.074 -10.801   7.511  1.00  0.00     0.221 C 
HETATM    9  C   UNL     1      44.596  -9.400   7.883  1.00  0.00     0.066 C 
HETATM   10  H   UNL     1      41.705  -7.712   7.462  1.00  0.00     0.161 HD
ENDROOT
BRANCH   6  11
HETATM   11  C   UNL     1      40.042 -12.237   5.194  1.00  0.00     0.272 C 
HETATM   12  N   UNL     1      40.330 -12.558   3.889  1.00  0.00    -0.353 N 
HETATM   13  H   UNL     1      41.082 -12.024   3.461  1.00  0.00     0.162 HD
HETATM   14  O   UNL     1      39.058 -12.657   5.794  1.00  0.00    -0.266 OA
BRANCH  12  15
HETATM   15  C   UNL     1      39.451 -13.354   3.061  1.00  0.00     0.155 C 
BRANCH  15  16
HETATM   16  C   UNL     1      40.206 -14.405   2.246  1.00  0.00     0.139 C 
HETATM   17  O   UNL     1      41.548 -13.959   1.965  1.00  0.00    -0.384 OA
HETATM   18  C   UNL     1      42.402 -15.111   1.916  1.00  0.00     0.168 C 
HETATM   19  C   UNL     1      41.562 -16.321   2.281  1.00  0.00     0.029 C 
HETATM   20  C   UNL     1      40.380 -15.714   2.994  1.00  0.00     0.035 C 
ENDBRANCH  15  16
ENDBRANCH  12  15
ENDBRANCH   6  11
BRANCH   8  21
HETATM   21  C   UNL     1      45.130 -11.541   6.720  1.00  0.00     0.409 C 
HETATM   22  F   UNL     1      45.147 -11.181   5.416  1.00  0.00    -0.169 F 
HETATM   23  F   UNL     1      46.363 -11.245   7.217  1.00  0.00    -0.169 F 
HETATM   24  F   UNL     1      45.013 -12.883   6.786  1.00  0.00    -0.169 F 
ENDBRANCH   8  21
BRANCH   1  25
HETATM   25  C   UNL     1      42.987  -8.601   9.722  1.00  0.00    -0.035 A 
HETATM   26  C   UNL     1      41.630  -8.500  10.074  1.00  0.00     0.011 A 
HETATM   27  C   UNL     1      41.212  -8.674  11.397  1.00  0.00     0.024 A 
HETATM   28  C   UNL     1      42.146  -8.947  12.388  1.00  0.00     0.034 A 
HETATM   29  C   UNL     1      43.497  -9.051  12.069  1.00  0.00     0.024 A 
HETATM   30 CL   UNL     1      41.634  -9.150  14.018  1.00  0.00    -0.084 Cl
HETATM   31  C   UNL     1      43.913  -8.883  10.744  1.00  0.00     0.011 A 
ENDBRANCH   1  25
TORSDOF 5
ENDMDL
MODEL 9
REMARK VINA RESULT:      -7.8     16.220     17.811
REMARK  5 active torsions:
REMARK  status: ('A' for Active; 'I' for Inactive)
REMARK    1  A    between atoms: C_2  and  C_3 
REMARK    2  A    between atoms: C_8  and  C_9 
REMARK       I    between atoms: C_9  and  N_10 
REMARK    3  A    between atoms: N_10  and  C_11 
REMARK    4  A    between atoms: C_11  and  C_12 
REMARK    5  A    between atoms: C_19  and  C_20 
ROOT
HETATM    1  C   UNL     1      46.952 -28.175  -1.008  1.00  0.00     0.118 C 
HETATM    2  N   UNL     1      46.006 -28.227   0.102  1.00  0.00    -0.366 N 
HETATM    3  C   UNL     1      44.984 -29.113   0.097  1.00  0.00     0.123 C 
HETATM    4  N   UNL     1      44.619 -29.787  -1.039  1.00  0.00    -0.240 N 
HETATM    5  N   UNL     1      43.728 -30.768  -0.809  1.00  0.00    -0.165 NA
HETATM    6  C   UNL     1      43.412 -30.621   0.498  1.00  0.00     0.148 C 
HETATM    7  C   UNL     1      44.166 -29.574   1.093  1.00  0.00     0.088 C 
HETATM    8  C   UNL     1      45.313 -29.675  -2.309  1.00  0.00     0.221 C 
HETATM    9  C   UNL     1      46.230 -28.437  -2.336  1.00  0.00     0.066 C 
HETATM   10  H   UNL     1      46.392 -27.922   0.996  1.00  0.00     0.161 HD
ENDROOT
BRANCH   6  11
HETATM   11  C   UNL     1      42.454 -31.506   1.178  1.00  0.00     0.272 C 
HETATM   12  N   UNL     1      41.588 -30.836   2.010  1.00  0.00    -0.353 N 
HETATM   13  H   UNL     1      41.816 -29.862   2.189  1.00  0.00     0.162 HD
HETATM   14  O   UNL     1      42.424 -32.720   1.003  1.00  0.00    -0.266 OA
BRANCH  12  15
HETATM   15  C   UNL     1      40.610 -31.510   2.835  1.00  0.00     0.155 C 
BRANCH  15  16
HETATM   16  C   UNL     1      40.707 -31.108   4.307  1.00  0.00     0.139 C 
HETATM   17  O   UNL     1      39.608 -31.662   5.058  1.00  0.00    -0.384 OA
HETATM   18  C   UNL     1      40.067 -31.935   6.389  1.00  0.00     0.168 C 
HETATM   19  C   UNL     1      41.551 -31.624   6.436  1.00  0.00     0.029 C 
HETATM   20  C   UNL     1      41.952 -31.652   4.983  1.00  0.00     0.035 C 
ENDBRANCH  15  16
ENDBRANCH  12  15
ENDBRANCH   6  11
BRANCH   8  21
HETATM   21  C   UNL     1      44.338 -29.608  -3.465  1.00  0.00     0.409 C 
HETATM   22  F   UNL     1      43.190 -28.973  -3.135  1.00  0.00    -0.169 F 
HETATM   23  F   UNL     1      44.892 -28.898  -4.487  1.00  0.00    -0.169 F 
HETATM   24  F   UNL     1      44.023 -30.815  -3.976  1.00  0.00    -0.169 F 
ENDBRANCH   8  21
BRANCH   1  25
HETATM   25  C   UNL     1      48.167 -29.059  -0.764  1.00  0.00    -0.035 A 
HETATM   26  C   UNL     1      48.547 -29.506   0.514  1.00  0.00     0.011 A 
HETATM   27  C   UNL     1      49.672 -30.318   0.691  1.00  0.00     0.024 A 
HETATM   28  C   UNL     1      50.437 -30.690  -0.408  1.00  0.00     0.034 A 
HETATM   29  C   UNL     1      50.085 -30.261  -1.685  1.00  0.00     0.024 A 
HETATM   30 CL   UNL     1      51.827 -31.679  -0.191  1.00  0.00    -0.084 Cl
HETATM   31  C   UNL     1      48.955 -29.455  -1.861  1.00  0.00     0.011 A 
ENDBRANCH   1  25
TORSDOF 5
ENDMDL
MODEL 10
REMARK VINA RESULT:      -7.6     16.383     18.617
REMARK  5 active torsions:
REMARK  status: ('A' for Active; 'I' for Inactive)
REMARK    1  A    between atoms: C_2  and  C_3 
REMARK    2  A    between atoms: C_8  and  C_9 
REMARK       I    between atoms: C_9  and  N_10 
REMARK    3  A    between atoms: N_10  and  C_11 
REMARK    4  A    between atoms: C_11  and  C_12 
REMARK    5  A    between atoms: C_19  and  C_20 
ROOT
HETATM    1  C   UNL     1      44.878 -28.730  -3.289  1.00  0.00     0.118 C 
HETATM    2  N   UNL     1      46.196 -28.187  -2.979  1.00  0.00    -0.366 N 
HETATM    3  C   UNL     1      46.903 -28.653  -1.924  1.00  0.00     0.123 C 
HETATM    4  N   UNL     1      46.323 -29.425  -0.951  1.00  0.00    -0.240 N 
HETATM    5  N   UNL     1      47.216 -29.963  -0.101  1.00  0.00    -0.165 NA
HETATM    6  C   UNL     1      48.392 -29.402  -0.465  1.00  0.00     0.148 C 
HETATM    7  C   UNL     1      48.227 -28.554  -1.593  1.00  0.00     0.088 C 
HETATM    8  C   UNL     1      44.941 -29.868  -0.981  1.00  0.00     0.221 C 
HETATM    9  C   UNL     1      44.117 -29.054  -1.998  1.00  0.00     0.066 C 
HETATM   10  H   UNL     1      46.698 -27.818  -3.786  1.00  0.00     0.161 HD
ENDROOT
BRANCH   6  11
HETATM   11  C   UNL     1      49.656 -29.719   0.216  1.00  0.00     0.272 C 
HETATM   12  N   UNL     1      49.554 -29.718   1.587  1.00  0.00    -0.353 N 
HETATM   13  H   UNL     1      48.688 -29.338   1.963  1.00  0.00     0.162 HD
HETATM   14  O   UNL     1      50.694 -29.975  -0.386  1.00  0.00    -0.266 OA
BRANCH  12  15
HETATM   15  C   UNL     1      50.686 -29.931   2.461  1.00  0.00     0.155 C 
BRANCH  15  16
HETATM   16  C   UNL     1      50.267 -30.331   3.877  1.00  0.00     0.139 C 
HETATM   17  O   UNL     1      49.141 -31.230   3.836  1.00  0.00    -0.384 OA
HETATM   18  C   UNL     1      49.242 -32.126   4.951  1.00  0.00     0.168 C 
HETATM   19  C   UNL     1      50.548 -31.828   5.662  1.00  0.00     0.029 C 
HETATM   20  C   UNL     1      51.349 -31.098   4.614  1.00  0.00     0.035 C 
ENDBRANCH  15  16
ENDBRANCH  12  15
ENDBRANCH   6  11
BRANCH   8  21
HETATM   21  C   UNL     1      44.301 -29.766   0.386  1.00  0.00     0.409 C 
HETATM   22  F   UNL     1      42.991 -29.435   0.320  1.00  0.00    -0.169 F 
HETATM   23  F   UNL     1      44.361 -30.976   1.010  1.00  0.00    -0.169 F 
HETATM   24  F   UNL     1      44.918 -28.892   1.207  1.00  0.00    -0.169 F 
ENDBRANCH   8  21
BRANCH   1  25
HETATM   25  C   UNL     1      44.953 -29.880  -4.285  1.00  0.00    -0.035 A 
HETATM   26  C   UNL     1      46.013 -30.802  -4.311  1.00  0.00     0.011 A 
HETATM   27  C   UNL     1      46.041 -31.844  -5.244  1.00  0.00     0.024 A 
HETATM   28  C   UNL     1      45.010 -31.974  -6.167  1.00  0.00     0.034 A 
HETATM   29  C   UNL     1      43.949 -31.074  -6.165  1.00  0.00     0.024 A 
HETATM   30 CL   UNL     1      45.049 -33.248  -7.322  1.00  0.00    -0.084 Cl
HETATM   31  C   UNL     1      43.919 -30.036  -5.227  1.00  0.00     0.011 A 
ENDBRANCH   1  25
TORSDOF 5
ENDMDL
