MODEL 1
REMARK VINA RESULT:      -9.1      0.000      0.000
REMARK  6 active torsions:
REMARK  status: ('A' for Active; 'I' for Inactive)
REMARK    1  A    between atoms: C_2  and  O_3 
REMARK    2  A    between atoms: C_2  and  C_4 
REMARK    3  A    between atoms: C_7  and  N_8 
REMARK       I    between atoms: N_8  and  C_9 
REMARK    4  A    between atoms: C_9  and  C_10 
REMARK    5  A    between atoms: C_13  and  C_14 
REMARK    6  A    between atoms: C_19  and  C_20 
ROOT
HETATM    1  C   UNL     1      41.944 -12.614   4.258  1.00  0.00     0.096 A 
HETATM    2  C   UNL     1      41.848 -11.628   5.223  1.00  0.00     0.138 A 
HETATM    3  N   UNL     1      41.837 -10.432   4.539  1.00  0.00    -0.240 N 
HETATM    4  C   UNL     1      41.657  -9.129   5.152  1.00  0.00     0.221 C 
HETATM    5  C   UNL     1      41.195  -9.288   6.616  1.00  0.00     0.066 C 
HETATM    6  C   UNL     1      41.985 -10.396   7.329  1.00  0.00     0.118 C 
HETATM    7  N   UNL     1      41.743 -11.655   6.588  1.00  0.00    -0.365 N 
HETATM    8  N   UNL     1      42.030 -10.565   3.221  1.00  0.00    -0.181 NA
HETATM    9  C   UNL     1      42.062 -11.888   3.045  1.00  0.00     0.160 A 
HETATM   10  H   UNL     1      40.934 -12.158   6.965  1.00  0.00     0.161 HD
ENDROOT
BRANCH   1  11
HETATM   11  C   UNL     1      41.952 -14.066   4.375  1.00  0.00     0.261 C 
HETATM   12  N   UNL     1      42.886 -14.692   3.572  1.00  0.00    -0.323 N 
HETATM   13  H   UNL     1      43.382 -14.084   2.931  1.00  0.00     0.169 HD
HETATM   14  O   UNL     1      41.183 -14.620   5.149  1.00  0.00    -0.267 OA
BRANCH  12  15
HETATM   15  C   UNL     1      43.247 -16.054   3.575  1.00  0.00     0.035 A 
HETATM   16  C   UNL     1      43.042 -16.917   2.499  1.00  0.00     0.030 A 
HETATM   17  C   UNL     1      43.376 -18.275   2.592  1.00  0.00     0.012 A 
HETATM   18  C   UNL     1      43.919 -18.808   3.767  1.00  0.00    -0.030 A 
HETATM   19  C   UNL     1      44.138 -17.928   4.839  1.00  0.00     0.012 A 
HETATM   20  C   UNL     1      43.814 -16.569   4.744  1.00  0.00     0.030 A 
BRANCH  18  21
HETATM   21  C   UNL     1      44.239 -20.280   3.943  1.00  0.00     0.147 C 
HETATM   22  C   UNL     1      43.792 -20.923   5.253  1.00  0.00     0.044 C 
BRANCH  21  23
HETATM   23  O   UNL     1      43.643 -21.000   2.862  1.00  0.00    -0.391 OA
HETATM   24  H   UNL     1      44.346 -21.517   2.437  1.00  0.00     0.210 HD
ENDBRANCH  21  23
ENDBRANCH  18  21
ENDBRANCH  12  15
ENDBRANCH   1  11
BRANCH   4  25
HETATM   25  C   UNL     1      40.644  -8.287   4.403  1.00  0.00     0.409 C 
HETATM   26  F   UNL     1      41.153  -7.634   3.341  1.00  0.00    -0.169 F 
HETATM   27  F   UNL     1      39.578  -9.011   3.994  1.00  0.00    -0.169 F 
HETATM   28  F   UNL     1      40.156  -7.326   5.237  1.00  0.00    -0.169 F 
ENDBRANCH   4  25
BRANCH   6  29
HETATM   29  C   UNL     1      43.477 -10.115   7.514  1.00  0.00    -0.035 A 
HETATM   30  C   UNL     1      43.926  -8.956   8.181  1.00  0.00     0.012 A 
HETATM   31  C   UNL     1      45.291  -8.702   8.350  1.00  0.00     0.043 A 
HETATM   32  C   UNL     1      46.223  -9.616   7.881  1.00  0.00     0.116 A 
HETATM   33  F   UNL     1      47.530  -9.370   8.046  1.00  0.00    -0.206 F 
HETATM   34  C   UNL     1      45.817 -10.784   7.256  1.00  0.00     0.043 A 
HETATM   35  C   UNL     1      44.453 -11.035   7.082  1.00  0.00     0.012 A 
ENDBRANCH   6  29
TORSDOF 6
ENDMDL
MODEL 2
REMARK VINA RESULT:      -8.8      4.220      6.948
REMARK  6 active torsions:
REMARK  status: ('A' for Active; 'I' for Inactive)
REMARK    1  A    between atoms: C_2  and  O_3 
REMARK    2  A    between atoms: C_2  and  C_4 
REMARK    3  A    between atoms: C_7  and  N_8 
REMARK       I    between atoms: N_8  and  C_9 
REMARK    4  A    between atoms: C_9  and  C_10 
REMARK    5  A    between atoms: C_13  and  C_14 
REMARK    6  A    between atoms: C_19  and  C_20 
ROOT
HETATM    1  C   UNL     1      40.307 -13.839   2.392  1.00  0.00     0.096 A 
HETATM    2  C   UNL     1      40.528 -13.023   1.296  1.00  0.00     0.138 A 
HETATM    3  N   UNL     1      40.058 -11.779   1.652  1.00  0.00    -0.240 N 
HETATM    4  C   UNL     1      40.168 -10.586   0.833  1.00  0.00     0.221 C 
HETATM    5  C   UNL     1      41.131 -10.837  -0.347  1.00  0.00     0.066 C 
HETATM    6  C   UNL     1      40.880 -12.214  -0.982  1.00  0.00     0.118 C 
HETATM    7  N   UNL     1      41.102 -13.231   0.070  1.00  0.00    -0.365 N 
HETATM    8  N   UNL     1      39.452 -11.754   2.846  1.00  0.00    -0.181 NA
HETATM    9  C   UNL     1      39.632 -12.994   3.309  1.00  0.00     0.160 A 
HETATM   10  H   UNL     1      42.076 -13.549   0.080  1.00  0.00     0.161 HD
ENDROOT
BRANCH   1  11
HETATM   11  C   UNL     1      40.636 -15.239   2.621  1.00  0.00     0.261 C 
HETATM   12  N   UNL     1      41.989 -15.515   2.571  1.00  0.00    -0.323 N 
HETATM   13  H   UNL     1      42.579 -14.742   2.287  1.00  0.00     0.169 HD
HETATM   14  O   UNL     1      39.745 -16.047   2.848  1.00  0.00    -0.267 OA
BRANCH  12  15
HETATM   15  C   UNL     1      42.631 -16.724   2.905  1.00  0.00     0.035 A 
HETATM   16  C   UNL     1      42.797 -17.789   2.020  1.00  0.00     0.030 A 
HETATM   17  C   UNL     1      43.398 -18.985   2.437  1.00  0.00     0.012 A 
HETATM   18  C   UNL     1      43.845 -19.150   3.753  1.00  0.00    -0.030 A 
HETATM   19  C   UNL     1      43.689 -18.066   4.633  1.00  0.00     0.012 A 
HETATM   20  C   UNL     1      43.098 -16.868   4.214  1.00  0.00     0.030 A 
BRANCH  18  21
HETATM   21  C   UNL     1      44.443 -20.443   4.274  1.00  0.00     0.147 C 
HETATM   22  C   UNL     1      44.042 -20.859   5.686  1.00  0.00     0.044 C 
BRANCH  21  23
HETATM   23  O   UNL     1      44.085 -21.494   3.376  1.00  0.00    -0.391 OA
HETATM   24  H   UNL     1      44.606 -22.276   3.623  1.00  0.00     0.210 HD
ENDBRANCH  21  23
ENDBRANCH  18  21
ENDBRANCH  12  15
ENDBRANCH   1  11
BRANCH   4  25
HETATM   25  C   UNL     1      40.665  -9.397   1.631  1.00  0.00     0.409 C 
HETATM   26  F   UNL     1      39.693  -8.727   2.280  1.00  0.00    -0.169 F 
HETATM   27  F   UNL     1      41.621  -9.742   2.523  1.00  0.00    -0.169 F 
HETATM   28  F   UNL     1      41.240  -8.498   0.783  1.00  0.00    -0.169 F 
ENDBRANCH   4  25
BRANCH   6  29
HETATM   29  C   UNL     1      39.520 -12.377  -1.664  1.00  0.00    -0.035 A 
HETATM   30  C   UNL     1      39.001 -13.653  -1.965  1.00  0.00     0.012 A 
HETATM   31  C   UNL     1      37.757 -13.800  -2.587  1.00  0.00     0.043 A 
HETATM   32  C   UNL     1      37.003 -12.675  -2.890  1.00  0.00     0.116 A 
HETATM   33  F   UNL     1      35.811 -12.818  -3.484  1.00  0.00    -0.206 F 
HETATM   34  C   UNL     1      37.465 -11.407  -2.573  1.00  0.00     0.043 A 
HETATM   35  C   UNL     1      38.712 -11.261  -1.956  1.00  0.00     0.012 A 
ENDBRANCH   6  29
TORSDOF 6
ENDMDL
MODEL 3
REMARK VINA RESULT:      -8.6     17.666     19.205
REMARK  6 active torsions:
REMARK  status: ('A' for Active; 'I' for Inactive)
REMARK    1  A    between atoms: C_2  and  O_3 
REMARK    2  A    between atoms: C_2  and  C_4 
REMARK    3  A    between atoms: C_7  and  N_8 
REMARK       I    between atoms: N_8  and  C_9 
REMARK    4  A    between atoms: C_9  and  C_10 
REMARK    5  A    between atoms: C_13  and  C_14 
REMARK    6  A    between atoms: C_19  and  C_20 
ROOT
HETATM    1  C   UNL     1      43.744 -30.412   0.550  1.00  0.00     0.096 A 
HETATM    2  C   UNL     1      44.569 -29.610  -0.219  1.00  0.00     0.138 A 
HETATM    3  N   UNL     1      44.607 -30.196  -1.465  1.00  0.00    -0.240 N 
HETATM    4  C   UNL     1      45.287 -29.641  -2.621  1.00  0.00     0.221 C 
HETATM    5  C   UNL     1      45.706 -28.182  -2.341  1.00  0.00     0.066 C 
HETATM    6  C   UNL     1      46.296 -28.036  -0.930  1.00  0.00     0.118 C 
HETATM    7  N   UNL     1      45.246 -28.447   0.030  1.00  0.00    -0.365 N 
HETATM    8  N   UNL     1      43.964 -31.369  -1.528  1.00  0.00    -0.181 NA
HETATM    9  C   UNL     1      43.412 -31.484  -0.318  1.00  0.00     0.160 A 
HETATM   10  H   UNL     1      44.674 -27.649   0.319  1.00  0.00     0.161 HD
ENDROOT
BRANCH   1  11
HETATM   11  C   UNL     1      43.293 -30.273   1.928  1.00  0.00     0.261 C 
HETATM   12  N   UNL     1      42.459 -31.289   2.354  1.00  0.00    -0.323 N 
HETATM   13  H   UNL     1      42.182 -31.950   1.638  1.00  0.00     0.169 HD
HETATM   14  O   UNL     1      43.670 -29.322   2.601  1.00  0.00    -0.267 OA
BRANCH  12  15
HETATM   15  C   UNL     1      41.991 -31.524   3.662  1.00  0.00     0.035 A 
HETATM   16  C   UNL     1      42.786 -32.013   4.698  1.00  0.00     0.030 A 
HETATM   17  C   UNL     1      42.240 -32.275   5.962  1.00  0.00     0.012 A 
HETATM   18  C   UNL     1      40.881 -32.060   6.223  1.00  0.00    -0.030 A 
HETATM   19  C   UNL     1      40.092 -31.551   5.178  1.00  0.00     0.012 A 
HETATM   20  C   UNL     1      40.639 -31.280   3.918  1.00  0.00     0.030 A 
BRANCH  18  21
HETATM   21  C   UNL     1      40.226 -32.387   7.551  1.00  0.00     0.147 C 
HETATM   22  C   UNL     1      41.080 -32.185   8.800  1.00  0.00     0.044 C 
BRANCH  21  23
HETATM   23  O   UNL     1      39.048 -31.589   7.676  1.00  0.00    -0.391 OA
HETATM   24  H   UNL     1      38.449 -32.052   8.285  1.00  0.00     0.210 HD
ENDBRANCH  21  23
ENDBRANCH  18  21
ENDBRANCH  12  15
ENDBRANCH   1  11
BRANCH   4  25
HETATM   25  C   UNL     1      44.415 -29.675  -3.860  1.00  0.00     0.409 C 
HETATM   26  F   UNL     1      44.356 -30.881  -4.455  1.00  0.00    -0.169 F 
HETATM   27  F   UNL     1      43.154 -29.255  -3.610  1.00  0.00    -0.169 F 
HETATM   28  F   UNL     1      44.925 -28.820  -4.790  1.00  0.00    -0.169 F 
ENDBRANCH   4  25
BRANCH   6  29
HETATM   29  C   UNL     1      47.614 -28.777  -0.696  1.00  0.00    -0.035 A 
HETATM   30  C   UNL     1      47.995 -29.203   0.593  1.00  0.00     0.012 A 
HETATM   31  C   UNL     1      49.199 -29.882   0.804  1.00  0.00     0.043 A 
HETATM   32  C   UNL     1      50.024 -30.169  -0.274  1.00  0.00     0.116 A 
HETATM   33  F   UNL     1      51.176 -30.821  -0.070  1.00  0.00    -0.206 F 
HETATM   34  C   UNL     1      49.663 -29.799  -1.560  1.00  0.00     0.043 A 
HETATM   35  C   UNL     1      48.461 -29.116  -1.770  1.00  0.00     0.012 A 
ENDBRANCH   6  29
TORSDOF 6
ENDMDL
MODEL 4
REMARK VINA RESULT:      -8.5      3.899      8.776
REMARK  6 active torsions:
REMARK  status: ('A' for Active; 'I' for Inactive)
REMARK    1  A    between atoms: C_2  and  O_3 
REMARK    2  A    between atoms: C_2  and  C_4 
REMARK    3  A    between atoms: C_7  and  N_8 
REMARK       I    between atoms: N_8  and  C_9 
REMARK    4  A    between atoms: C_9  and  C_10 
REMARK    5  A    between atoms: C_13  and  C_14 
REMARK    6  A    between atoms: C_19  and  C_20 
ROOT
HETATM    1  C   UNL     1      41.818 -14.512   5.112  1.00  0.00     0.096 A 
HETATM    2  C   UNL     1      42.275 -15.159   3.976  1.00  0.00     0.138 A 
HETATM    3  N   UNL     1      41.149 -15.606   3.321  1.00  0.00    -0.240 N 
HETATM    4  C   UNL     1      41.151 -16.265   2.028  1.00  0.00     0.221 C 
HETATM    5  C   UNL     1      42.540 -16.136   1.366  1.00  0.00     0.066 C 
HETATM    6  C   UNL     1      43.663 -16.385   2.384  1.00  0.00     0.118 C 
HETATM    7  N   UNL     1      43.522 -15.370   3.453  1.00  0.00    -0.365 N 
HETATM    8  N   UNL     1      40.013 -15.396   3.997  1.00  0.00    -0.181 NA
HETATM    9  C   UNL     1      40.414 -14.704   5.066  1.00  0.00     0.160 A 
HETATM   10  H   UNL     1      44.066 -14.529   3.241  1.00  0.00     0.161 HD
ENDROOT
BRANCH   1  11
HETATM   11  C   UNL     1      42.538 -13.801   6.159  1.00  0.00     0.261 C 
HETATM   12  N   UNL     1      42.713 -12.454   5.909  1.00  0.00    -0.323 N 
HETATM   13  H   UNL     1      42.412 -12.141   4.994  1.00  0.00     0.169 HD
HETATM   14  O   UNL     1      42.915 -14.403   7.157  1.00  0.00    -0.267 OA
BRANCH  12  15
HETATM   15  C   UNL     1      43.220 -11.477   6.788  1.00  0.00     0.035 A 
HETATM   16  C   UNL     1      44.441 -11.585   7.454  1.00  0.00     0.030 A 
HETATM   17  C   UNL     1      44.858 -10.597   8.357  1.00  0.00     0.012 A 
HETATM   18  C   UNL     1      44.062  -9.477   8.624  1.00  0.00    -0.030 A 
HETATM   19  C   UNL     1      42.842  -9.368   7.936  1.00  0.00     0.012 A 
HETATM   20  C   UNL     1      42.430 -10.349   7.026  1.00  0.00     0.030 A 
BRANCH  18  21
HETATM   21  C   UNL     1      44.435  -8.413   9.638  1.00  0.00     0.147 C 
HETATM   22  C   UNL     1      43.634  -7.115   9.590  1.00  0.00     0.044 C 
BRANCH  21  23
HETATM   23  O   UNL     1      44.305  -8.975  10.944  1.00  0.00    -0.391 OA
HETATM   24  H   UNL     1      44.605  -9.897  10.894  1.00  0.00     0.210 HD
ENDBRANCH  21  23
ENDBRANCH  18  21
ENDBRANCH  12  15
ENDBRANCH   1  11
BRANCH   4  25
HETATM   25  C   UNL     1      40.105 -15.687   1.096  1.00  0.00     0.409 C 
HETATM   26  F   UNL     1      39.275 -14.805   1.684  1.00  0.00    -0.169 F 
HETATM   27  F   UNL     1      40.655 -15.103   0.008  1.00  0.00    -0.169 F 
HETATM   28  F   UNL     1      39.314 -16.694   0.630  1.00  0.00    -0.169 F 
ENDBRANCH   4  25
BRANCH   6  29
HETATM   29  C   UNL     1      43.729 -17.807   2.945  1.00  0.00    -0.035 A 
HETATM   30  C   UNL     1      44.097 -18.049   4.285  1.00  0.00     0.012 A 
HETATM   31  C   UNL     1      44.155 -19.350   4.795  1.00  0.00     0.043 A 
HETATM   32  C   UNL     1      43.819 -20.422   3.982  1.00  0.00     0.116 A 
HETATM   33  F   UNL     1      43.873 -21.667   4.474  1.00  0.00    -0.206 F 
HETATM   34  C   UNL     1      43.416 -20.219   2.672  1.00  0.00     0.043 A 
HETATM   35  C   UNL     1      43.363 -18.919   2.160  1.00  0.00     0.012 A 
ENDBRANCH   6  29
TORSDOF 6
ENDMDL
MODEL 5
REMARK VINA RESULT:      -8.4      4.937      8.267
REMARK  6 active torsions:
REMARK  status: ('A' for Active; 'I' for Inactive)
REMARK    1  A    between atoms: C_2  and  O_3 
REMARK    2  A    between atoms: C_2  and  C_4 
REMARK    3  A    between atoms: C_7  and  N_8 
REMARK       I    between atoms: N_8  and  C_9 
REMARK    4  A    between atoms: C_9  and  C_10 
REMARK    5  A    between atoms: C_13  and  C_14 
REMARK    6  A    between atoms: C_19  and  C_20 
ROOT
HETATM    1  C   UNL     1      40.849 -12.635   3.060  1.00  0.00     0.096 A 
HETATM    2  C   UNL     1      41.192 -13.523   4.065  1.00  0.00     0.138 A 
HETATM    3  N   UNL     1      42.435 -13.129   4.507  1.00  0.00    -0.240 N 
HETATM    4  C   UNL     1      43.146 -13.727   5.622  1.00  0.00     0.221 C 
HETATM    5  C   UNL     1      42.205 -14.658   6.415  1.00  0.00     0.066 C 
HETATM    6  C   UNL     1      41.348 -15.515   5.471  1.00  0.00     0.118 C 
HETATM    7  N   UNL     1      40.549 -14.587   4.638  1.00  0.00    -0.365 N 
HETATM    8  N   UNL     1      42.967 -12.128   3.794  1.00  0.00    -0.181 NA
HETATM    9  C   UNL     1      41.993 -11.806   2.939  1.00  0.00     0.160 A 
HETATM   10  H   UNL     1      39.645 -14.382   5.074  1.00  0.00     0.161 HD
ENDROOT
BRANCH   1  11
HETATM   11  C   UNL     1      39.638 -12.523   2.258  1.00  0.00     0.261 C 
HETATM   12  N   UNL     1      39.807 -11.830   1.076  1.00  0.00    -0.323 N 
HETATM   13  H   UNL     1      40.716 -11.400   0.952  1.00  0.00     0.169 HD
HETATM   14  O   UNL     1      38.598 -13.036   2.649  1.00  0.00    -0.267 OA
BRANCH  12  15
HETATM   15  C   UNL     1      38.882 -11.690   0.022  1.00  0.00     0.035 A 
HETATM   16  C   UNL     1      38.706 -12.634  -0.990  1.00  0.00     0.030 A 
HETATM   17  C   UNL     1      37.804 -12.404  -2.039  1.00  0.00     0.012 A 
HETATM   18  C   UNL     1      37.058 -11.221  -2.106  1.00  0.00    -0.030 A 
HETATM   19  C   UNL     1      37.230 -10.285  -1.073  1.00  0.00     0.012 A 
HETATM   20  C   UNL     1      38.123 -10.518  -0.020  1.00  0.00     0.030 A 
BRANCH  18  21
HETATM   21  C   UNL     1      36.118 -10.894  -3.250  1.00  0.00     0.147 C 
HETATM   22  C   UNL     1      34.835 -10.150  -2.887  1.00  0.00     0.044 C 
BRANCH  21  23
HETATM   23  O   UNL     1      36.834 -10.114  -4.208  1.00  0.00    -0.391 OA
HETATM   24  H   UNL     1      37.781 -10.234  -4.029  1.00  0.00     0.210 HD
ENDBRANCH  21  23
ENDBRANCH  18  21
ENDBRANCH  12  15
ENDBRANCH   1  11
BRANCH   4  25
HETATM   25  C   UNL     1      43.711 -12.680   6.560  1.00  0.00     0.409 C 
HETATM   26  F   UNL     1      44.988 -12.342   6.300  1.00  0.00    -0.169 F 
HETATM   27  F   UNL     1      42.962 -11.554   6.581  1.00  0.00    -0.169 F 
HETATM   28  F   UNL     1      43.702 -13.167   7.833  1.00  0.00    -0.169 F 
ENDBRANCH   4  25
BRANCH   6  29
HETATM   29  C   UNL     1      42.125 -16.525   4.624  1.00  0.00    -0.035 A 
HETATM   30  C   UNL     1      41.858 -16.686   3.249  1.00  0.00     0.012 A 
HETATM   31  C   UNL     1      42.571 -17.609   2.477  1.00  0.00     0.043 A 
HETATM   32  C   UNL     1      43.579 -18.361   3.063  1.00  0.00     0.116 A 
HETATM   33  F   UNL     1      44.261 -19.244   2.321  1.00  0.00    -0.206 F 
HETATM   34  C   UNL     1      43.894 -18.201   4.402  1.00  0.00     0.043 A 
HETATM   35  C   UNL     1      43.177 -17.283   5.175  1.00  0.00     0.012 A 
ENDBRANCH   6  29
TORSDOF 6
ENDMDL
MODEL 6
REMARK VINA RESULT:      -8.1      5.451     10.014
REMARK  6 active torsions:
REMARK  status: ('A' for Active; 'I' for Inactive)
REMARK    1  A    between atoms: C_2  and  O_3 
REMARK    2  A    between atoms: C_2  and  C_4 
REMARK    3  A    between atoms: C_7  and  N_8 
REMARK       I    between atoms: N_8  and  C_9 
REMARK    4  A    between atoms: C_9  and  C_10 
REMARK    5  A    between atoms: C_13  and  C_14 
REMARK    6  A    between atoms: C_19  and  C_20 
ROOT
HETATM    1  C   UNL     1      44.025 -10.057  10.198  1.00  0.00     0.096 A 
HETATM    2  C   UNL     1      43.293 -10.095   9.024  1.00  0.00     0.138 A 
HETATM    3  N   UNL     1      44.213 -10.269   8.014  1.00  0.00    -0.240 N 
HETATM    4  C   UNL     1      43.881 -10.454   6.613  1.00  0.00     0.221 C 
HETATM    5  C   UNL     1      42.368 -10.718   6.456  1.00  0.00     0.066 C 
HETATM    6  C   UNL     1      41.545  -9.774   7.348  1.00  0.00     0.118 C 
HETATM    7  N   UNL     1      41.954 -10.026   8.748  1.00  0.00    -0.365 N 
HETATM    8  N   UNL     1      45.485 -10.235   8.431  1.00  0.00    -0.181 NA
HETATM    9  C   UNL     1      45.371 -10.140   9.758  1.00  0.00     0.160 A 
HETATM   10  H   UNL     1      41.370 -10.747   9.182  1.00  0.00     0.161 HD
ENDROOT
BRANCH   1  11
HETATM   11  C   UNL     1      43.597  -9.941  11.585  1.00  0.00     0.261 C 
HETATM   12  N   UNL     1      43.381  -8.642  12.001  1.00  0.00    -0.323 N 
HETATM   13  H   UNL     1      43.637  -7.924  11.334  1.00  0.00     0.169 HD
HETATM   14  O   UNL     1      43.445 -10.948  12.264  1.00  0.00    -0.267 OA
BRANCH  12  15
HETATM   15  C   UNL     1      42.815  -8.213  13.218  1.00  0.00     0.035 A 
HETATM   16  C   UNL     1      43.318  -7.161  13.984  1.00  0.00     0.030 A 
HETATM   17  C   UNL     1      42.736  -6.823  15.214  1.00  0.00     0.012 A 
HETATM   18  C   UNL     1      41.638  -7.533  15.715  1.00  0.00    -0.030 A 
HETATM   19  C   UNL     1      41.128  -8.579  14.929  1.00  0.00     0.012 A 
HETATM   20  C   UNL     1      41.702  -8.910  13.696  1.00  0.00     0.030 A 
BRANCH  18  21
HETATM   21  C   UNL     1      41.011  -7.252  17.066  1.00  0.00     0.147 C 
HETATM   22  C   UNL     1      39.725  -6.431  17.064  1.00  0.00     0.044 C 
BRANCH  21  23
HETATM   23  O   UNL     1      40.747  -8.501  17.705  1.00  0.00    -0.391 OA
HETATM   24  H   UNL     1      40.051  -8.348  18.365  1.00  0.00     0.210 HD
ENDBRANCH  21  23
ENDBRANCH  18  21
ENDBRANCH  12  15
ENDBRANCH   1  11
BRANCH   4  25
HETATM   25  C   UNL     1      44.649 -11.605   5.996  1.00  0.00     0.409 C 
HETATM   26  F   UNL     1      45.880 -11.274   5.564  1.00  0.00    -0.169 F 
HETATM   27  F   UNL     1      44.756 -12.659   6.838  1.00  0.00    -0.169 F 
HETATM   28  F   UNL     1      43.975 -12.058   4.902  1.00  0.00    -0.169 F 
ENDBRANCH   4  25
BRANCH   6  29
HETATM   29  C   UNL     1      41.632  -8.292   6.979  1.00  0.00    -0.035 A 
HETATM   30  C   UNL     1      41.487  -7.859   5.645  1.00  0.00     0.012 A 
HETATM   31  C   UNL     1      41.565  -6.504   5.311  1.00  0.00     0.043 A 
HETATM   32  C   UNL     1      41.760  -5.561   6.310  1.00  0.00     0.116 A 
HETATM   33  F   UNL     1      41.833  -4.263   5.988  1.00  0.00    -0.206 F 
HETATM   34  C   UNL     1      41.867  -5.947   7.637  1.00  0.00     0.043 A 
HETATM   35  C   UNL     1      41.795  -7.303   7.970  1.00  0.00     0.012 A 
ENDBRANCH   6  29
TORSDOF 6
ENDMDL
MODEL 7
REMARK VINA RESULT:      -8.0      3.620      6.121
REMARK  6 active torsions:
REMARK  status: ('A' for Active; 'I' for Inactive)
REMARK    1  A    between atoms: C_2  and  O_3 
REMARK    2  A    between atoms: C_2  and  C_4 
REMARK    3  A    between atoms: C_7  and  N_8 
REMARK       I    between atoms: N_8  and  C_9 
REMARK    4  A    between atoms: C_9  and  C_10 
REMARK    5  A    between atoms: C_13  and  C_14 
REMARK    6  A    between atoms: C_19  and  C_20 
ROOT
HETATM    1  C   UNL     1      40.962 -12.815   3.618  1.00  0.00     0.096 A 
HETATM    2  C   UNL     1      40.826 -11.939   2.555  1.00  0.00     0.138 A 
HETATM    3  N   UNL     1      39.760 -11.127   2.872  1.00  0.00    -0.240 N 
HETATM    4  C   UNL     1      39.314  -9.997   2.078  1.00  0.00     0.221 C 
HETATM    5  C   UNL     1      40.364  -9.659   0.998  1.00  0.00     0.066 C 
HETATM    6  C   UNL     1      40.903 -10.934   0.330  1.00  0.00     0.118 C 
HETATM    7  N   UNL     1      41.525 -11.757   1.392  1.00  0.00    -0.365 N 
HETATM    8  N   UNL     1      39.130 -11.481   4.000  1.00  0.00    -0.181 NA
HETATM    9  C   UNL     1      39.878 -12.482   4.469  1.00  0.00     0.160 A 
HETATM   10  H   UNL     1      42.519 -11.538   1.497  1.00  0.00     0.161 HD
ENDROOT
BRANCH   1  11
HETATM   11  C   UNL     1      41.938 -13.867   3.868  1.00  0.00     0.261 C 
HETATM   12  N   UNL     1      41.473 -15.141   3.611  1.00  0.00    -0.323 N 
HETATM   13  H   UNL     1      40.490 -15.204   3.377  1.00  0.00     0.169 HD
HETATM   14  O   UNL     1      43.062 -13.576   4.257  1.00  0.00    -0.267 OA
BRANCH  12  15
HETATM   15  C   UNL     1      42.214 -16.340   3.601  1.00  0.00     0.035 A 
HETATM   16  C   UNL     1      42.457 -17.096   2.453  1.00  0.00     0.030 A 
HETATM   17  C   UNL     1      43.157 -18.309   2.526  1.00  0.00     0.012 A 
HETATM   18  C   UNL     1      43.627 -18.801   3.749  1.00  0.00    -0.030 A 
HETATM   19  C   UNL     1      43.392 -18.025   4.896  1.00  0.00     0.012 A 
HETATM   20  C   UNL     1      42.702 -16.809   4.823  1.00  0.00     0.030 A 
BRANCH  18  21
HETATM   21  C   UNL     1      44.332 -20.136   3.893  1.00  0.00     0.147 C 
HETATM   22  C   UNL     1      44.204 -20.832   5.245  1.00  0.00     0.044 C 
BRANCH  21  23
HETATM   23  O   UNL     1      43.834 -21.016   2.884  1.00  0.00    -0.391 OA
HETATM   24  H   UNL     1      44.547 -21.152   2.240  1.00  0.00     0.210 HD
ENDBRANCH  21  23
ENDBRANCH  18  21
ENDBRANCH  12  15
ENDBRANCH   1  11
BRANCH   4  25
HETATM   25  C   UNL     1      39.069  -8.768   2.929  1.00  0.00     0.409 C 
HETATM   26  F   UNL     1      39.914  -8.645   3.970  1.00  0.00    -0.169 F 
HETATM   27  F   UNL     1      39.107  -7.627   2.205  1.00  0.00    -0.169 F 
HETATM   28  F   UNL     1      37.818  -8.838   3.466  1.00  0.00    -0.169 F 
ENDBRANCH   4  25
BRANCH   6  29
HETATM   29  C   UNL     1      39.877 -11.724  -0.485  1.00  0.00    -0.035 A 
HETATM   30  C   UNL     1      38.819 -11.076  -1.155  1.00  0.00     0.012 A 
HETATM   31  C   UNL     1      37.884 -11.800  -1.901  1.00  0.00     0.043 A 
HETATM   32  C   UNL     1      38.011 -13.177  -2.010  1.00  0.00     0.116 A 
HETATM   33  F   UNL     1      37.114 -13.869  -2.727  1.00  0.00    -0.206 F 
HETATM   34  C   UNL     1      39.060 -13.843  -1.397  1.00  0.00     0.043 A 
HETATM   35  C   UNL     1      39.992 -13.119  -0.647  1.00  0.00     0.012 A 
ENDBRANCH   6  29
TORSDOF 6
ENDMDL
MODEL 8
REMARK VINA RESULT:      -8.0     17.720     19.469
REMARK  6 active torsions:
REMARK  status: ('A' for Active; 'I' for Inactive)
REMARK    1  A    between atoms: C_2  and  O_3 
REMARK    2  A    between atoms: C_2  and  C_4 
REMARK    3  A    between atoms: C_7  and  N_8 
REMARK       I    between atoms: N_8  and  C_9 
REMARK    4  A    between atoms: C_9  and  C_10 
REMARK    5  A    between atoms: C_13  and  C_14 
REMARK    6  A    between atoms: C_19  and  C_20 
ROOT
HETATM    1  C   UNL     1      47.858 -29.317  -0.270  1.00  0.00     0.096 A 
HETATM    2  C   UNL     1      46.678 -29.964  -0.593  1.00  0.00     0.138 A 
HETATM    3  N   UNL     1      45.956 -29.071  -1.353  1.00  0.00    -0.240 N 
HETATM    4  C   UNL     1      44.683 -29.363  -1.988  1.00  0.00     0.221 C 
HETATM    5  C   UNL     1      44.398 -30.879  -1.936  1.00  0.00     0.066 C 
HETATM    6  C   UNL     1      44.749 -31.462  -0.559  1.00  0.00     0.118 C 
HETATM    7  N   UNL     1      46.191 -31.216  -0.331  1.00  0.00    -0.365 N 
HETATM    8  N   UNL     1      46.526 -27.864  -1.452  1.00  0.00    -0.181 NA
HETATM    9  C   UNL     1      47.693 -28.022  -0.824  1.00  0.00     0.160 A 
HETATM   10  H   UNL     1      46.759 -31.998  -0.671  1.00  0.00     0.161 HD
ENDROOT
BRANCH   1  11
HETATM   11  C   UNL     1      49.024 -29.774   0.473  1.00  0.00     0.261 C 
HETATM   12  N   UNL     1      48.753 -30.144   1.776  1.00  0.00    -0.323 N 
HETATM   13  H   UNL     1      47.807 -29.964   2.090  1.00  0.00     0.169 HD
HETATM   14  O   UNL     1      50.118 -29.817  -0.074  1.00  0.00    -0.267 OA
BRANCH  12  15
HETATM   15  C   UNL     1      49.624 -30.772   2.689  1.00  0.00     0.035 A 
HETATM   16  C   UNL     1      50.042 -32.099   2.581  1.00  0.00     0.030 A 
HETATM   17  C   UNL     1      50.867 -32.675   3.557  1.00  0.00     0.012 A 
HETATM   18  C   UNL     1      51.291 -31.941   4.671  1.00  0.00    -0.030 A 
HETATM   19  C   UNL     1      50.879 -30.601   4.762  1.00  0.00     0.012 A 
HETATM   20  C   UNL     1      50.064 -30.022   3.783  1.00  0.00     0.030 A 
BRANCH  18  21
HETATM   21  C   UNL     1      52.130 -32.533   5.787  1.00  0.00     0.147 C 
HETATM   22  C   UNL     1      52.762 -31.544   6.763  1.00  0.00     0.044 C 
BRANCH  21  23
HETATM   23  O   UNL     1      51.311 -33.438   6.530  1.00  0.00    -0.391 OA
HETATM   24  H   UNL     1      50.963 -34.093   5.904  1.00  0.00     0.210 HD
ENDBRANCH  21  23
ENDBRANCH  18  21
ENDBRANCH  12  15
ENDBRANCH   1  11
BRANCH   4  25
HETATM   25  C   UNL     1      44.652 -28.904  -3.431  1.00  0.00     0.409 C 
HETATM   26  F   UNL     1      44.703 -27.566  -3.582  1.00  0.00    -0.169 F 
HETATM   27  F   UNL     1      45.642 -29.458  -4.167  1.00  0.00    -0.169 F 
HETATM   28  F   UNL     1      43.482 -29.303  -4.003  1.00  0.00    -0.169 F 
ENDBRANCH   4  25
BRANCH   6  29
HETATM   29  C   UNL     1      43.888 -30.956   0.600  1.00  0.00    -0.035 A 
HETATM   30  C   UNL     1      42.537 -31.339   0.731  1.00  0.00     0.012 A 
HETATM   31  C   UNL     1      41.753 -30.875   1.792  1.00  0.00     0.043 A 
HETATM   32  C   UNL     1      42.316 -30.046   2.751  1.00  0.00     0.116 A 
HETATM   33  F   UNL     1      41.562 -29.605   3.767  1.00  0.00    -0.206 F 
HETATM   34  C   UNL     1      43.650 -29.680   2.675  1.00  0.00     0.043 A 
HETATM   35  C   UNL     1      44.433 -30.140   1.612  1.00  0.00     0.012 A 
ENDBRANCH   6  29
TORSDOF 6
ENDMDL
MODEL 9
REMARK VINA RESULT:      -7.9      4.410      9.627
REMARK  6 active torsions:
REMARK  status: ('A' for Active; 'I' for Inactive)
REMARK    1  A    between atoms: C_2  and  O_3 
REMARK    2  A    between atoms: C_2  and  C_4 
REMARK    3  A    between atoms: C_7  and  N_8 
REMARK       I    between atoms: N_8  and  C_9 
REMARK    4  A    between atoms: C_9  and  C_10 
REMARK    5  A    between atoms: C_13  and  C_14 
REMARK    6  A    between atoms: C_19  and  C_20 
ROOT
HETATM    1  C   UNL     1      43.097 -12.017   6.763  1.00  0.00     0.096 A 
HETATM    2  C   UNL     1      42.336 -13.149   6.525  1.00  0.00     0.138 A 
HETATM    3  N   UNL     1      43.234 -14.185   6.397  1.00  0.00    -0.240 N 
HETATM    4  C   UNL     1      42.871 -15.580   6.228  1.00  0.00     0.221 C 
HETATM    5  C   UNL     1      41.364 -15.774   6.500  1.00  0.00     0.066 C 
HETATM    6  C   UNL     1      40.535 -14.655   5.850  1.00  0.00     0.118 C 
HETATM    7  N   UNL     1      40.989 -13.374   6.438  1.00  0.00    -0.365 N 
HETATM    8  N   UNL     1      44.515 -13.794   6.424  1.00  0.00    -0.181 NA
HETATM    9  C   UNL     1      44.433 -12.486   6.679  1.00  0.00     0.160 A 
HETATM   10  H   UNL     1      40.440 -13.132   7.267  1.00  0.00     0.161 HD
ENDROOT
BRANCH   1  11
HETATM   11  C   UNL     1      42.702 -10.640   7.024  1.00  0.00     0.261 C 
HETATM   12  N   UNL     1      42.835 -10.256   8.344  1.00  0.00    -0.323 N 
HETATM   13  H   UNL     1      43.094 -10.995   8.986  1.00  0.00     0.169 HD
HETATM   14  O   UNL     1      42.309  -9.932   6.105  1.00  0.00    -0.267 OA
BRANCH  12  15
HETATM   15  C   UNL     1      42.691  -8.961   8.880  1.00  0.00     0.035 A 
HETATM   16  C   UNL     1      43.631  -7.942   8.720  1.00  0.00     0.030 A 
HETATM   17  C   UNL     1      43.448  -6.692   9.329  1.00  0.00     0.012 A 
HETATM   18  C   UNL     1      42.322  -6.429  10.118  1.00  0.00    -0.030 A 
HETATM   19  C   UNL     1      41.373  -7.455  10.258  1.00  0.00     0.012 A 
HETATM   20  C   UNL     1      41.550  -8.700   9.643  1.00  0.00     0.030 A 
BRANCH  18  21
HETATM   21  C   UNL     1      42.106  -5.118  10.849  1.00  0.00     0.147 C 
HETATM   22  C   UNL     1      42.134  -5.176  12.374  1.00  0.00     0.044 C 
BRANCH  21  23
HETATM   23  O   UNL     1      43.105  -4.194  10.416  1.00  0.00    -0.391 OA
HETATM   24  H   UNL     1      42.646  -3.440  10.012  1.00  0.00     0.210 HD
ENDBRANCH  21  23
ENDBRANCH  18  21
ENDBRANCH  12  15
ENDBRANCH   1  11
BRANCH   4  25
HETATM   25  C   UNL     1      43.659 -16.486   7.152  1.00  0.00     0.409 C 
HETATM   26  F   UNL     1      44.964 -16.590   6.835  1.00  0.00    -0.169 F 
HETATM   27  F   UNL     1      43.559 -16.110   8.447  1.00  0.00    -0.169 F 
HETATM   28  F   UNL     1      43.153 -17.749   7.080  1.00  0.00    -0.169 F 
ENDBRANCH   4  25
BRANCH   6  29
HETATM   29  C   UNL     1      40.564 -14.629   4.320  1.00  0.00    -0.035 A 
HETATM   30  C   UNL     1      40.620 -15.821   3.569  1.00  0.00     0.012 A 
HETATM   31  C   UNL     1      40.645 -15.795   2.171  1.00  0.00     0.043 A 
HETATM   32  C   UNL     1      40.585 -14.579   1.506  1.00  0.00     0.116 A 
HETATM   33  F   UNL     1      40.608 -14.556   0.166  1.00  0.00    -0.206 F 
HETATM   34  C   UNL     1      40.491 -13.390   2.211  1.00  0.00     0.043 A 
HETATM   35  C   UNL     1      40.472 -13.416   3.609  1.00  0.00     0.012 A 
ENDBRANCH   6  29
TORSDOF 6
ENDMDL
MODEL 10
REMARK VINA RESULT:      -7.7      9.354     13.648
REMARK  6 active torsions:
REMARK  status: ('A' for Active; 'I' for Inactive)
REMARK    1  A    between atoms: C_2  and  O_3 
REMARK    2  A    between atoms: C_2  and  C_4 
REMARK    3  A    between atoms: C_7  and  N_8 
REMARK       I    between atoms: N_8  and  C_9 
REMARK    4  A    between atoms: C_9  and  C_10 
REMARK    5  A    between atoms: C_13  and  C_14 
REMARK    6  A    between atoms: C_19  and  C_20 
ROOT
HETATM    1  C   UNL     1      41.480  -7.600  14.827  1.00  0.00     0.096 A 
HETATM    2  C   UNL     1      41.025  -8.227  13.681  1.00  0.00     0.138 A 
HETATM    3  N   UNL     1      42.117  -8.324  12.847  1.00  0.00    -0.240 N 
HETATM    4  C   UNL     1      42.120  -8.998  11.561  1.00  0.00     0.221 C 
HETATM    5  C   UNL     1      40.830  -9.830  11.394  1.00  0.00     0.066 C 
HETATM    6  C   UNL     1      39.599  -9.046  11.874  1.00  0.00     0.118 C 
HETATM    7  N   UNL     1      39.809  -8.732  13.306  1.00  0.00    -0.365 N 
HETATM    8  N   UNL     1      43.211  -7.712  13.318  1.00  0.00    -0.181 NA
HETATM    9  C   UNL     1      42.835  -7.302  14.533  1.00  0.00     0.160 A 
HETATM   10  H   UNL     1      39.424  -9.466  13.907  1.00  0.00     0.161 HD
ENDROOT
BRANCH   1  11
HETATM   11  C   UNL     1      40.796  -7.269  16.070  1.00  0.00     0.261 C 
HETATM   12  N   UNL     1      41.244  -7.979  17.167  1.00  0.00    -0.323 N 
HETATM   13  H   UNL     1      41.918  -8.708  16.965  1.00  0.00     0.169 HD
HETATM   14  O   UNL     1      39.919  -6.414  16.075  1.00  0.00    -0.267 OA
BRANCH  12  15
HETATM   15  C   UNL     1      40.901  -7.778  18.518  1.00  0.00     0.035 A 
HETATM   16  C   UNL     1      41.597  -6.931  19.381  1.00  0.00     0.030 A 
HETATM   17  C   UNL     1      41.233  -6.821  20.731  1.00  0.00     0.012 A 
HETATM   18  C   UNL     1      40.165  -7.559  21.255  1.00  0.00    -0.030 A 
HETATM   19  C   UNL     1      39.460  -8.395  20.375  1.00  0.00     0.012 A 
HETATM   20  C   UNL     1      39.816  -8.499  19.025  1.00  0.00     0.030 A 
BRANCH  18  21
HETATM   21  C   UNL     1      39.770  -7.526  22.718  1.00  0.00     0.147 C 
HETATM   22  C   UNL     1      39.309  -6.179  23.270  1.00  0.00     0.044 C 
BRANCH  21  23
HETATM   23  O   UNL     1      38.724  -8.477  22.920  1.00  0.00    -0.391 OA
HETATM   24  H   UNL     1      38.863  -9.199  22.286  1.00  0.00     0.210 HD
ENDBRANCH  21  23
ENDBRANCH  18  21
ENDBRANCH  12  15
ENDBRANCH   1  11
BRANCH   4  25
HETATM   25  C   UNL     1      43.319  -9.910  11.404  1.00  0.00     0.409 C 
HETATM   26  F   UNL     1      43.512 -10.746  12.442  1.00  0.00    -0.169 F 
HETATM   27  F   UNL     1      43.263 -10.640  10.267  1.00  0.00    -0.169 F 
HETATM   28  F   UNL     1      44.449  -9.153  11.316  1.00  0.00    -0.169 F 
ENDBRANCH   4  25
BRANCH   6  29
HETATM   29  C   UNL     1      39.261  -7.799  11.054  1.00  0.00    -0.035 A 
HETATM   30  C   UNL     1      39.251  -7.831   9.645  1.00  0.00     0.012 A 
HETATM   31  C   UNL     1      38.941  -6.690   8.897  1.00  0.00     0.043 A 
HETATM   32  C   UNL     1      38.609  -5.511   9.549  1.00  0.00     0.116 A 
HETATM   33  F   UNL     1      38.310  -4.420   8.831  1.00  0.00    -0.206 F 
HETATM   34  C   UNL     1      38.571  -5.454  10.933  1.00  0.00     0.043 A 
HETATM   35  C   UNL     1      38.887  -6.593  11.680  1.00  0.00     0.012 A 
ENDBRANCH   6  29
TORSDOF 6
ENDMDL
