MODEL 1
REMARK VINA RESULT:      -9.1      0.000      0.000
REMARK  7 active torsions:
REMARK  status: ('A' for Active; 'I' for Inactive)
REMARK    1  A    between atoms: C_8  and  C_9 
REMARK    2  A    between atoms: N_10  and  C_11 
REMARK    3  A    between atoms: C_14  and  S_15 
REMARK    4  A    between atoms: S_15  and  C_16 
REMARK    5  A    between atoms: C_16  and  C_17 
REMARK       I    between atoms: C_17  and  N_18 
REMARK    6  A    between atoms: N_21  and  C_22 
REMARK    7  A    between atoms: C_25  and  O_26 
ROOT
HETATM    1  C   UNL     1      41.125 -14.016   5.884  1.00  0.00     0.167 A 
HETATM    2  N   UNL     1      41.634 -12.738   6.050  1.00  0.00    -0.302 N 
HETATM    3  C   UNL     1      40.552 -11.944   6.343  1.00  0.00     0.192 A 
HETATM    4  N   UNL     1      39.465 -12.678   6.402  1.00  0.00    -0.122 NA
HETATM    5  N   UNL     1      39.822 -13.969   6.118  1.00  0.00    -0.128 NA
ENDROOT
BRANCH   3   6
HETATM    6  S   UNL     1      40.547 -10.217   6.419  1.00  0.00    -0.081 SA
BRANCH   6   7
HETATM    7  C   UNL     1      39.901  -9.827   4.766  1.00  0.00     0.185 C 
BRANCH   7   8
HETATM    8  C   UNL     1      40.930 -10.090   3.668  1.00  0.00     0.229 C 
HETATM    9  N   UNL     1      40.450 -10.696   2.501  1.00  0.00    -0.348 N 
HETATM   10  C   UNL     1      41.379 -10.790   1.368  1.00  0.00     0.145 C 
HETATM   11  C   UNL     1      39.025 -10.738   2.135  1.00  0.00     0.145 C 
HETATM   12  C   UNL     1      41.024 -11.917   0.383  1.00  0.00     0.143 C 
HETATM   13  N   UNL     1      39.608 -11.819  -0.026  1.00  0.00    -0.378 N 
HETATM   14  C   UNL     1      38.686 -11.859   1.131  1.00  0.00     0.143 C 
HETATM   15  O   UNL     1      42.124  -9.813   3.792  1.00  0.00    -0.273 OA
BRANCH  13  16
HETATM   16  C   UNL     1      39.182 -12.574  -1.130  1.00  0.00     0.030 A 
HETATM   17  C   UNL     1      37.861 -12.573  -1.608  1.00  0.00     0.032 A 
HETATM   18  C   UNL     1      37.472 -13.366  -2.696  1.00  0.00     0.039 A 
HETATM   19  C   UNL     1      38.407 -14.180  -3.319  1.00  0.00     0.065 A 
HETATM   20  C   UNL     1      39.718 -14.214  -2.871  1.00  0.00     0.039 A 
HETATM   21  C   UNL     1      40.095 -13.420  -1.783  1.00  0.00     0.032 A 
BRANCH  19  22
HETATM   22  O   UNL     1      38.073 -14.974  -4.374  1.00  0.00    -0.361 OA
HETATM   23  H   UNL     1      38.688 -15.725  -4.405  1.00  0.00     0.217 HD
ENDBRANCH  19  22
ENDBRANCH  13  16
ENDBRANCH   7   8
ENDBRANCH   6   7
ENDBRANCH   3   6
BRANCH   2  24
HETATM   24  C   UNL     1      43.017 -12.356   5.857  1.00  0.00     0.094 A 
HETATM   25  C   UNL     1      43.839 -11.359   6.635  1.00  0.00     0.028 A 
HETATM   26  C   UNL     1      44.088 -12.826   6.819  1.00  0.00     0.028 A 
ENDBRANCH   2  24
BRANCH   1  27
HETATM   27  C   UNL     1      41.819 -15.305   5.550  1.00  0.00     0.040 A 
HETATM   28  C   UNL     1      42.238 -15.713   4.238  1.00  0.00     0.006 A 
HETATM   29  C   UNL     1      42.154 -15.150   2.946  1.00  0.00     0.014 A 
HETATM   30  C   UNL     1      42.850 -16.963   4.366  1.00  0.00     0.043 A 
HETATM   31  C   UNL     1      42.677 -15.842   1.847  1.00  0.00     0.001 A 
HETATM   32  C   UNL     1      43.286 -17.082   2.015  1.00  0.00     0.002 A 
HETATM   33  C   UNL     1      43.386 -17.666   3.280  1.00  0.00     0.030 A 
HETATM   34  N   UNL     1      42.798 -17.304   5.696  1.00  0.00    -0.364 N 
HETATM   35  H   UNL     1      43.166 -18.163   6.079  1.00  0.00     0.165 HD
HETATM   36  C   UNL     1      42.162 -16.323   6.415  1.00  0.00     0.104 A 
ENDBRANCH   1  27
TORSDOF 7
ENDMDL
MODEL 2
REMARK VINA RESULT:      -9.1      2.529      6.497
REMARK  7 active torsions:
REMARK  status: ('A' for Active; 'I' for Inactive)
REMARK    1  A    between atoms: C_8  and  C_9 
REMARK    2  A    between atoms: N_10  and  C_11 
REMARK    3  A    between atoms: C_14  and  S_15 
REMARK    4  A    between atoms: S_15  and  C_16 
REMARK    5  A    between atoms: C_16  and  C_17 
REMARK       I    between atoms: C_17  and  N_18 
REMARK    6  A    between atoms: N_21  and  C_22 
REMARK    7  A    between atoms: C_25  and  O_26 
ROOT
HETATM    1  C   UNL     1      41.147 -12.511   1.768  1.00  0.00     0.167 A 
HETATM    2  N   UNL     1      40.597 -11.588   2.642  1.00  0.00    -0.302 N 
HETATM    3  C   UNL     1      41.663 -10.921   3.196  1.00  0.00     0.192 A 
HETATM    4  N   UNL     1      42.783 -11.362   2.671  1.00  0.00    -0.122 NA
HETATM    5  N   UNL     1      42.461 -12.351   1.780  1.00  0.00    -0.128 NA
ENDROOT
BRANCH   3   6
HETATM    6  S   UNL     1      41.598  -9.821   4.526  1.00  0.00    -0.081 SA
BRANCH   6   7
HETATM    7  C   UNL     1      42.024 -10.944   5.890  1.00  0.00     0.185 C 
BRANCH   7   8
HETATM    8  C   UNL     1      41.073 -12.137   5.973  1.00  0.00     0.229 C 
HETATM    9  N   UNL     1      41.562 -13.356   5.491  1.00  0.00    -0.348 N 
HETATM   10  C   UNL     1      40.738 -14.547   5.728  1.00  0.00     0.145 C 
HETATM   11  C   UNL     1      42.992 -13.629   5.278  1.00  0.00     0.145 C 
HETATM   12  C   UNL     1      41.011 -15.684   4.729  1.00  0.00     0.143 C 
HETATM   13  N   UNL     1      42.457 -15.976   4.660  1.00  0.00    -0.378 N 
HETATM   14  C   UNL     1      43.253 -14.784   4.289  1.00  0.00     0.143 C 
HETATM   15  O   UNL     1      39.926 -12.046   6.417  1.00  0.00    -0.273 OA
BRANCH  13  16
HETATM   16  C   UNL     1      42.866 -17.162   4.031  1.00  0.00     0.030 A 
HETATM   17  C   UNL     1      42.496 -17.513   2.722  1.00  0.00     0.032 A 
HETATM   18  C   UNL     1      42.903 -18.723   2.142  1.00  0.00     0.039 A 
HETATM   19  C   UNL     1      43.685 -19.604   2.875  1.00  0.00     0.065 A 
HETATM   20  C   UNL     1      44.063 -19.296   4.171  1.00  0.00     0.039 A 
HETATM   21  C   UNL     1      43.651 -18.087   4.741  1.00  0.00     0.032 A 
BRANCH  19  22
HETATM   22  O   UNL     1      44.097 -20.794   2.355  1.00  0.00    -0.361 OA
HETATM   23  H   UNL     1      43.362 -21.184   1.855  1.00  0.00     0.217 HD
ENDBRANCH  19  22
ENDBRANCH  13  16
ENDBRANCH   7   8
ENDBRANCH   6   7
ENDBRANCH   3   6
BRANCH   2  24
HETATM   24  C   UNL     1      39.187 -11.453   2.941  1.00  0.00     0.094 A 
HETATM   25  C   UNL     1      38.372 -10.195   3.108  1.00  0.00     0.028 A 
HETATM   26  C   UNL     1      38.210 -11.023   1.867  1.00  0.00     0.028 A 
ENDBRANCH   2  24
BRANCH   1  27
HETATM   27  C   UNL     1      40.486 -13.524   0.879  1.00  0.00     0.040 A 
HETATM   28  C   UNL     1      40.086 -13.308  -0.484  1.00  0.00     0.006 A 
HETATM   29  C   UNL     1      40.136 -12.212  -1.374  1.00  0.00     0.014 A 
HETATM   30  C   UNL     1      39.525 -14.500  -0.949  1.00  0.00     0.043 A 
HETATM   31  C   UNL     1      39.635 -12.345  -2.675  1.00  0.00     0.001 A 
HETATM   32  C   UNL     1      39.090 -13.552  -3.103  1.00  0.00     0.002 A 
HETATM   33  C   UNL     1      39.026 -14.654  -2.248  1.00  0.00     0.030 A 
HETATM   34  N   UNL     1      39.575 -15.400   0.087  1.00  0.00    -0.364 N 
HETATM   35  H   UNL     1      39.234 -16.350   0.035  1.00  0.00     0.165 HD
HETATM   36  C   UNL     1      40.132 -14.818   1.199  1.00  0.00     0.104 A 
ENDBRANCH   1  27
TORSDOF 7
ENDMDL
MODEL 3
REMARK VINA RESULT:      -9.1      4.561      8.175
REMARK  7 active torsions:
REMARK  status: ('A' for Active; 'I' for Inactive)
REMARK    1  A    between atoms: C_8  and  C_9 
REMARK    2  A    between atoms: N_10  and  C_11 
REMARK    3  A    between atoms: C_14  and  S_15 
REMARK    4  A    between atoms: S_15  and  C_16 
REMARK    5  A    between atoms: C_16  and  C_17 
REMARK       I    between atoms: C_17  and  N_18 
REMARK    6  A    between atoms: N_21  and  C_22 
REMARK    7  A    between atoms: C_25  and  O_26 
ROOT
HETATM    1  C   UNL     1      42.381  -8.646   8.522  1.00  0.00     0.167 A 
HETATM    2  N   UNL     1      43.310  -9.502   7.953  1.00  0.00    -0.302 N 
HETATM    3  C   UNL     1      42.752  -9.919   6.768  1.00  0.00     0.192 A 
HETATM    4  N   UNL     1      41.591  -9.331   6.594  1.00  0.00    -0.122 NA
HETATM    5  N   UNL     1      41.361  -8.538   7.685  1.00  0.00    -0.128 NA
ENDROOT
BRANCH   3   6
HETATM    6  S   UNL     1      43.353 -11.176   5.746  1.00  0.00    -0.081 SA
BRANCH   6   7
HETATM    7  C   UNL     1      41.975 -11.314   4.569  1.00  0.00     0.185 C 
BRANCH   7   8
HETATM    8  C   UNL     1      42.394 -11.994   3.267  1.00  0.00     0.229 C 
HETATM    9  N   UNL     1      42.563 -13.383   3.319  1.00  0.00    -0.348 N 
HETATM   10  C   UNL     1      42.785 -14.076   2.045  1.00  0.00     0.145 C 
HETATM   11  C   UNL     1      42.015 -14.227   4.393  1.00  0.00     0.145 C 
HETATM   12  C   UNL     1      43.508 -15.425   2.204  1.00  0.00     0.143 C 
HETATM   13  N   UNL     1      42.828 -16.260   3.215  1.00  0.00    -0.378 N 
HETATM   14  C   UNL     1      42.735 -15.584   4.529  1.00  0.00     0.143 C 
HETATM   15  O   UNL     1      42.600 -11.371   2.224  1.00  0.00    -0.273 OA
BRANCH  13  16
HETATM   16  C   UNL     1      43.165 -17.620   3.288  1.00  0.00     0.030 A 
HETATM   17  C   UNL     1      43.777 -18.210   4.406  1.00  0.00     0.032 A 
HETATM   18  C   UNL     1      44.123 -19.568   4.424  1.00  0.00     0.039 A 
HETATM   19  C   UNL     1      43.864 -20.355   3.311  1.00  0.00     0.065 A 
HETATM   20  C   UNL     1      43.269 -19.807   2.187  1.00  0.00     0.039 A 
HETATM   21  C   UNL     1      42.928 -18.451   2.178  1.00  0.00     0.032 A 
BRANCH  19  22
HETATM   22  O   UNL     1      44.190 -21.678   3.280  1.00  0.00    -0.361 OA
HETATM   23  H   UNL     1      43.387 -22.199   3.440  1.00  0.00     0.217 HD
ENDBRANCH  19  22
ENDBRANCH  13  16
ENDBRANCH   7   8
ENDBRANCH   6   7
ENDBRANCH   3   6
BRANCH   2  24
HETATM   24  C   UNL     1      44.558  -9.908   8.562  1.00  0.00     0.094 A 
HETATM   25  C   UNL     1      45.861 -10.271   7.895  1.00  0.00     0.028 A 
HETATM   26  C   UNL     1      45.737  -8.959   8.611  1.00  0.00     0.028 A 
ENDBRANCH   2  24
BRANCH   1  27
HETATM   27  C   UNL     1      42.423  -7.884   9.815  1.00  0.00     0.040 A 
HETATM   28  C   UNL     1      42.408  -8.465  11.129  1.00  0.00     0.006 A 
HETATM   29  C   UNL     1      42.339  -9.782  11.635  1.00  0.00     0.014 A 
HETATM   30  C   UNL     1      42.472  -7.416  12.049  1.00  0.00     0.043 A 
HETATM   31  C   UNL     1      42.338 -10.000  13.018  1.00  0.00     0.001 A 
HETATM   32  C   UNL     1      42.411  -8.928  13.903  1.00  0.00     0.002 A 
HETATM   33  C   UNL     1      42.481  -7.614  13.435  1.00  0.00     0.030 A 
HETATM   34  N   UNL     1      42.517  -6.248  11.328  1.00  0.00    -0.364 N 
HETATM   35  H   UNL     1      42.565  -5.325  11.738  1.00  0.00     0.165 HD
HETATM   36  C   UNL     1      42.467  -6.516   9.983  1.00  0.00     0.104 A 
ENDBRANCH   1  27
TORSDOF 7
ENDMDL
MODEL 4
REMARK VINA RESULT:      -9.0      5.025      9.511
REMARK  7 active torsions:
REMARK  status: ('A' for Active; 'I' for Inactive)
REMARK    1  A    between atoms: C_8  and  C_9 
REMARK    2  A    between atoms: N_10  and  C_11 
REMARK    3  A    between atoms: C_14  and  S_15 
REMARK    4  A    between atoms: S_15  and  C_16 
REMARK    5  A    between atoms: C_16  and  C_17 
REMARK       I    between atoms: C_17  and  N_18 
REMARK    6  A    between atoms: N_21  and  C_22 
REMARK    7  A    between atoms: C_25  and  O_26 
ROOT
HETATM    1  C   UNL     1      41.427 -14.653   6.001  1.00  0.00     0.167 A 
HETATM    2  N   UNL     1      41.730 -13.367   5.584  1.00  0.00    -0.302 N 
HETATM    3  C   UNL     1      40.587 -12.632   5.791  1.00  0.00     0.192 A 
HETATM    4  N   UNL     1      39.665 -13.390   6.338  1.00  0.00    -0.122 NA
HETATM    5  N   UNL     1      40.188 -14.648   6.470  1.00  0.00    -0.128 NA
ENDROOT
BRANCH   3   6
HETATM    6  S   UNL     1      40.299 -11.020   5.240  1.00  0.00    -0.081 SA
BRANCH   6   7
HETATM    7  C   UNL     1      40.912 -10.081   6.670  1.00  0.00     0.185 C 
BRANCH   7   8
HETATM    8  C   UNL     1      39.834  -9.879   7.733  1.00  0.00     0.229 C 
HETATM    9  N   UNL     1      40.263  -9.360   8.960  1.00  0.00    -0.348 N 
HETATM   10  C   UNL     1      39.223  -8.988   9.927  1.00  0.00     0.145 C 
HETATM   11  C   UNL     1      41.550  -8.672   9.145  1.00  0.00     0.145 C 
HETATM   12  C   UNL     1      39.719  -8.982  11.383  1.00  0.00     0.143 C 
HETATM   13  N   UNL     1      40.950  -8.175  11.506  1.00  0.00    -0.378 N 
HETATM   14  C   UNL     1      42.028  -8.656  10.612  1.00  0.00     0.143 C 
HETATM   15  O   UNL     1      38.651 -10.171   7.548  1.00  0.00    -0.273 OA
BRANCH  13  16
HETATM   16  C   UNL     1      41.383  -7.817  12.791  1.00  0.00     0.030 A 
HETATM   17  C   UNL     1      40.534  -7.759  13.909  1.00  0.00     0.032 A 
HETATM   18  C   UNL     1      41.003  -7.367  15.170  1.00  0.00     0.039 A 
HETATM   19  C   UNL     1      42.337  -7.019  15.326  1.00  0.00     0.065 A 
HETATM   20  C   UNL     1      43.203  -7.056  14.246  1.00  0.00     0.039 A 
HETATM   21  C   UNL     1      42.725  -7.448  12.992  1.00  0.00     0.032 A 
BRANCH  19  22
HETATM   22  O   UNL     1      42.836  -6.624  16.531  1.00  0.00    -0.361 OA
HETATM   23  H   UNL     1      43.784  -6.832  16.558  1.00  0.00     0.217 HD
ENDBRANCH  19  22
ENDBRANCH  13  16
ENDBRANCH   7   8
ENDBRANCH   6   7
ENDBRANCH   3   6
BRANCH   2  24
HETATM   24  C   UNL     1      42.979 -12.955   4.981  1.00  0.00     0.094 A 
HETATM   25  C   UNL     1      43.401 -11.579   4.529  1.00  0.00     0.028 A 
HETATM   26  C   UNL     1      43.995 -12.163   5.777  1.00  0.00     0.028 A 
ENDBRANCH   2  24
BRANCH   1  27
HETATM   27  C   UNL     1      42.269 -15.896   6.017  1.00  0.00     0.040 A 
HETATM   28  C   UNL     1      42.679 -16.643   4.860  1.00  0.00     0.006 A 
HETATM   29  C   UNL     1      42.462 -16.523   3.469  1.00  0.00     0.014 A 
HETATM   30  C   UNL     1      43.457 -17.713   5.308  1.00  0.00     0.043 A 
HETATM   31  C   UNL     1      43.021 -17.461   2.592  1.00  0.00     0.001 A 
HETATM   32  C   UNL     1      43.797 -18.510   3.077  1.00  0.00     0.002 A 
HETATM   33  C   UNL     1      44.030 -18.655   4.446  1.00  0.00     0.030 A 
HETATM   34  N   UNL     1      43.511 -17.626   6.678  1.00  0.00    -0.364 N 
HETATM   35  H   UNL     1      44.007 -18.276   7.272  1.00  0.00     0.165 HD
HETATM   36  C   UNL     1      42.784 -16.548   7.117  1.00  0.00     0.104 A 
ENDBRANCH   1  27
TORSDOF 7
ENDMDL
MODEL 5
REMARK VINA RESULT:      -8.9      5.013      8.451
REMARK  7 active torsions:
REMARK  status: ('A' for Active; 'I' for Inactive)
REMARK    1  A    between atoms: C_8  and  C_9 
REMARK    2  A    between atoms: N_10  and  C_11 
REMARK    3  A    between atoms: C_14  and  S_15 
REMARK    4  A    between atoms: S_15  and  C_16 
REMARK    5  A    between atoms: C_16  and  C_17 
REMARK       I    between atoms: C_17  and  N_18 
REMARK    6  A    between atoms: N_21  and  C_22 
REMARK    7  A    between atoms: C_25  and  O_26 
ROOT
HETATM    1  C   UNL     1      41.267  -9.261  10.200  1.00  0.00     0.167 A 
HETATM    2  N   UNL     1      42.375  -9.589   9.436  1.00  0.00    -0.302 N 
HETATM    3  C   UNL     1      42.022  -9.314   8.136  1.00  0.00     0.192 A 
HETATM    4  N   UNL     1      40.811  -8.809   8.102  1.00  0.00    -0.122 NA
HETATM    5  N   UNL     1      40.341  -8.775   9.388  1.00  0.00    -0.128 NA
ENDROOT
BRANCH   3   6
HETATM    6  S   UNL     1      42.920  -9.745   6.724  1.00  0.00    -0.081 SA
BRANCH   6   7
HETATM    7  C   UNL     1      42.113 -11.318   6.302  1.00  0.00     0.185 C 
BRANCH   7   8
HETATM    8  C   UNL     1      42.351 -11.716   4.847  1.00  0.00     0.229 C 
HETATM    9  N   UNL     1      42.518 -13.083   4.597  1.00  0.00    -0.348 N 
HETATM   10  C   UNL     1      42.565 -13.504   3.191  1.00  0.00     0.145 C 
HETATM   11  C   UNL     1      42.114 -14.136   5.542  1.00  0.00     0.145 C 
HETATM   12  C   UNL     1      43.296 -14.841   2.981  1.00  0.00     0.143 C 
HETATM   13  N   UNL     1      42.753 -15.875   3.885  1.00  0.00    -0.378 N 
HETATM   14  C   UNL     1      42.839 -15.477   5.308  1.00  0.00     0.143 C 
HETATM   15  O   UNL     1      42.419 -10.893   3.931  1.00  0.00    -0.273 OA
BRANCH  13  16
HETATM   16  C   UNL     1      43.089 -17.215   3.639  1.00  0.00     0.030 A 
HETATM   17  C   UNL     1      43.870 -17.992   4.510  1.00  0.00     0.032 A 
HETATM   18  C   UNL     1      44.207 -19.319   4.210  1.00  0.00     0.039 A 
HETATM   19  C   UNL     1      43.767 -19.885   3.021  1.00  0.00     0.065 A 
HETATM   20  C   UNL     1      43.001 -19.148   2.134  1.00  0.00     0.039 A 
HETATM   21  C   UNL     1      42.672 -17.824   2.442  1.00  0.00     0.032 A 
BRANCH  19  22
HETATM   22  O   UNL     1      44.077 -21.169   2.684  1.00  0.00    -0.361 OA
HETATM   23  H   UNL     1      43.284 -21.593   2.319  1.00  0.00     0.217 HD
ENDBRANCH  19  22
ENDBRANCH  13  16
ENDBRANCH   7   8
ENDBRANCH   6   7
ENDBRANCH   3   6
BRANCH   2  24
HETATM   24  C   UNL     1      43.596 -10.179   9.940  1.00  0.00     0.094 A 
HETATM   25  C   UNL     1      44.898 -10.421   9.218  1.00  0.00     0.028 A 
HETATM   26  C   UNL     1      44.806  -9.317  10.229  1.00  0.00     0.028 A 
ENDBRANCH   2  24
BRANCH   1  27
HETATM   27  C   UNL     1      41.047  -9.346  11.683  1.00  0.00     0.040 A 
HETATM   28  C   UNL     1      41.707  -8.543  12.674  1.00  0.00     0.006 A 
HETATM   29  C   UNL     1      42.688  -7.526  12.640  1.00  0.00     0.014 A 
HETATM   30  C   UNL     1      41.211  -8.927  13.922  1.00  0.00     0.043 A 
HETATM   31  C   UNL     1      43.128  -6.940  13.833  1.00  0.00     0.001 A 
HETATM   32  C   UNL     1      42.603  -7.346  15.057  1.00  0.00     0.002 A 
HETATM   33  C   UNL     1      41.632  -8.347  15.124  1.00  0.00     0.030 A 
HETATM   34  N   UNL     1      40.294  -9.926  13.701  1.00  0.00    -0.364 N 
HETATM   35  H   UNL     1      39.776 -10.397  14.429  1.00  0.00     0.165 HD
HETATM   36  C   UNL     1      40.202 -10.201  12.359  1.00  0.00     0.104 A 
ENDBRANCH   1  27
TORSDOF 7
ENDMDL
MODEL 6
REMARK VINA RESULT:      -8.7      1.413      2.400
REMARK  7 active torsions:
REMARK  status: ('A' for Active; 'I' for Inactive)
REMARK    1  A    between atoms: C_8  and  C_9 
REMARK    2  A    between atoms: N_10  and  C_11 
REMARK    3  A    between atoms: C_14  and  S_15 
REMARK    4  A    between atoms: S_15  and  C_16 
REMARK    5  A    between atoms: C_16  and  C_17 
REMARK       I    between atoms: C_17  and  N_18 
REMARK    6  A    between atoms: N_21  and  C_22 
REMARK    7  A    between atoms: C_25  and  O_26 
ROOT
HETATM    1  C   UNL     1      42.998 -12.930   5.043  1.00  0.00     0.167 A 
HETATM    2  N   UNL     1      41.878 -12.157   5.308  1.00  0.00    -0.302 N 
HETATM    3  C   UNL     1      42.259 -10.859   5.068  1.00  0.00     0.192 A 
HETATM    4  N   UNL     1      43.500 -10.832   4.640  1.00  0.00    -0.122 NA
HETATM    5  N   UNL     1      43.960 -12.122   4.624  1.00  0.00    -0.128 NA
ENDROOT
BRANCH   3   6
HETATM    6  S   UNL     1      41.348  -9.442   5.454  1.00  0.00    -0.081 SA
BRANCH   6   7
HETATM    7  C   UNL     1      40.946  -8.857   3.781  1.00  0.00     0.185 C 
BRANCH   7   8
HETATM    8  C   UNL     1      39.517  -9.212   3.374  1.00  0.00     0.229 C 
HETATM    9  N   UNL     1      39.380 -10.109   2.309  1.00  0.00    -0.348 N 
HETATM   10  C   UNL     1      38.028 -10.603   2.021  1.00  0.00     0.145 C 
HETATM   11  C   UNL     1      40.468 -10.982   1.837  1.00  0.00     0.145 C 
HETATM   12  C   UNL     1      37.852 -11.086   0.572  1.00  0.00     0.143 C 
HETATM   13  N   UNL     1      38.915 -12.048   0.215  1.00  0.00    -0.378 N 
HETATM   14  C   UNL     1      40.270 -11.476   0.390  1.00  0.00     0.143 C 
HETATM   15  O   UNL     1      38.526  -8.728   3.925  1.00  0.00    -0.273 OA
BRANCH  13  16
HETATM   16  C   UNL     1      38.757 -12.810  -0.953  1.00  0.00     0.030 A 
HETATM   17  C   UNL     1      39.770 -13.616  -1.497  1.00  0.00     0.032 A 
HETATM   18  C   UNL     1      39.578 -14.338  -2.683  1.00  0.00     0.039 A 
HETATM   19  C   UNL     1      38.361 -14.254  -3.346  1.00  0.00     0.065 A 
HETATM   20  C   UNL     1      37.341 -13.463  -2.844  1.00  0.00     0.039 A 
HETATM   21  C   UNL     1      37.544 -12.746  -1.661  1.00  0.00     0.032 A 
BRANCH  19  22
HETATM   22  O   UNL     1      38.133 -14.932  -4.506  1.00  0.00    -0.361 OA
HETATM   23  H   UNL     1      37.333 -15.471  -4.397  1.00  0.00     0.217 HD
ENDBRANCH  19  22
ENDBRANCH  13  16
ENDBRANCH   7   8
ENDBRANCH   6   7
ENDBRANCH   3   6
BRANCH   2  24
HETATM   24  C   UNL     1      40.618 -12.656   5.816  1.00  0.00     0.094 A 
HETATM   25  C   UNL     1      39.333 -11.904   6.058  1.00  0.00     0.028 A 
HETATM   26  C   UNL     1      39.434 -12.842   4.891  1.00  0.00     0.028 A 
ENDBRANCH   2  24
BRANCH   1  27
HETATM   27  C   UNL     1      43.199 -14.415   5.129  1.00  0.00     0.040 A 
HETATM   28  C   UNL     1      43.167 -15.328   4.020  1.00  0.00     0.006 A 
HETATM   29  C   UNL     1      42.948 -15.201   2.631  1.00  0.00     0.014 A 
HETATM   30  C   UNL     1      43.412 -16.607   4.527  1.00  0.00     0.043 A 
HETATM   31  C   UNL     1      42.982 -16.336   1.811  1.00  0.00     0.001 A 
HETATM   32  C   UNL     1      43.236 -17.593   2.352  1.00  0.00     0.002 A 
HETATM   33  C   UNL     1      43.457 -17.752   3.722  1.00  0.00     0.030 A 
HETATM   34  N   UNL     1      43.576 -16.479   5.884  1.00  0.00    -0.364 N 
HETATM   35  H   UNL     1      43.764 -17.249   6.512  1.00  0.00     0.165 HD
HETATM   36  C   UNL     1      43.430 -15.167   6.261  1.00  0.00     0.104 A 
ENDBRANCH   1  27
TORSDOF 7
ENDMDL
MODEL 7
REMARK VINA RESULT:      -8.6      2.642      7.415
REMARK  7 active torsions:
REMARK  status: ('A' for Active; 'I' for Inactive)
REMARK    1  A    between atoms: C_8  and  C_9 
REMARK    2  A    between atoms: N_10  and  C_11 
REMARK    3  A    between atoms: C_14  and  S_15 
REMARK    4  A    between atoms: S_15  and  C_16 
REMARK    5  A    between atoms: C_16  and  C_17 
REMARK       I    between atoms: C_17  and  N_18 
REMARK    6  A    between atoms: N_21  and  C_22 
REMARK    7  A    between atoms: C_25  and  O_26 
ROOT
HETATM    1  C   UNL     1      40.413 -10.974   0.139  1.00  0.00     0.167 A 
HETATM    2  N   UNL     1      39.883 -10.581   1.357  1.00  0.00    -0.302 N 
HETATM    3  C   UNL     1      40.964 -10.284   2.153  1.00  0.00     0.192 A 
HETATM    4  N   UNL     1      42.074 -10.433   1.467  1.00  0.00    -0.122 NA
HETATM    5  N   UNL     1      41.731 -10.862   0.213  1.00  0.00    -0.128 NA
ENDROOT
BRANCH   3   6
HETATM    6  S   UNL     1      40.922  -9.964   3.850  1.00  0.00    -0.081 SA
BRANCH   6   7
HETATM    7  C   UNL     1      40.489 -11.615   4.474  1.00  0.00     0.185 C 
BRANCH   7   8
HETATM    8  C   UNL     1      41.633 -12.254   5.258  1.00  0.00     0.229 C 
HETATM    9  N   UNL     1      42.018 -13.538   4.857  1.00  0.00    -0.348 N 
HETATM   10  C   UNL     1      43.229 -14.095   5.473  1.00  0.00     0.145 C 
HETATM   11  C   UNL     1      41.667 -14.121   3.552  1.00  0.00     0.145 C 
HETATM   12  C   UNL     1      43.274 -15.632   5.447  1.00  0.00     0.143 C 
HETATM   13  N   UNL     1      43.028 -16.133   4.079  1.00  0.00    -0.378 N 
HETATM   14  C   UNL     1      41.735 -15.662   3.533  1.00  0.00     0.143 C 
HETATM   15  O   UNL     1      42.185 -11.696   6.208  1.00  0.00    -0.273 OA
BRANCH  13  16
HETATM   16  C   UNL     1      43.314 -17.479   3.804  1.00  0.00     0.030 A 
HETATM   17  C   UNL     1      43.075 -18.085   2.559  1.00  0.00     0.032 A 
HETATM   18  C   UNL     1      43.348 -19.441   2.337  1.00  0.00     0.039 A 
HETATM   19  C   UNL     1      43.862 -20.214   3.368  1.00  0.00     0.065 A 
HETATM   20  C   UNL     1      44.104 -19.654   4.612  1.00  0.00     0.039 A 
HETATM   21  C   UNL     1      43.826 -18.300   4.824  1.00  0.00     0.032 A 
BRANCH  19  22
HETATM   22  O   UNL     1      44.136 -21.539   3.201  1.00  0.00    -0.361 OA
HETATM   23  H   UNL     1      43.468 -21.920   2.608  1.00  0.00     0.217 HD
ENDBRANCH  19  22
ENDBRANCH  13  16
ENDBRANCH   7   8
ENDBRANCH   6   7
ENDBRANCH   3   6
BRANCH   2  24
HETATM   24  C   UNL     1      38.477 -10.585   1.699  1.00  0.00     0.094 A 
HETATM   25  C   UNL     1      37.284 -10.741   0.789  1.00  0.00     0.028 A 
HETATM   26  C   UNL     1      37.684 -11.875   1.686  1.00  0.00     0.028 A 
ENDBRANCH   2  24
BRANCH   1  27
HETATM   27  C   UNL     1      39.731 -11.420  -1.122  1.00  0.00     0.040 A 
HETATM   28  C   UNL     1      39.453 -12.782  -1.486  1.00  0.00     0.006 A 
HETATM   29  C   UNL     1      39.697 -14.041  -0.893  1.00  0.00     0.014 A 
HETATM   30  C   UNL     1      38.800 -12.759  -2.721  1.00  0.00     0.043 A 
HETATM   31  C   UNL     1      39.286 -15.210  -1.544  1.00  0.00     0.001 A 
HETATM   32  C   UNL     1      38.632 -15.146  -2.770  1.00  0.00     0.002 A 
HETATM   33  C   UNL     1      38.375 -13.917  -3.382  1.00  0.00     0.030 A 
HETATM   34  N   UNL     1      38.692 -11.442  -3.095  1.00  0.00    -0.364 N 
HETATM   35  H   UNL     1      38.262 -11.126  -3.953  1.00  0.00     0.165 HD
HETATM   36  C   UNL     1      39.266 -10.628  -2.151  1.00  0.00     0.104 A 
ENDBRANCH   1  27
TORSDOF 7
ENDMDL
MODEL 8
REMARK VINA RESULT:      -8.4      3.118      6.615
REMARK  7 active torsions:
REMARK  status: ('A' for Active; 'I' for Inactive)
REMARK    1  A    between atoms: C_8  and  C_9 
REMARK    2  A    between atoms: N_10  and  C_11 
REMARK    3  A    between atoms: C_14  and  S_15 
REMARK    4  A    between atoms: S_15  and  C_16 
REMARK    5  A    between atoms: C_16  and  C_17 
REMARK       I    between atoms: C_17  and  N_18 
REMARK    6  A    between atoms: N_21  and  C_22 
REMARK    7  A    between atoms: C_25  and  O_26 
ROOT
HETATM    1  C   UNL     1      40.879 -10.515   6.166  1.00  0.00     0.167 A 
HETATM    2  N   UNL     1      40.559 -10.012   4.915  1.00  0.00    -0.302 N 
HETATM    3  C   UNL     1      39.499 -10.768   4.473  1.00  0.00     0.192 A 
HETATM    4  N   UNL     1      39.159 -11.637   5.396  1.00  0.00    -0.122 NA
HETATM    5  N   UNL     1      40.017 -11.479   6.451  1.00  0.00    -0.128 NA
ENDROOT
BRANCH   3   6
HETATM    6  S   UNL     1      38.829 -10.750   2.881  1.00  0.00    -0.081 SA
BRANCH   6   7
HETATM    7  C   UNL     1      39.220 -12.444   2.353  1.00  0.00     0.185 C 
BRANCH   7   8
HETATM    8  C   UNL     1      40.718 -12.651   2.137  1.00  0.00     0.229 C 
HETATM    9  N   UNL     1      41.199 -13.951   2.328  1.00  0.00    -0.348 N 
HETATM   10  C   UNL     1      42.594 -14.209   1.950  1.00  0.00     0.145 C 
HETATM   11  C   UNL     1      40.335 -15.142   2.344  1.00  0.00     0.145 C 
HETATM   12  C   UNL     1      43.209 -15.413   2.682  1.00  0.00     0.143 C 
HETATM   13  N   UNL     1      42.338 -16.599   2.552  1.00  0.00    -0.378 N 
HETATM   14  C   UNL     1      40.971 -16.349   3.063  1.00  0.00     0.143 C 
HETATM   15  O   UNL     1      41.482 -11.732   1.833  1.00  0.00    -0.273 OA
BRANCH  13  16
HETATM   16  C   UNL     1      42.865 -17.852   2.901  1.00  0.00     0.030 A 
HETATM   17  C   UNL     1      43.554 -18.098   4.100  1.00  0.00     0.032 A 
HETATM   18  C   UNL     1      44.090 -19.358   4.395  1.00  0.00     0.039 A 
HETATM   19  C   UNL     1      43.947 -20.394   3.482  1.00  0.00     0.065 A 
HETATM   20  C   UNL     1      43.281 -20.187   2.285  1.00  0.00     0.039 A 
HETATM   21  C   UNL     1      42.751 -18.925   2.000  1.00  0.00     0.032 A 
BRANCH  19  22
HETATM   22  O   UNL     1      44.459 -21.634   3.723  1.00  0.00    -0.361 OA
HETATM   23  H   UNL     1      44.003 -22.273   3.151  1.00  0.00     0.217 HD
ENDBRANCH  19  22
ENDBRANCH  13  16
ENDBRANCH   7   8
ENDBRANCH   6   7
ENDBRANCH   3   6
BRANCH   2  24
HETATM   24  C   UNL     1      41.278  -8.964   4.224  1.00  0.00     0.094 A 
HETATM   25  C   UNL     1      40.734  -7.864   3.346  1.00  0.00     0.028 A 
HETATM   26  C   UNL     1      41.228  -7.536   4.724  1.00  0.00     0.028 A 
ENDBRANCH   2  24
BRANCH   1  27
HETATM   27  C   UNL     1      41.948 -10.102   7.137  1.00  0.00     0.040 A 
HETATM   28  C   UNL     1      43.336 -10.461   7.055  1.00  0.00     0.006 A 
HETATM   29  C   UNL     1      44.112 -11.243   6.170  1.00  0.00     0.014 A 
HETATM   30  C   UNL     1      43.986  -9.865   8.139  1.00  0.00     0.043 A 
HETATM   31  C   UNL     1      45.486 -11.396   6.396  1.00  0.00     0.001 A 
HETATM   32  C   UNL     1      46.098 -10.780   7.483  1.00  0.00     0.002 A 
HETATM   33  C   UNL     1      45.359 -10.001   8.375  1.00  0.00     0.030 A 
HETATM   34  N   UNL     1      43.033  -9.180   8.853  1.00  0.00    -0.364 N 
HETATM   35  H   UNL     1      43.221  -8.652   9.694  1.00  0.00     0.165 HD
HETATM   36  C   UNL     1      41.800  -9.331   8.271  1.00  0.00     0.104 A 
ENDBRANCH   1  27
TORSDOF 7
ENDMDL
MODEL 9
REMARK VINA RESULT:      -8.3      3.328      7.091
REMARK  7 active torsions:
REMARK  status: ('A' for Active; 'I' for Inactive)
REMARK    1  A    between atoms: C_8  and  C_9 
REMARK    2  A    between atoms: N_10  and  C_11 
REMARK    3  A    between atoms: C_14  and  S_15 
REMARK    4  A    between atoms: S_15  and  C_16 
REMARK    5  A    between atoms: C_16  and  C_17 
REMARK       I    between atoms: C_17  and  N_18 
REMARK    6  A    between atoms: N_21  and  C_22 
REMARK    7  A    between atoms: C_25  and  O_26 
ROOT
HETATM    1  C   UNL     1      43.142 -10.855   5.181  1.00  0.00     0.167 A 
HETATM    2  N   UNL     1      42.000 -10.575   4.448  1.00  0.00    -0.302 N 
HETATM    3  C   UNL     1      42.358 -10.732   3.131  1.00  0.00     0.192 A 
HETATM    4  N   UNL     1      43.609 -11.125   3.055  1.00  0.00    -0.122 NA
HETATM    5  N   UNL     1      44.096 -11.203   4.332  1.00  0.00    -0.128 NA
ENDROOT
BRANCH   3   6
HETATM    6  S   UNL     1      41.408 -10.290   1.757  1.00  0.00    -0.081 SA
BRANCH   6   7
HETATM    7  C   UNL     1      41.354 -11.882   0.882  1.00  0.00     0.185 C 
BRANCH   7   8
HETATM    8  C   UNL     1      40.490 -12.911   1.609  1.00  0.00     0.229 C 
HETATM    9  N   UNL     1      41.114 -14.116   1.950  1.00  0.00    -0.348 N 
HETATM   10  C   UNL     1      40.359 -15.040   2.805  1.00  0.00     0.145 C 
HETATM   11  C   UNL     1      42.574 -14.290   1.993  1.00  0.00     0.145 C 
HETATM   12  C   UNL     1      40.815 -16.503   2.671  1.00  0.00     0.143 C 
HETATM   13  N   UNL     1      42.278 -16.607   2.843  1.00  0.00    -0.378 N 
HETATM   14  C   UNL     1      43.017 -15.763   1.877  1.00  0.00     0.143 C 
HETATM   15  O   UNL     1      39.300 -12.718   1.871  1.00  0.00    -0.273 OA
BRANCH  13  16
HETATM   16  C   UNL     1      42.834 -17.880   3.041  1.00  0.00     0.030 A 
HETATM   17  C   UNL     1      43.660 -18.205   4.131  1.00  0.00     0.032 A 
HETATM   18  C   UNL     1      44.219 -19.482   4.274  1.00  0.00     0.039 A 
HETATM   19  C   UNL     1      43.961 -20.454   3.317  1.00  0.00     0.065 A 
HETATM   20  C   UNL     1      43.159 -20.168   2.225  1.00  0.00     0.039 A 
HETATM   21  C   UNL     1      42.607 -18.890   2.091  1.00  0.00     0.032 A 
BRANCH  19  22
HETATM   22  O   UNL     1      44.490 -21.706   3.411  1.00  0.00    -0.361 OA
HETATM   23  H   UNL     1      43.771 -22.333   3.591  1.00  0.00     0.217 HD
ENDBRANCH  19  22
ENDBRANCH  13  16
ENDBRANCH   7   8
ENDBRANCH   6   7
ENDBRANCH   3   6
BRANCH   2  24
HETATM   24  C   UNL     1      40.739 -10.129   5.000  1.00  0.00     0.094 A 
HETATM   25  C   UNL     1      39.353 -10.264   4.420  1.00  0.00     0.028 A 
HETATM   26  C   UNL     1      39.757 -11.124   5.581  1.00  0.00     0.028 A 
ENDBRANCH   2  24
BRANCH   1  27
HETATM   27  C   UNL     1      43.373 -10.848   6.665  1.00  0.00     0.040 A 
HETATM   28  C   UNL     1      43.243  -9.706   7.526  1.00  0.00     0.006 A 
HETATM   29  C   UNL     1      42.916  -8.345   7.333  1.00  0.00     0.014 A 
HETATM   30  C   UNL     1      43.531 -10.128   8.826  1.00  0.00     0.043 A 
HETATM   31  C   UNL     1      42.887  -7.471   8.427  1.00  0.00     0.001 A 
HETATM   32  C   UNL     1      43.173  -7.932   9.709  1.00  0.00     0.002 A 
HETATM   33  C   UNL     1      43.499  -9.271   9.933  1.00  0.00     0.030 A 
HETATM   34  N   UNL     1      43.830 -11.467   8.758  1.00  0.00    -0.364 N 
HETATM   35  H   UNL     1      44.081 -12.037   9.554  1.00  0.00     0.165 HD
HETATM   36  C   UNL     1      43.758 -11.907   7.460  1.00  0.00     0.104 A 
ENDBRANCH   1  27
TORSDOF 7
ENDMDL
MODEL 10
REMARK VINA RESULT:      -8.2     16.878     18.745
REMARK  7 active torsions:
REMARK  status: ('A' for Active; 'I' for Inactive)
REMARK    1  A    between atoms: C_8  and  C_9 
REMARK    2  A    between atoms: N_10  and  C_11 
REMARK    3  A    between atoms: C_14  and  S_15 
REMARK    4  A    between atoms: S_15  and  C_16 
REMARK    5  A    between atoms: C_16  and  C_17 
REMARK       I    between atoms: C_17  and  N_18 
REMARK    6  A    between atoms: N_21  and  C_22 
REMARK    7  A    between atoms: C_25  and  O_26 
ROOT
HETATM    1  C   UNL     1      47.602 -29.548   2.094  1.00  0.00     0.167 A 
HETATM    2  N   UNL     1      48.104 -29.541   0.802  1.00  0.00    -0.302 N 
HETATM    3  C   UNL     1      47.604 -28.402   0.217  1.00  0.00     0.192 A 
HETATM    4  N   UNL     1      46.889 -27.732   1.091  1.00  0.00    -0.122 NA
HETATM    5  N   UNL     1      46.889 -28.445   2.260  1.00  0.00    -0.128 NA
ENDROOT
BRANCH   3   6
HETATM    6  S   UNL     1      47.703 -27.990  -1.458  1.00  0.00    -0.081 SA
BRANCH   6   7
HETATM    7  C   UNL     1      46.021 -28.423  -1.992  1.00  0.00     0.185 C 
BRANCH   7   8
HETATM    8  C   UNL     1      45.682 -29.884  -1.702  1.00  0.00     0.229 C 
HETATM    9  N   UNL     1      44.689 -30.112  -0.742  1.00  0.00    -0.348 N 
HETATM   10  C   UNL     1      44.221 -31.494  -0.581  1.00  0.00     0.145 C 
HETATM   11  C   UNL     1      43.733 -29.083  -0.303  1.00  0.00     0.145 C 
HETATM   12  C   UNL     1      43.602 -31.769   0.800  1.00  0.00     0.143 C 
HETATM   13  N   UNL     1      42.570 -30.761   1.115  1.00  0.00    -0.378 N 
HETATM   14  C   UNL     1      43.105 -29.380   1.074  1.00  0.00     0.143 C 
HETATM   15  O   UNL     1      46.256 -30.825  -2.254  1.00  0.00    -0.273 OA
BRANCH  13  16
HETATM   16  C   UNL     1      41.703 -31.012   2.189  1.00  0.00     0.030 A 
HETATM   17  C   UNL     1      41.807 -30.375   3.437  1.00  0.00     0.032 A 
HETATM   18  C   UNL     1      40.936 -30.678   4.492  1.00  0.00     0.039 A 
HETATM   19  C   UNL     1      39.947 -31.635   4.310  1.00  0.00     0.065 A 
HETATM   20  C   UNL     1      39.818 -32.289   3.097  1.00  0.00     0.039 A 
HETATM   21  C   UNL     1      40.693 -31.980   2.050  1.00  0.00     0.032 A 
BRANCH  19  22
HETATM   22  O   UNL     1      39.084 -31.968   5.310  1.00  0.00    -0.361 OA
HETATM   23  H   UNL     1      39.509 -32.630   5.879  1.00  0.00     0.217 HD
ENDBRANCH  19  22
ENDBRANCH  13  16
ENDBRANCH   7   8
ENDBRANCH   6   7
ENDBRANCH   3   6
BRANCH   2  24
HETATM   24  C   UNL     1      48.912 -30.586   0.212  1.00  0.00     0.094 A 
HETATM   25  C   UNL     1      49.719 -30.551  -1.062  1.00  0.00     0.028 A 
HETATM   26  C   UNL     1      50.424 -30.511   0.261  1.00  0.00     0.028 A 
ENDBRANCH   2  24
BRANCH   1  27
HETATM   27  C   UNL     1      47.794 -30.536   3.208  1.00  0.00     0.040 A 
HETATM   28  C   UNL     1      49.024 -30.776   3.911  1.00  0.00     0.006 A 
HETATM   29  C   UNL     1      50.337 -30.262   3.824  1.00  0.00     0.014 A 
HETATM   30  C   UNL     1      48.770 -31.756   4.873  1.00  0.00     0.043 A 
HETATM   31  C   UNL     1      51.331 -30.738   4.687  1.00  0.00     0.001 A 
HETATM   32  C   UNL     1      51.038 -31.710   5.638  1.00  0.00     0.002 A 
HETATM   33  C   UNL     1      49.749 -32.238   5.750  1.00  0.00     0.030 A 
HETATM   34  N   UNL     1      47.446 -32.104   4.756  1.00  0.00    -0.364 N 
HETATM   35  H   UNL     1      46.986 -32.797   5.328  1.00  0.00     0.165 HD
HETATM   36  C   UNL     1      46.854 -31.391   3.743  1.00  0.00     0.104 A 
ENDBRANCH   1  27
TORSDOF 7
ENDMDL
