MODEL 1
REMARK VINA RESULT:      -8.8      0.000      0.000
REMARK  3 active torsions:
REMARK  status: ('A' for Active; 'I' for Inactive)
REMARK    1  A    between atoms: C_2  and  C_3 
REMARK    2  A    between atoms: C_8  and  C_9 
REMARK    3  A    between atoms: C_9  and  N_10 
ROOT
HETATM    1  C   UNL     1      40.432 -13.819   4.308  1.00  0.00     0.096 A 
HETATM    2  N   UNL     1      40.043 -12.677   4.891  1.00  0.00    -0.174 NA
HETATM    3  N   UNL     1      40.223 -12.863   6.201  1.00  0.00    -0.288 N 
HETATM    4  H   UNL     1      39.951 -12.118   6.837  1.00  0.00     0.188 HD
HETATM    5  C   UNL     1      40.790 -14.067   6.491  1.00  0.00     0.120 A 
HETATM    6  C   UNL     1      40.948 -14.729   5.287  1.00  0.00     0.016 A 
ENDROOT
BRANCH   6   7
HETATM    7  C   UNL     1      41.540 -16.079   5.108  1.00  0.00     0.277 C 
BRANCH   7   8
HETATM    8  N   UNL     1      43.009 -16.086   4.729  1.00  0.00    -0.067 N 
HETATM    9  H   UNL     1      43.268 -15.090   4.682  1.00  0.00     0.280 HD
HETATM   10  C   UNL     1      43.264 -16.648   3.348  1.00  0.00     0.242 C 
HETATM   11  C   UNL     1      43.112 -18.165   3.360  1.00  0.00     0.041 C 
HETATM   12  C   UNL     1      44.051 -18.790   4.396  1.00  0.00     0.128 C 
HETATM   13  C   UNL     1      43.383 -18.792   1.988  1.00  0.00     0.011 C 
HETATM   14  O   UNL     1      43.818 -20.196   4.457  1.00  0.00    -0.385 OA
HETATM   15  C   UNL     1      43.807 -18.203   5.782  1.00  0.00     0.060 C 
HETATM   16  C   UNL     1      44.136 -20.855   3.227  1.00  0.00     0.168 C 
HETATM   17  C   UNL     1      43.284 -20.315   2.082  1.00  0.00     0.027 C 
HETATM   18  C   UNL     1      43.927 -16.690   5.767  1.00  0.00     0.237 C 
ENDBRANCH   7   8
ENDBRANCH   6   7
BRANCH   1  19
HETATM   19  C   UNL     1      40.355 -13.954   2.849  1.00  0.00    -0.002 A 
HETATM   20  C   UNL     1      40.072 -15.209   2.284  1.00  0.00     0.017 A 
HETATM   21  C   UNL     1      39.965 -15.367   0.900  1.00  0.00     0.040 A 
HETATM   22  C   UNL     1      40.129 -14.268   0.065  1.00  0.00     0.102 A 
HETATM   23  C   UNL     1      40.445 -13.022   0.612  1.00  0.00     0.103 A 
HETATM   24  O   UNL     1      39.988 -14.488  -1.278  1.00  0.00    -0.346 OA
HETATM   25  C   UNL     1      40.562 -12.865   1.994  1.00  0.00     0.053 A 
HETATM   26  O   UNL     1      40.642 -11.899  -0.149  1.00  0.00    -0.346 OA
HETATM   27  C   UNL     1      40.905 -12.246  -1.518  1.00  0.00     0.202 C 
HETATM   28  C   UNL     1      39.894 -13.265  -2.017  1.00  0.00     0.202 C 
ENDBRANCH   1  19
TORSDOF 3
ENDMDL
MODEL 2
REMARK VINA RESULT:      -8.6      3.412      5.061
REMARK  3 active torsions:
REMARK  status: ('A' for Active; 'I' for Inactive)
REMARK    1  A    between atoms: C_2  and  C_3 
REMARK    2  A    between atoms: C_8  and  C_9 
REMARK    3  A    between atoms: C_9  and  N_10 
ROOT
HETATM    1  C   UNL     1      41.091 -13.991   4.478  1.00  0.00     0.096 A 
HETATM    2  N   UNL     1      40.303 -13.633   3.456  1.00  0.00    -0.174 NA
HETATM    3  N   UNL     1      39.843 -14.775   2.940  1.00  0.00    -0.288 N 
HETATM    4  H   UNL     1      39.246 -14.728   2.118  1.00  0.00     0.188 HD
HETATM    5  C   UNL     1      40.245 -15.872   3.640  1.00  0.00     0.120 A 
HETATM    6  C   UNL     1      41.062 -15.413   4.658  1.00  0.00     0.016 A 
ENDROOT
BRANCH   6   7
HETATM    7  C   UNL     1      41.725 -16.253   5.686  1.00  0.00     0.277 C 
BRANCH   7   8
HETATM    8  N   UNL     1      43.226 -16.405   5.515  1.00  0.00    -0.067 N 
HETATM    9  H   UNL     1      43.600 -15.458   5.670  1.00  0.00     0.280 HD
HETATM   10  C   UNL     1      43.627 -16.785   4.106  1.00  0.00     0.242 C 
HETATM   11  C   UNL     1      43.304 -18.251   3.844  1.00  0.00     0.041 C 
HETATM   12  C   UNL     1      43.992 -19.147   4.878  1.00  0.00     0.128 C 
HETATM   13  C   UNL     1      43.712 -18.698   2.436  1.00  0.00     0.011 C 
HETATM   14  O   UNL     1      43.594 -20.500   4.670  1.00  0.00    -0.385 OA
HETATM   15  C   UNL     1      43.603 -18.745   6.297  1.00  0.00     0.060 C 
HETATM   16  C   UNL     1      44.023 -21.007   3.402  1.00  0.00     0.168 C 
HETATM   17  C   UNL     1      43.428 -20.190   2.259  1.00  0.00     0.027 C 
HETATM   18  C   UNL     1      43.895 -17.278   6.551  1.00  0.00     0.237 C 
ENDBRANCH   7   8
ENDBRANCH   6   7
BRANCH   1  19
HETATM   19  C   UNL     1      41.772 -12.960   5.269  1.00  0.00    -0.002 A 
HETATM   20  C   UNL     1      41.054 -11.832   5.701  1.00  0.00     0.017 A 
HETATM   21  C   UNL     1      41.666 -10.845   6.479  1.00  0.00     0.040 A 
HETATM   22  C   UNL     1      43.001 -10.981   6.843  1.00  0.00     0.102 A 
HETATM   23  C   UNL     1      43.734 -12.080   6.391  1.00  0.00     0.103 A 
HETATM   24  O   UNL     1      43.529  -9.991   7.624  1.00  0.00    -0.346 OA
HETATM   25  C   UNL     1      43.127 -13.062   5.605  1.00  0.00     0.053 A 
HETATM   26  O   UNL     1      45.058 -12.270   6.691  1.00  0.00    -0.346 OA
HETATM   27  C   UNL     1      45.668 -11.045   7.128  1.00  0.00     0.202 C 
HETATM   28  C   UNL     1      44.801 -10.358   8.172  1.00  0.00     0.202 C 
ENDBRANCH   1  19
TORSDOF 3
ENDMDL
MODEL 3
REMARK VINA RESULT:      -8.5      4.425      6.572
REMARK  3 active torsions:
REMARK  status: ('A' for Active; 'I' for Inactive)
REMARK    1  A    between atoms: C_2  and  C_3 
REMARK    2  A    between atoms: C_8  and  C_9 
REMARK    3  A    between atoms: C_9  and  N_10 
ROOT
HETATM    1  C   UNL     1      42.776 -10.949   4.227  1.00  0.00     0.096 A 
HETATM    2  N   UNL     1      42.160  -9.840   3.795  1.00  0.00    -0.174 NA
HETATM    3  N   UNL     1      41.655 -10.153   2.599  1.00  0.00    -0.288 N 
HETATM    4  H   UNL     1      41.172  -9.428   2.074  1.00  0.00     0.188 HD
HETATM    5  C   UNL     1      41.855 -11.458   2.265  1.00  0.00     0.120 A 
HETATM    6  C   UNL     1      42.582 -12.023   3.297  1.00  0.00     0.016 A 
ENDROOT
BRANCH   6   7
HETATM    7  C   UNL     1      43.025 -13.438   3.376  1.00  0.00     0.277 C 
BRANCH   7   8
HETATM    8  N   UNL     1      41.986 -14.402   3.918  1.00  0.00    -0.067 N 
HETATM    9  H   UNL     1      41.363 -13.814   4.491  1.00  0.00     0.280 HD
HETATM   10  C   UNL     1      42.567 -15.433   4.861  1.00  0.00     0.242 C 
HETATM   11  C   UNL     1      43.343 -16.485   4.077  1.00  0.00     0.041 C 
HETATM   12  C   UNL     1      42.447 -17.139   3.022  1.00  0.00     0.128 C 
HETATM   13  C   UNL     1      43.935 -17.571   4.982  1.00  0.00     0.011 C 
HETATM   14  O   UNL     1      43.221 -18.045   2.240  1.00  0.00    -0.385 OA
HETATM   15  C   UNL     1      41.844 -16.094   2.089  1.00  0.00     0.060 C 
HETATM   16  C   UNL     1      43.733 -19.135   3.014  1.00  0.00     0.168 C 
HETATM   17  C   UNL     1      44.639 -18.630   4.133  1.00  0.00     0.027 C 
HETATM   18  C   UNL     1      41.096 -15.028   2.869  1.00  0.00     0.237 C 
ENDBRANCH   7   8
ENDBRANCH   6   7
BRANCH   1  19
HETATM   19  C   UNL     1      43.454 -10.946   5.528  1.00  0.00    -0.002 A 
HETATM   20  C   UNL     1      44.740 -11.498   5.640  1.00  0.00     0.017 A 
HETATM   21  C   UNL     1      45.424 -11.486   6.858  1.00  0.00     0.040 A 
HETATM   22  C   UNL     1      44.832 -10.912   7.977  1.00  0.00     0.102 A 
HETATM   23  C   UNL     1      43.540 -10.391   7.887  1.00  0.00     0.103 A 
HETATM   24  O   UNL     1      45.567 -10.913   9.131  1.00  0.00    -0.346 OA
HETATM   25  C   UNL     1      42.851 -10.411   6.673  1.00  0.00     0.053 A 
HETATM   26  O   UNL     1      42.884  -9.828   8.952  1.00  0.00    -0.346 OA
HETATM   27  C   UNL     1      43.488 -10.223  10.194  1.00  0.00     0.202 C 
HETATM   28  C   UNL     1      44.998 -10.061  10.133  1.00  0.00     0.202 C 
ENDBRANCH   1  19
TORSDOF 3
ENDMDL
MODEL 4
REMARK VINA RESULT:      -8.4      0.862      1.563
REMARK  3 active torsions:
REMARK  status: ('A' for Active; 'I' for Inactive)
REMARK    1  A    between atoms: C_2  and  C_3 
REMARK    2  A    between atoms: C_8  and  C_9 
REMARK    3  A    between atoms: C_9  and  N_10 
ROOT
HETATM    1  C   UNL     1      40.312 -13.384   3.955  1.00  0.00     0.096 A 
HETATM    2  N   UNL     1      39.877 -12.389   4.741  1.00  0.00    -0.174 NA
HETATM    3  N   UNL     1      39.914 -12.873   5.985  1.00  0.00    -0.288 N 
HETATM    4  H   UNL     1      39.584 -12.282   6.743  1.00  0.00     0.188 HD
HETATM    5  C   UNL     1      40.431 -14.131   6.049  1.00  0.00     0.120 A 
HETATM    6  C   UNL     1      40.709 -14.510   4.748  1.00  0.00     0.016 A 
ENDROOT
BRANCH   6   7
HETATM    7  C   UNL     1      41.300 -15.806   4.326  1.00  0.00     0.277 C 
BRANCH   7   8
HETATM    8  N   UNL     1      42.808 -15.795   4.163  1.00  0.00    -0.067 N 
HETATM    9  H   UNL     1      43.026 -14.841   3.840  1.00  0.00     0.280 HD
HETATM   10  C   UNL     1      43.293 -16.723   3.071  1.00  0.00     0.242 C 
HETATM   11  C   UNL     1      43.210 -18.172   3.536  1.00  0.00     0.041 C 
HETATM   12  C   UNL     1      44.008 -18.369   4.828  1.00  0.00     0.128 C 
HETATM   13  C   UNL     1      43.713 -19.158   2.475  1.00  0.00     0.011 C 
HETATM   14  O   UNL     1      43.833 -19.705   5.293  1.00  0.00    -0.385 OA
HETATM   15  C   UNL     1      43.532 -17.415   5.918  1.00  0.00     0.060 C 
HETATM   16  C   UNL     1      44.363 -20.674   4.383  1.00  0.00     0.168 C 
HETATM   17  C   UNL     1      43.670 -20.584   3.026  1.00  0.00     0.027 C 
HETATM   18  C   UNL     1      43.585 -15.973   5.447  1.00  0.00     0.237 C 
ENDBRANCH   7   8
ENDBRANCH   6   7
BRANCH   1  19
HETATM   19  C   UNL     1      40.390 -13.184   2.504  1.00  0.00    -0.002 A 
HETATM   20  C   UNL     1      40.982 -12.016   1.996  1.00  0.00     0.017 A 
HETATM   21  C   UNL     1      41.097 -11.807   0.619  1.00  0.00     0.040 A 
HETATM   22  C   UNL     1      40.628 -12.771  -0.267  1.00  0.00     0.102 A 
HETATM   23  C   UNL     1      40.006 -13.920   0.225  1.00  0.00     0.103 A 
HETATM   24  O   UNL     1      40.794 -12.514  -1.600  1.00  0.00    -0.346 OA
HETATM   25  C   UNL     1      39.881 -14.125   1.601  1.00  0.00     0.053 A 
HETATM   26  O   UNL     1      39.501 -14.903  -0.587  1.00  0.00    -0.346 OA
HETATM   27  C   UNL     1      39.309 -14.417  -1.924  1.00  0.00     0.202 C 
HETATM   28  C   UNL     1      40.543 -13.671  -2.406  1.00  0.00     0.202 C 
ENDBRANCH   1  19
TORSDOF 3
ENDMDL
MODEL 5
REMARK VINA RESULT:      -8.3      1.708      6.550
REMARK  3 active torsions:
REMARK  status: ('A' for Active; 'I' for Inactive)
REMARK    1  A    between atoms: C_2  and  C_3 
REMARK    2  A    between atoms: C_8  and  C_9 
REMARK    3  A    between atoms: C_9  and  N_10 
ROOT
HETATM    1  C   UNL     1      43.180 -14.865   5.418  1.00  0.00     0.096 A 
HETATM    2  N   UNL     1      43.296 -15.020   6.743  1.00  0.00    -0.174 NA
HETATM    3  N   UNL     1      43.289 -13.785   7.252  1.00  0.00    -0.288 N 
HETATM    4  H   UNL     1      43.406 -13.676   8.256  1.00  0.00     0.188 HD
HETATM    5  C   UNL     1      43.096 -12.825   6.306  1.00  0.00     0.120 A 
HETATM    6  C   UNL     1      43.017 -13.479   5.090  1.00  0.00     0.016 A 
ENDROOT
BRANCH   6   7
HETATM    7  C   UNL     1      42.798 -12.836   3.769  1.00  0.00     0.277 C 
BRANCH   7   8
HETATM    8  N   UNL     1      41.411 -12.252   3.567  1.00  0.00    -0.067 N 
HETATM    9  H   UNL     1      41.035 -12.145   4.520  1.00  0.00     0.280 HD
HETATM   10  C   UNL     1      40.469 -13.196   2.852  1.00  0.00     0.242 C 
HETATM   11  C   UNL     1      40.814 -13.261   1.369  1.00  0.00     0.041 C 
HETATM   12  C   UNL     1      40.779 -11.862   0.746  1.00  0.00     0.128 C 
HETATM   13  C   UNL     1      39.874 -14.186   0.588  1.00  0.00     0.011 C 
HETATM   14  O   UNL     1      41.202 -11.939  -0.614  1.00  0.00    -0.385 OA
HETATM   15  C   UNL     1      41.712 -10.909   1.485  1.00  0.00     0.060 C 
HETATM   16  C   UNL     1      40.313 -12.722  -1.418  1.00  0.00     0.168 C 
HETATM   17  C   UNL     1      40.228 -14.154  -0.899  1.00  0.00     0.027 C 
HETATM   18  C   UNL     1      41.391 -10.865   2.968  1.00  0.00     0.237 C 
ENDBRANCH   7   8
ENDBRANCH   6   7
BRANCH   1  19
HETATM   19  C   UNL     1      43.162 -16.043   4.545  1.00  0.00    -0.002 A 
HETATM   20  C   UNL     1      42.569 -15.956   3.275  1.00  0.00     0.017 A 
HETATM   21  C   UNL     1      42.560 -17.052   2.408  1.00  0.00     0.040 A 
HETATM   22  C   UNL     1      43.153 -18.247   2.800  1.00  0.00     0.102 A 
HETATM   23  C   UNL     1      43.715 -18.357   4.073  1.00  0.00     0.103 A 
HETATM   24  O   UNL     1      43.129 -19.272   1.894  1.00  0.00    -0.346 OA
HETATM   25  C   UNL     1      43.717 -17.266   4.944  1.00  0.00     0.053 A 
HETATM   26  O   UNL     1      44.299 -19.508   4.536  1.00  0.00    -0.346 OA
HETATM   27  C   UNL     1      43.885 -20.643   3.759  1.00  0.00     0.202 C 
HETATM   28  C   UNL     1      43.999 -20.345   2.272  1.00  0.00     0.202 C 
ENDBRANCH   1  19
TORSDOF 3
ENDMDL
MODEL 6
REMARK VINA RESULT:      -8.2      2.869      4.423
REMARK  3 active torsions:
REMARK  status: ('A' for Active; 'I' for Inactive)
REMARK    1  A    between atoms: C_2  and  C_3 
REMARK    2  A    between atoms: C_8  and  C_9 
REMARK    3  A    between atoms: C_9  and  N_10 
ROOT
HETATM    1  C   UNL     1      40.585 -13.871   1.834  1.00  0.00     0.096 A 
HETATM    2  N   UNL     1      39.856 -13.441   0.796  1.00  0.00    -0.174 NA
HETATM    3  N   UNL     1      39.516 -14.540   0.117  1.00  0.00    -0.288 N 
HETATM    4  H   UNL     1      38.982 -14.431  -0.742  1.00  0.00     0.188 HD
HETATM    5  C   UNL     1      39.936 -15.686   0.720  1.00  0.00     0.120 A 
HETATM    6  C   UNL     1      40.639 -15.304   1.848  1.00  0.00     0.016 A 
ENDROOT
BRANCH   6   7
HETATM    7  C   UNL     1      41.276 -16.220   2.827  1.00  0.00     0.277 C 
BRANCH   7   8
HETATM    8  N   UNL     1      42.794 -16.184   2.840  1.00  0.00    -0.067 N 
HETATM    9  H   UNL     1      43.038 -15.400   2.217  1.00  0.00     0.280 HD
HETATM   10  C   UNL     1      43.422 -17.415   2.225  1.00  0.00     0.242 C 
HETATM   11  C   UNL     1      43.299 -18.600   3.176  1.00  0.00     0.041 C 
HETATM   12  C   UNL     1      43.933 -18.270   4.530  1.00  0.00     0.128 C 
HETATM   13  C   UNL     1      43.942 -19.872   2.613  1.00  0.00     0.011 C 
HETATM   14  O   UNL     1      43.717 -19.355   5.430  1.00  0.00    -0.385 OA
HETATM   15  C   UNL     1      43.313 -17.014   5.135  1.00  0.00     0.060 C 
HETATM   16  C   UNL     1      44.368 -20.556   5.003  1.00  0.00     0.168 C 
HETATM   17  C   UNL     1      43.848 -21.002   3.639  1.00  0.00     0.027 C 
HETATM   18  C   UNL     1      43.406 -15.840   4.178  1.00  0.00     0.237 C 
ENDBRANCH   7   8
ENDBRANCH   6   7
BRANCH   1  19
HETATM   19  C   UNL     1      41.130 -12.903   2.792  1.00  0.00    -0.002 A 
HETATM   20  C   UNL     1      42.467 -12.488   2.672  1.00  0.00     0.017 A 
HETATM   21  C   UNL     1      43.009 -11.547   3.551  1.00  0.00     0.040 A 
HETATM   22  C   UNL     1      42.216 -11.001   4.555  1.00  0.00     0.102 A 
HETATM   23  C   UNL     1      40.896 -11.432   4.705  1.00  0.00     0.103 A 
HETATM   24  O   UNL     1      42.804 -10.069   5.364  1.00  0.00    -0.346 OA
HETATM   25  C   UNL     1      40.356 -12.379   3.834  1.00  0.00     0.053 A 
HETATM   26  O   UNL     1      40.062 -10.955   5.683  1.00  0.00    -0.346 OA
HETATM   27  C   UNL     1      40.810 -10.329   6.738  1.00  0.00     0.202 C 
HETATM   28  C   UNL     1      41.844  -9.372   6.167  1.00  0.00     0.202 C 
ENDBRANCH   1  19
TORSDOF 3
ENDMDL
MODEL 7
REMARK VINA RESULT:      -8.2      6.105      8.846
REMARK  3 active torsions:
REMARK  status: ('A' for Active; 'I' for Inactive)
REMARK    1  A    between atoms: C_2  and  C_3 
REMARK    2  A    between atoms: C_8  and  C_9 
REMARK    3  A    between atoms: C_9  and  N_10 
ROOT
HETATM    1  C   UNL     1      44.689 -10.054   8.482  1.00  0.00     0.096 A 
HETATM    2  N   UNL     1      45.665  -9.138   8.442  1.00  0.00    -0.174 NA
HETATM    3  N   UNL     1      46.588  -9.634   7.614  1.00  0.00    -0.288 N 
HETATM    4  H   UNL     1      47.443  -9.102   7.470  1.00  0.00     0.188 HD
HETATM    5  C   UNL     1      46.214 -10.815   7.050  1.00  0.00     0.120 A 
HETATM    6  C   UNL     1      44.978 -11.133   7.584  1.00  0.00     0.016 A 
ENDROOT
BRANCH   6   7
HETATM    7  C   UNL     1      44.170 -12.334   7.252  1.00  0.00     0.277 C 
BRANCH   7   8
HETATM    8  N   UNL     1      42.865 -12.046   6.534  1.00  0.00    -0.067 N 
HETATM    9  H   UNL     1      42.255 -11.641   7.259  1.00  0.00     0.280 HD
HETATM   10  C   UNL     1      42.163 -13.297   6.053  1.00  0.00     0.242 C 
HETATM   11  C   UNL     1      42.876 -13.865   4.832  1.00  0.00     0.041 C 
HETATM   12  C   UNL     1      42.960 -12.814   3.721  1.00  0.00     0.128 C 
HETATM   13  C   UNL     1      42.192 -15.123   4.286  1.00  0.00     0.011 C 
HETATM   14  O   UNL     1      43.717 -13.336   2.632  1.00  0.00    -0.385 OA
HETATM   15  C   UNL     1      43.646 -11.545   4.217  1.00  0.00     0.060 C 
HETATM   16  C   UNL     1      43.085 -14.466   2.021  1.00  0.00     0.168 C 
HETATM   17  C   UNL     1      42.912 -15.602   3.024  1.00  0.00     0.027 C 
HETATM   18  C   UNL     1      42.957 -10.995   5.452  1.00  0.00     0.237 C 
ENDBRANCH   7   8
ENDBRANCH   6   7
BRANCH   1  19
HETATM   19  C   UNL     1      43.506  -9.821   9.318  1.00  0.00    -0.002 A 
HETATM   20  C   UNL     1      42.338  -9.301   8.737  1.00  0.00     0.017 A 
HETATM   21  C   UNL     1      41.186  -9.093   9.500  1.00  0.00     0.040 A 
HETATM   22  C   UNL     1      41.186  -9.414  10.853  1.00  0.00     0.102 A 
HETATM   23  C   UNL     1      42.351  -9.899  11.450  1.00  0.00     0.103 A 
HETATM   24  O   UNL     1      40.018  -9.208  11.534  1.00  0.00    -0.346 OA
HETATM   25  C   UNL     1      43.506 -10.098  10.691  1.00  0.00     0.053 A 
HETATM   26  O   UNL     1      42.433 -10.217  12.781  1.00  0.00    -0.346 OA
HETATM   27  C   UNL     1      41.367  -9.603  13.523  1.00  0.00     0.202 C 
HETATM   28  C   UNL     1      40.033  -9.824  12.827  1.00  0.00     0.202 C 
ENDBRANCH   1  19
TORSDOF 3
ENDMDL
MODEL 8
REMARK VINA RESULT:      -8.0      5.744      8.440
REMARK  3 active torsions:
REMARK  status: ('A' for Active; 'I' for Inactive)
REMARK    1  A    between atoms: C_2  and  C_3 
REMARK    2  A    between atoms: C_8  and  C_9 
REMARK    3  A    between atoms: C_9  and  N_10 
ROOT
HETATM    1  C   UNL     1      44.557 -10.613   7.779  1.00  0.00     0.096 A 
HETATM    2  N   UNL     1      45.866 -10.412   7.981  1.00  0.00    -0.174 NA
HETATM    3  N   UNL     1      46.477 -10.915   6.905  1.00  0.00    -0.288 N 
HETATM    4  H   UNL     1      47.493 -10.897   6.873  1.00  0.00     0.188 HD
HETATM    5  C   UNL     1      45.603 -11.374   5.967  1.00  0.00     0.120 A 
HETATM    6  C   UNL     1      44.334 -11.198   6.489  1.00  0.00     0.016 A 
ENDROOT
BRANCH   6   7
HETATM    7  C   UNL     1      43.059 -11.545   5.812  1.00  0.00     0.277 C 
BRANCH   7   8
HETATM    8  N   UNL     1      42.233 -12.607   6.515  1.00  0.00    -0.067 N 
HETATM    9  H   UNL     1      42.197 -12.297   7.497  1.00  0.00     0.280 HD
HETATM   10  C   UNL     1      42.902 -13.964   6.531  1.00  0.00     0.242 C 
HETATM   11  C   UNL     1      42.820 -14.608   5.153  1.00  0.00     0.041 C 
HETATM   12  C   UNL     1      41.363 -14.712   4.693  1.00  0.00     0.128 C 
HETATM   13  C   UNL     1      43.462 -15.999   5.117  1.00  0.00     0.011 C 
HETATM   14  O   UNL     1      41.322 -15.225   3.363  1.00  0.00    -0.385 OA
HETATM   15  C   UNL     1      40.686 -13.345   4.701  1.00  0.00     0.060 C 
HETATM   16  C   UNL     1      41.831 -16.560   3.278  1.00  0.00     0.168 C 
HETATM   17  C   UNL     1      43.286 -16.619   3.730  1.00  0.00     0.027 C 
HETATM   18  C   UNL     1      40.793 -12.688   6.064  1.00  0.00     0.237 C 
ENDBRANCH   7   8
ENDBRANCH   6   7
BRANCH   1  19
HETATM   19  C   UNL     1      43.589 -10.177   8.791  1.00  0.00    -0.002 A 
HETATM   20  C   UNL     1      42.451  -9.455   8.396  1.00  0.00     0.017 A 
HETATM   21  C   UNL     1      41.496  -9.049   9.331  1.00  0.00     0.040 A 
HETATM   22  C   UNL     1      41.664  -9.370  10.674  1.00  0.00     0.102 A 
HETATM   23  C   UNL     1      42.808 -10.058  11.084  1.00  0.00     0.103 A 
HETATM   24  O   UNL     1      40.679  -8.963  11.531  1.00  0.00    -0.346 OA
HETATM   25  C   UNL     1      43.768 -10.455  10.152  1.00  0.00     0.053 A 
HETATM   26  O   UNL     1      43.051 -10.391  12.392  1.00  0.00    -0.346 OA
HETATM   27  C   UNL     1      42.248  -9.600  13.282  1.00  0.00     0.202 C 
HETATM   28  C   UNL     1      40.800  -9.577  12.820  1.00  0.00     0.202 C 
ENDBRANCH   1  19
TORSDOF 3
ENDMDL
MODEL 9
REMARK VINA RESULT:      -8.0      6.194      9.475
REMARK  3 active torsions:
REMARK  status: ('A' for Active; 'I' for Inactive)
REMARK    1  A    between atoms: C_2  and  C_3 
REMARK    2  A    between atoms: C_8  and  C_9 
REMARK    3  A    between atoms: C_9  and  N_10 
ROOT
HETATM    1  C   UNL     1      44.949 -10.206   8.568  1.00  0.00     0.096 A 
HETATM    2  N   UNL     1      45.950  -9.318   8.511  1.00  0.00    -0.174 NA
HETATM    3  N   UNL     1      46.744  -9.734   7.521  1.00  0.00    -0.288 N 
HETATM    4  H   UNL     1      47.596  -9.212   7.334  1.00  0.00     0.188 HD
HETATM    5  C   UNL     1      46.255 -10.829   6.876  1.00  0.00     0.120 A 
HETATM    6  C   UNL     1      45.082 -11.176   7.521  1.00  0.00     0.016 A 
ENDROOT
BRANCH   6   7
HETATM    7  C   UNL     1      44.191 -12.307   7.157  1.00  0.00     0.277 C 
BRANCH   7   8
HETATM    8  N   UNL     1      43.604 -12.232   5.759  1.00  0.00    -0.067 N 
HETATM    9  H   UNL     1      44.424 -12.193   5.137  1.00  0.00     0.280 HD
HETATM   10  C   UNL     1      42.831 -10.956   5.508  1.00  0.00     0.242 C 
HETATM   11  C   UNL     1      41.487 -11.004   6.225  1.00  0.00     0.041 C 
HETATM   12  C   UNL     1      40.687 -12.234   5.786  1.00  0.00     0.128 C 
HETATM   13  C   UNL     1      40.649  -9.744   5.985  1.00  0.00     0.011 C 
HETATM   14  O   UNL     1      39.481 -12.309   6.542  1.00  0.00    -0.385 OA
HETATM   15  C   UNL     1      41.480 -13.516   6.018  1.00  0.00     0.060 C 
HETATM   16  C   UNL     1      38.612 -11.198   6.295  1.00  0.00     0.168 C 
HETATM   17  C   UNL     1      39.289  -9.883   6.670  1.00  0.00     0.027 C 
HETATM   18  C   UNL     1      42.832 -13.458   5.331  1.00  0.00     0.237 C 
ENDBRANCH   7   8
ENDBRANCH   6   7
BRANCH   1  19
HETATM   19  C   UNL     1      43.888 -10.045   9.568  1.00  0.00    -0.002 A 
HETATM   20  C   UNL     1      44.108 -10.477  10.887  1.00  0.00     0.017 A 
HETATM   21  C   UNL     1      43.128 -10.313  11.869  1.00  0.00     0.040 A 
HETATM   22  C   UNL     1      41.920  -9.705  11.546  1.00  0.00     0.102 A 
HETATM   23  C   UNL     1      41.676  -9.304  10.231  1.00  0.00     0.103 A 
HETATM   24  O   UNL     1      41.016  -9.556  12.561  1.00  0.00    -0.346 OA
HETATM   25  C   UNL     1      42.650  -9.476   9.246  1.00  0.00     0.053 A 
HETATM   26  O   UNL     1      40.502  -8.717   9.834  1.00  0.00    -0.346 OA
HETATM   27  C   UNL     1      39.456  -8.963  10.787  1.00  0.00     0.202 C 
HETATM   28  C   UNL     1      39.941  -8.680  12.200  1.00  0.00     0.202 C 
ENDBRANCH   1  19
TORSDOF 3
ENDMDL
MODEL 10
REMARK VINA RESULT:      -8.0      6.298      9.583
REMARK  3 active torsions:
REMARK  status: ('A' for Active; 'I' for Inactive)
REMARK    1  A    between atoms: C_2  and  C_3 
REMARK    2  A    between atoms: C_8  and  C_9 
REMARK    3  A    between atoms: C_9  and  N_10 
ROOT
HETATM    1  C   UNL     1      44.856 -11.361   7.024  1.00  0.00     0.096 A 
HETATM    2  N   UNL     1      46.069 -11.295   6.458  1.00  0.00    -0.174 NA
HETATM    3  N   UNL     1      46.765 -10.432   7.201  1.00  0.00    -0.288 N 
HETATM    4  H   UNL     1      47.716 -10.206   6.917  1.00  0.00     0.188 HD
HETATM    5  C   UNL     1      46.071  -9.985   8.284  1.00  0.00     0.120 A 
HETATM    6  C   UNL     1      44.817 -10.565   8.215  1.00  0.00     0.016 A 
ENDROOT
BRANCH   6   7
HETATM    7  C   UNL     1      43.717 -10.377   9.195  1.00  0.00     0.277 C 
BRANCH   7   8
HETATM    8  N   UNL     1      43.175  -8.962   9.280  1.00  0.00    -0.067 N 
HETATM    9  H   UNL     1      43.633  -8.463   8.504  1.00  0.00     0.280 HD
HETATM   10  C   UNL     1      43.593  -8.241  10.543  1.00  0.00     0.242 C 
HETATM   11  C   UNL     1      42.805  -8.768  11.736  1.00  0.00     0.041 C 
HETATM   12  C   UNL     1      41.300  -8.630  11.490  1.00  0.00     0.128 C 
HETATM   13  C   UNL     1      43.172  -8.055  13.042  1.00  0.00     0.011 C 
HETATM   14  O   UNL     1      40.587  -9.220  12.575  1.00  0.00    -0.385 OA
HETATM   15  C   UNL     1      40.887  -9.338  10.204  1.00  0.00     0.060 C 
HETATM   16  C   UNL     1      40.821  -8.542  13.814  1.00  0.00     0.168 C 
HETATM   17  C   UNL     1      42.301  -8.578  14.185  1.00  0.00     0.027 C 
HETATM   18  C   UNL     1      41.692  -8.837   9.019  1.00  0.00     0.237 C 
ENDBRANCH   7   8
ENDBRANCH   6   7
BRANCH   1  19
HETATM   19  C   UNL     1      43.827 -12.228   6.441  1.00  0.00    -0.002 A 
HETATM   20  C   UNL     1      43.181 -11.838   5.256  1.00  0.00     0.017 A 
HETATM   21  C   UNL     1      42.216 -12.654   4.661  1.00  0.00     0.040 A 
HETATM   22  C   UNL     1      41.892 -13.876   5.239  1.00  0.00     0.102 A 
HETATM   23  C   UNL     1      42.502 -14.259   6.436  1.00  0.00     0.103 A 
HETATM   24  O   UNL     1      40.957 -14.635   4.591  1.00  0.00    -0.346 OA
HETATM   25  C   UNL     1      43.459 -13.441   7.037  1.00  0.00     0.053 A 
HETATM   26  O   UNL     1      42.219 -15.439   7.075  1.00  0.00    -0.346 OA
HETATM   27  C   UNL     1      40.970 -15.984   6.619  1.00  0.00     0.202 C 
HETATM   28  C   UNL     1      40.903 -15.973   5.100  1.00  0.00     0.202 C 
ENDBRANCH   1  19
TORSDOF 3
ENDMDL
