MODEL 1
REMARK VINA RESULT:      -9.9      0.000      0.000
REMARK  6 active torsions:
REMARK  status: ('A' for Active; 'I' for Inactive)
REMARK    1  A    between atoms: C_6  and  N_7 
REMARK       I    between atoms: N_7  and  C_8 
REMARK    2  A    between atoms: C_8  and  C_9 
REMARK    3  A    between atoms: C_9  and  S_10 
REMARK    4  A    between atoms: S_10  and  C_11 
REMARK    5  A    between atoms: N_16  and  C_18 
REMARK    6  A    between atoms: C_18  and  C_19 
ROOT
HETATM    1  C   UNL     1      41.895 -10.541   6.388  1.00  0.00     0.169 A 
HETATM    2  N   UNL     1      41.011 -11.424   6.059  1.00  0.00    -0.228 NA
HETATM    3  C   UNL     1      41.381 -12.351   5.116  1.00  0.00     0.052 A 
HETATM    4  C   UNL     1      42.584 -12.366   4.520  1.00  0.00     0.060 A 
HETATM    5  C   UNL     1      43.041 -13.405   3.562  1.00  0.00     0.281 C 
HETATM    6  N   UNL     1      42.154 -14.637   3.588  1.00  0.00    -0.063 N 
HETATM    7  H   UNL     1      42.324 -15.095   4.492  1.00  0.00     0.280 HD
HETATM    8  C   UNL     1      40.692 -14.243   3.559  1.00  0.00     0.241 C 
HETATM    9  C   UNL     1      40.353 -13.409   4.801  1.00  0.00     0.088 C 
HETATM   10  C   UNL     1      43.549 -11.310   4.873  1.00  0.00     0.257 A 
HETATM   11  O   UNL     1      44.644 -11.267   4.329  1.00  0.00    -0.267 OA
HETATM   12  N   UNL     1      43.126 -10.438   5.824  1.00  0.00    -0.302 N 
HETATM   13  H   UNL     1      43.754  -9.716   6.144  1.00  0.00     0.171 HD
ENDROOT
BRANCH   1  14
HETATM   14  S   UNL     1      41.623  -9.347   7.611  1.00  0.00    -0.083 SA
BRANCH  14  15
HETATM   15  C   UNL     1      43.301  -9.237   8.311  1.00  0.00     0.185 C 
BRANCH  15  16
HETATM   16  C   UNL     1      43.694 -10.446   9.144  1.00  0.00     0.231 C 
HETATM   17  N   UNL     1      43.336 -10.541  10.460  1.00  0.00    -0.327 N 
HETATM   18  H   UNL     1      43.614 -11.442  10.833  1.00  0.00     0.169 HD
HETATM   19  O   UNL     1      44.312 -11.409   8.672  1.00  0.00    -0.272 OA
BRANCH  17  20
HETATM   20  C   UNL     1      42.691  -9.686  11.373  1.00  0.00     0.035 A 
HETATM   21  C   UNL     1      43.319  -8.799  12.247  1.00  0.00     0.037 A 
HETATM   22  C   UNL     1      42.578  -7.985  13.132  1.00  0.00    -0.054 A 
HETATM   23  C   UNL     1      41.175  -8.085  13.159  1.00  0.00    -0.056 A 
HETATM   24  C   UNL     1      43.326  -7.089  14.084  1.00  0.00     0.049 C 
HETATM   25  C   UNL     1      40.339  -7.262  14.101  1.00  0.00     0.049 C 
HETATM   26  C   UNL     1      40.546  -8.981  12.288  1.00  0.00     0.009 A 
HETATM   27  C   UNL     1      41.295  -9.773  11.414  1.00  0.00     0.030 A 
ENDBRANCH  17  20
ENDBRANCH  15  16
ENDBRANCH  14  15
ENDBRANCH   1  14
BRANCH   6  28
HETATM   28  C   UNL     1      42.550 -15.632   2.524  1.00  0.00     0.273 C 
BRANCH  28  29
HETATM   29  C   UNL     1      43.048 -16.937   3.089  1.00  0.00    -0.030 A 
HETATM   30  C   UNL     1      42.966 -18.120   2.332  1.00  0.00     0.048 A 
HETATM   31  C   UNL     1      43.474 -19.280   2.879  1.00  0.00     0.105 A 
HETATM   32  C   UNL     1      44.029 -19.309   4.134  1.00  0.00     0.105 A 
HETATM   33  O   UNL     1      43.498 -20.494   2.271  1.00  0.00    -0.323 OA
HETATM   34  O   UNL     1      44.468 -20.547   4.477  1.00  0.00    -0.323 OA
HETATM   35  C   UNL     1      44.104 -18.179   4.917  1.00  0.00     0.040 A 
HETATM   36  C   UNL     1      44.124 -21.302   3.297  1.00  0.00     0.352 A 
HETATM   37  C   UNL     1      43.609 -16.981   4.387  1.00  0.00     0.012 A 
ENDBRANCH  28  29
ENDBRANCH   6  28
TORSDOF 6
ENDMDL
MODEL 2
REMARK VINA RESULT:      -9.9      2.852     10.512
REMARK  6 active torsions:
REMARK  status: ('A' for Active; 'I' for Inactive)
REMARK    1  A    between atoms: C_6  and  N_7 
REMARK       I    between atoms: N_7  and  C_8 
REMARK    2  A    between atoms: C_8  and  C_9 
REMARK    3  A    between atoms: C_9  and  S_10 
REMARK    4  A    between atoms: S_10  and  C_11 
REMARK    5  A    between atoms: N_16  and  C_18 
REMARK    6  A    between atoms: C_18  and  C_19 
ROOT
HETATM    1  C   UNL     1      40.869 -14.356   4.896  1.00  0.00     0.169 A 
HETATM    2  N   UNL     1      42.029 -14.230   5.451  1.00  0.00    -0.228 NA
HETATM    3  C   UNL     1      42.320 -13.009   6.007  1.00  0.00     0.052 A 
HETATM    4  C   UNL     1      41.483 -11.960   5.979  1.00  0.00     0.060 A 
HETATM    5  C   UNL     1      41.737 -10.657   6.646  1.00  0.00     0.281 C 
HETATM    6  N   UNL     1      42.871 -10.740   7.652  1.00  0.00    -0.063 N 
HETATM    7  H   UNL     1      42.521 -11.311   8.432  1.00  0.00     0.280 HD
HETATM    8  C   UNL     1      44.056 -11.475   7.061  1.00  0.00     0.241 C 
HETATM    9  C   UNL     1      43.654 -12.911   6.707  1.00  0.00     0.088 C 
HETATM   10  C   UNL     1      40.193 -12.117   5.286  1.00  0.00     0.257 A 
HETATM   11  O   UNL     1      39.414 -11.177   5.209  1.00  0.00    -0.267 OA
HETATM   12  N   UNL     1      39.961 -13.353   4.776  1.00  0.00    -0.302 N 
HETATM   13  H   UNL     1      39.077 -13.542   4.326  1.00  0.00     0.171 HD
ENDROOT
BRANCH   1  14
HETATM   14  S   UNL     1      40.309 -15.845   4.213  1.00  0.00    -0.083 SA
BRANCH  14  15
HETATM   15  C   UNL     1      40.683 -15.538   2.457  1.00  0.00     0.185 C 
BRANCH  15  16
HETATM   16  C   UNL     1      42.044 -14.902   2.227  1.00  0.00     0.231 C 
HETATM   17  N   UNL     1      43.196 -15.599   2.466  1.00  0.00    -0.327 N 
HETATM   18  H   UNL     1      44.001 -15.048   2.187  1.00  0.00     0.169 HD
HETATM   19  O   UNL     1      42.179 -13.755   1.781  1.00  0.00    -0.272 OA
BRANCH  17  20
HETATM   20  C   UNL     1      43.492 -16.867   3.000  1.00  0.00     0.035 A 
HETATM   21  C   UNL     1      43.451 -18.076   2.308  1.00  0.00     0.037 A 
HETATM   22  C   UNL     1      43.763 -19.300   2.939  1.00  0.00    -0.054 A 
HETATM   23  C   UNL     1      44.095 -19.312   4.306  1.00  0.00    -0.056 A 
HETATM   24  C   UNL     1      43.647 -20.573   2.142  1.00  0.00     0.049 C 
HETATM   25  C   UNL     1      44.408 -20.591   5.035  1.00  0.00     0.049 C 
HETATM   26  C   UNL     1      44.127 -18.100   5.003  1.00  0.00     0.009 A 
HETATM   27  C   UNL     1      43.824 -16.898   4.359  1.00  0.00     0.030 A 
ENDBRANCH  17  20
ENDBRANCH  15  16
ENDBRANCH  14  15
ENDBRANCH   1  14
BRANCH   6  28
HETATM   28  C   UNL     1      43.205  -9.386   8.229  1.00  0.00     0.273 C 
BRANCH  28  29
HETATM   29  C   UNL     1      42.881  -9.270   9.696  1.00  0.00    -0.030 A 
HETATM   30  C   UNL     1      41.605  -9.623  10.175  1.00  0.00     0.048 A 
HETATM   31  C   UNL     1      41.373  -9.539  11.532  1.00  0.00     0.105 A 
HETATM   32  C   UNL     1      42.336  -9.105  12.409  1.00  0.00     0.105 A 
HETATM   33  O   UNL     1      40.212  -9.868  12.155  1.00  0.00    -0.323 OA
HETATM   34  O   UNL     1      41.901  -9.101  13.695  1.00  0.00    -0.323 OA
HETATM   35  C   UNL     1      43.587  -8.727  11.978  1.00  0.00     0.040 A 
HETATM   36  C   UNL     1      40.548  -9.578  13.533  1.00  0.00     0.352 A 
HETATM   37  C   UNL     1      43.861  -8.812  10.608  1.00  0.00     0.012 A 
ENDBRANCH  28  29
ENDBRANCH   6  28
TORSDOF 6
ENDMDL
MODEL 3
REMARK VINA RESULT:      -9.6      4.344      6.882
REMARK  6 active torsions:
REMARK  status: ('A' for Active; 'I' for Inactive)
REMARK    1  A    between atoms: C_6  and  N_7 
REMARK       I    between atoms: N_7  and  C_8 
REMARK    2  A    between atoms: C_8  and  C_9 
REMARK    3  A    between atoms: C_9  and  S_10 
REMARK    4  A    between atoms: S_10  and  C_11 
REMARK    5  A    between atoms: N_16  and  C_18 
REMARK    6  A    between atoms: C_18  and  C_19 
ROOT
HETATM    1  C   UNL     1      40.469 -11.845   5.707  1.00  0.00     0.169 A 
HETATM    2  N   UNL     1      40.092 -13.078   5.796  1.00  0.00    -0.228 NA
HETATM    3  C   UNL     1      41.081 -14.019   5.945  1.00  0.00     0.052 A 
HETATM    4  C   UNL     1      42.389 -13.724   5.979  1.00  0.00     0.060 A 
HETATM    5  C   UNL     1      43.473 -14.711   6.224  1.00  0.00     0.281 C 
HETATM    6  N   UNL     1      42.941 -16.019   6.779  1.00  0.00    -0.063 N 
HETATM    7  H   UNL     1      42.620 -15.817   7.734  1.00  0.00     0.280 HD
HETATM    8  C   UNL     1      41.730 -16.480   5.993  1.00  0.00     0.241 C 
HETATM    9  C   UNL     1      40.607 -15.442   6.112  1.00  0.00     0.088 C 
HETATM   10  C   UNL     1      42.791 -12.316   5.815  1.00  0.00     0.257 A 
HETATM   11  O   UNL     1      43.975 -12.008   5.807  1.00  0.00    -0.267 OA
HETATM   12  N   UNL     1      41.765 -11.436   5.691  1.00  0.00    -0.302 N 
HETATM   13  H   UNL     1      41.968 -10.450   5.619  1.00  0.00     0.171 HD
ENDROOT
BRANCH   1  14
HETATM   14  S   UNL     1      39.355 -10.526   5.591  1.00  0.00    -0.083 SA
BRANCH  14  15
HETATM   15  C   UNL     1      38.677 -10.841   3.930  1.00  0.00     0.185 C 
BRANCH  15  16
HETATM   16  C   UNL     1      39.554 -10.316   2.805  1.00  0.00     0.231 C 
HETATM   17  N   UNL     1      40.348 -11.160   2.080  1.00  0.00    -0.327 N 
HETATM   18  H   UNL     1      40.800 -10.651   1.327  1.00  0.00     0.169 HD
HETATM   19  O   UNL     1      39.563  -9.125   2.466  1.00  0.00    -0.272 OA
BRANCH  17  20
HETATM   20  C   UNL     1      40.663 -12.529   2.154  1.00  0.00     0.035 A 
HETATM   21  C   UNL     1      41.946 -13.076   2.143  1.00  0.00     0.037 A 
HETATM   22  C   UNL     1      42.155 -14.470   2.218  1.00  0.00    -0.054 A 
HETATM   23  C   UNL     1      41.049 -15.337   2.274  1.00  0.00    -0.056 A 
HETATM   24  C   UNL     1      43.567 -14.992   2.148  1.00  0.00     0.049 C 
HETATM   25  C   UNL     1      41.215 -16.832   2.326  1.00  0.00     0.049 C 
HETATM   26  C   UNL     1      39.762 -14.790   2.276  1.00  0.00     0.009 A 
HETATM   27  C   UNL     1      39.575 -13.407   2.210  1.00  0.00     0.030 A 
ENDBRANCH  17  20
ENDBRANCH  15  16
ENDBRANCH  14  15
ENDBRANCH   1  14
BRANCH   6  28
HETATM   28  C   UNL     1      44.030 -17.057   6.904  1.00  0.00     0.273 C 
BRANCH  28  29
HETATM   29  C   UNL     1      43.901 -18.174   5.901  1.00  0.00    -0.030 A 
HETATM   30  C   UNL     1      44.022 -17.914   4.523  1.00  0.00     0.048 A 
HETATM   31  C   UNL     1      43.937 -18.979   3.650  1.00  0.00     0.105 A 
HETATM   32  C   UNL     1      43.719 -20.261   4.086  1.00  0.00     0.105 A 
HETATM   33  O   UNL     1      44.061 -18.902   2.299  1.00  0.00    -0.323 OA
HETATM   34  O   UNL     1      43.672 -21.155   3.065  1.00  0.00    -0.323 OA
HETATM   35  C   UNL     1      43.570 -20.554   5.423  1.00  0.00     0.040 A 
HETATM   36  C   UNL     1      43.881 -20.290   1.929  1.00  0.00     0.352 A 
HETATM   37  C   UNL     1      43.663 -19.499   6.339  1.00  0.00     0.012 A 
ENDBRANCH  28  29
ENDBRANCH   6  28
TORSDOF 6
ENDMDL
MODEL 4
REMARK VINA RESULT:      -9.6      2.912     10.097
REMARK  6 active torsions:
REMARK  status: ('A' for Active; 'I' for Inactive)
REMARK    1  A    between atoms: C_6  and  N_7 
REMARK       I    between atoms: N_7  and  C_8 
REMARK    2  A    between atoms: C_8  and  C_9 
REMARK    3  A    between atoms: C_9  and  S_10 
REMARK    4  A    between atoms: S_10  and  C_11 
REMARK    5  A    between atoms: N_16  and  C_18 
REMARK    6  A    between atoms: C_18  and  C_19 
ROOT
HETATM    1  C   UNL     1      40.498 -12.362   3.892  1.00  0.00     0.169 A 
HETATM    2  N   UNL     1      41.207 -13.107   4.673  1.00  0.00    -0.228 NA
HETATM    3  C   UNL     1      42.094 -12.468   5.504  1.00  0.00     0.052 A 
HETATM    4  C   UNL     1      42.268 -11.137   5.523  1.00  0.00     0.060 A 
HETATM    5  C   UNL     1      43.157 -10.413   6.468  1.00  0.00     0.281 C 
HETATM    6  N   UNL     1      43.580 -11.285   7.637  1.00  0.00    -0.063 N 
HETATM    7  H   UNL     1      42.738 -11.429   8.208  1.00  0.00     0.280 HD
HETATM    8  C   UNL     1      44.025 -12.649   7.152  1.00  0.00     0.241 C 
HETATM    9  C   UNL     1      42.860 -13.358   6.451  1.00  0.00     0.088 C 
HETATM   10  C   UNL     1      41.488 -10.319   4.578  1.00  0.00     0.257 A 
HETATM   11  O   UNL     1      41.641  -9.106   4.539  1.00  0.00    -0.267 OA
HETATM   12  N   UNL     1      40.618 -11.012   3.800  1.00  0.00    -0.302 N 
HETATM   13  H   UNL     1      40.021 -10.508   3.160  1.00  0.00     0.171 HD
ENDROOT
BRANCH   1  14
HETATM   14  S   UNL     1      39.281 -12.994   2.836  1.00  0.00    -0.083 SA
BRANCH  14  15
HETATM   15  C   UNL     1      40.112 -14.520   2.289  1.00  0.00     0.185 C 
BRANCH  15  16
HETATM   16  C   UNL     1      41.299 -14.272   1.374  1.00  0.00     0.231 C 
HETATM   17  N   UNL     1      42.435 -15.026   1.475  1.00  0.00    -0.327 N 
HETATM   18  H   UNL     1      43.088 -14.774   0.741  1.00  0.00     0.169 HD
HETATM   19  O   UNL     1      41.285 -13.418   0.479  1.00  0.00    -0.272 OA
BRANCH  17  20
HETATM   20  C   UNL     1      42.877 -16.037   2.350  1.00  0.00     0.035 A 
HETATM   21  C   UNL     1      43.326 -15.849   3.656  1.00  0.00     0.037 A 
HETATM   22  C   UNL     1      43.754 -16.934   4.453  1.00  0.00    -0.054 A 
HETATM   23  C   UNL     1      43.757 -18.234   3.914  1.00  0.00    -0.056 A 
HETATM   24  C   UNL     1      44.276 -16.650   5.837  1.00  0.00     0.049 C 
HETATM   25  C   UNL     1      44.229 -19.420   4.709  1.00  0.00     0.049 C 
HETATM   26  C   UNL     1      43.315 -18.420   2.601  1.00  0.00     0.009 A 
HETATM   27  C   UNL     1      42.888 -17.336   1.830  1.00  0.00     0.030 A 
ENDBRANCH  17  20
ENDBRANCH  15  16
ENDBRANCH  14  15
ENDBRANCH   1  14
BRANCH   6  28
HETATM   28  C   UNL     1      44.582 -10.584   8.522  1.00  0.00     0.273 C 
BRANCH  28  29
HETATM   29  C   UNL     1      43.942  -9.830   9.659  1.00  0.00    -0.030 A 
HETATM   30  C   UNL     1      43.570 -10.500  10.840  1.00  0.00     0.048 A 
HETATM   31  C   UNL     1      43.027  -9.756  11.866  1.00  0.00     0.105 A 
HETATM   32  C   UNL     1      42.824  -8.403  11.756  1.00  0.00     0.105 A 
HETATM   33  O   UNL     1      42.643 -10.243  13.075  1.00  0.00    -0.323 OA
HETATM   34  O   UNL     1      42.282  -7.867  12.880  1.00  0.00    -0.323 OA
HETATM   35  C   UNL     1      43.150  -7.715  10.609  1.00  0.00     0.040 A 
HETATM   36  C   UNL     1      42.159  -9.037  13.715  1.00  0.00     0.352 A 
HETATM   37  C   UNL     1      43.716  -8.437   9.551  1.00  0.00     0.012 A 
ENDBRANCH  28  29
ENDBRANCH   6  28
TORSDOF 6
ENDMDL
MODEL 5
REMARK VINA RESULT:      -9.5      3.777      4.893
REMARK  6 active torsions:
REMARK  status: ('A' for Active; 'I' for Inactive)
REMARK    1  A    between atoms: C_6  and  N_7 
REMARK       I    between atoms: N_7  and  C_8 
REMARK    2  A    between atoms: C_8  and  C_9 
REMARK    3  A    between atoms: C_9  and  S_10 
REMARK    4  A    between atoms: S_10  and  C_11 
REMARK    5  A    between atoms: N_16  and  C_18 
REMARK    6  A    between atoms: C_18  and  C_19 
ROOT
HETATM    1  C   UNL     1      40.232 -10.569   2.668  1.00  0.00     0.169 A 
HETATM    2  N   UNL     1      39.805 -11.659   2.121  1.00  0.00    -0.228 NA
HETATM    3  C   UNL     1      40.723 -12.666   1.947  1.00  0.00     0.052 A 
HETATM    4  C   UNL     1      42.015 -12.561   2.292  1.00  0.00     0.060 A 
HETATM    5  C   UNL     1      43.009 -13.662   2.194  1.00  0.00     0.281 C 
HETATM    6  N   UNL     1      42.347 -15.014   1.999  1.00  0.00    -0.063 N 
HETATM    7  H   UNL     1      41.875 -15.234   2.885  1.00  0.00     0.280 HD
HETATM    8  C   UNL     1      41.274 -14.934   0.933  1.00  0.00     0.241 C 
HETATM    9  C   UNL     1      40.182 -13.950   1.367  1.00  0.00     0.088 C 
HETATM   10  C   UNL     1      42.484 -11.284   2.858  1.00  0.00     0.257 A 
HETATM   11  O   UNL     1      43.662 -11.136   3.155  1.00  0.00    -0.267 OA
HETATM   12  N   UNL     1      41.524 -10.339   3.020  1.00  0.00    -0.302 N 
HETATM   13  H   UNL     1      41.768  -9.456   3.443  1.00  0.00     0.171 HD
ENDROOT
BRANCH   1  14
HETATM   14  S   UNL     1      39.197  -9.229   3.029  1.00  0.00    -0.083 SA
BRANCH  14  15
HETATM   15  C   UNL     1      40.219  -8.378   4.274  1.00  0.00     0.185 C 
BRANCH  15  16
HETATM   16  C   UNL     1      39.658  -8.463   5.683  1.00  0.00     0.231 C 
HETATM   17  N   UNL     1      40.059  -9.447   6.543  1.00  0.00    -0.327 N 
HETATM   18  H   UNL     1      39.642  -9.304   7.456  1.00  0.00     0.169 HD
HETATM   19  O   UNL     1      38.853  -7.636   6.132  1.00  0.00    -0.272 OA
BRANCH  17  20
HETATM   20  C   UNL     1      40.892 -10.576   6.434  1.00  0.00     0.035 A 
HETATM   21  C   UNL     1      40.490 -11.857   6.060  1.00  0.00     0.037 A 
HETATM   22  C   UNL     1      41.408 -12.927   5.985  1.00  0.00    -0.054 A 
HETATM   23  C   UNL     1      42.757 -12.711   6.322  1.00  0.00    -0.056 A 
HETATM   24  C   UNL     1      40.892 -14.296   5.625  1.00  0.00     0.049 C 
HETATM   25  C   UNL     1      43.771 -13.822   6.287  1.00  0.00     0.049 C 
HETATM   26  C   UNL     1      43.159 -11.428   6.706  1.00  0.00     0.009 A 
HETATM   27  C   UNL     1      42.238 -10.379   6.766  1.00  0.00     0.030 A 
ENDBRANCH  17  20
ENDBRANCH  15  16
ENDBRANCH  14  15
ENDBRANCH   1  14
BRANCH   6  28
HETATM   28  C   UNL     1      43.365 -16.106   1.773  1.00  0.00     0.273 C 
BRANCH  28  29
HETATM   29  C   UNL     1      43.462 -17.072   2.926  1.00  0.00    -0.030 A 
HETATM   30  C   UNL     1      43.642 -18.448   2.691  1.00  0.00     0.048 A 
HETATM   31  C   UNL     1      43.767 -19.283   3.781  1.00  0.00     0.105 A 
HETATM   32  C   UNL     1      43.698 -18.814   5.069  1.00  0.00     0.105 A 
HETATM   33  O   UNL     1      43.973 -20.625   3.726  1.00  0.00    -0.323 OA
HETATM   34  O   UNL     1      43.847 -19.802   5.989  1.00  0.00    -0.323 OA
HETATM   35  C   UNL     1      43.497 -17.479   5.341  1.00  0.00     0.040 A 
HETATM   36  C   UNL     1      44.013 -20.953   5.135  1.00  0.00     0.352 A 
HETATM   37  C   UNL     1      43.379 -16.601   4.257  1.00  0.00     0.012 A 
ENDBRANCH  28  29
ENDBRANCH   6  28
TORSDOF 6
ENDMDL
MODEL 6
REMARK VINA RESULT:      -9.4      6.714     10.826
REMARK  6 active torsions:
REMARK  status: ('A' for Active; 'I' for Inactive)
REMARK    1  A    between atoms: C_6  and  N_7 
REMARK       I    between atoms: N_7  and  C_8 
REMARK    2  A    between atoms: C_8  and  C_9 
REMARK    3  A    between atoms: C_9  and  S_10 
REMARK    4  A    between atoms: S_10  and  C_11 
REMARK    5  A    between atoms: N_16  and  C_18 
REMARK    6  A    between atoms: C_18  and  C_19 
ROOT
HETATM    1  C   UNL     1      39.744 -14.715   1.426  1.00  0.00     0.169 A 
HETATM    2  N   UNL     1      39.957 -14.908   0.166  1.00  0.00    -0.228 NA
HETATM    3  C   UNL     1      39.735 -13.843  -0.671  1.00  0.00     0.052 A 
HETATM    4  C   UNL     1      39.294 -12.647  -0.251  1.00  0.00     0.060 A 
HETATM    5  C   UNL     1      39.127 -11.454  -1.121  1.00  0.00     0.281 C 
HETATM    6  N   UNL     1      39.831 -11.615  -2.455  1.00  0.00    -0.063 N 
HETATM    7  H   UNL     1      40.839 -11.589  -2.254  1.00  0.00     0.280 HD
HETATM    8  C   UNL     1      39.535 -12.975  -3.055  1.00  0.00     0.241 C 
HETATM    9  C   UNL     1      40.056 -14.078  -2.126  1.00  0.00     0.088 C 
HETATM   10  C   UNL     1      39.002 -12.476   1.183  1.00  0.00     0.257 A 
HETATM   11  O   UNL     1      38.568 -11.412   1.603  1.00  0.00    -0.267 OA
HETATM   12  N   UNL     1      39.262 -13.561   1.956  1.00  0.00    -0.302 N 
HETATM   13  H   UNL     1      39.125 -13.499   2.954  1.00  0.00     0.171 HD
ENDROOT
BRANCH   1  14
HETATM   14  S   UNL     1      40.044 -15.924   2.628  1.00  0.00    -0.083 SA
BRANCH  14  15
HETATM   15  C   UNL     1      40.974 -14.929   3.838  1.00  0.00     0.185 C 
BRANCH  15  16
HETATM   16  C   UNL     1      42.322 -14.450   3.324  1.00  0.00     0.231 C 
HETATM   17  N   UNL     1      43.370 -15.317   3.185  1.00  0.00    -0.327 N 
HETATM   18  H   UNL     1      44.160 -14.843   2.761  1.00  0.00     0.169 HD
HETATM   19  O   UNL     1      42.526 -13.281   2.973  1.00  0.00    -0.272 OA
BRANCH  17  20
HETATM   20  C   UNL     1      43.580 -16.674   3.497  1.00  0.00     0.035 A 
HETATM   21  C   UNL     1      43.453 -17.745   2.613  1.00  0.00     0.037 A 
HETATM   22  C   UNL     1      43.682 -19.075   3.028  1.00  0.00    -0.054 A 
HETATM   23  C   UNL     1      44.018 -19.337   4.369  1.00  0.00    -0.056 A 
HETATM   24  C   UNL     1      43.475 -20.186   2.032  1.00  0.00     0.049 C 
HETATM   25  C   UNL     1      44.245 -20.738   4.870  1.00  0.00     0.049 C 
HETATM   26  C   UNL     1      44.136 -18.263   5.257  1.00  0.00     0.009 A 
HETATM   27  C   UNL     1      43.914 -16.953   4.826  1.00  0.00     0.030 A 
ENDBRANCH  17  20
ENDBRANCH  15  16
ENDBRANCH  14  15
ENDBRANCH   1  14
BRANCH   6  28
HETATM   28  C   UNL     1      39.549 -10.455  -3.380  1.00  0.00     0.273 C 
BRANCH  28  29
HETATM   29  C   UNL     1      40.572  -9.353  -3.275  1.00  0.00    -0.030 A 
HETATM   30  C   UNL     1      41.316  -9.180  -2.093  1.00  0.00     0.048 A 
HETATM   31  C   UNL     1      42.268  -8.183  -2.065  1.00  0.00     0.105 A 
HETATM   32  C   UNL     1      42.488  -7.355  -3.137  1.00  0.00     0.105 A 
HETATM   33  O   UNL     1      43.087  -7.904  -1.016  1.00  0.00    -0.323 OA
HETATM   34  O   UNL     1      43.469  -6.447  -2.899  1.00  0.00    -0.323 OA
HETATM   35  C   UNL     1      41.763  -7.475  -4.302  1.00  0.00     0.040 A 
HETATM   36  C   UNL     1      43.843  -6.790  -1.548  1.00  0.00     0.352 A 
HETATM   37  C   UNL     1      40.797  -8.486  -4.370  1.00  0.00     0.012 A 
ENDBRANCH  28  29
ENDBRANCH   6  28
TORSDOF 6
ENDMDL
MODEL 7
REMARK VINA RESULT:      -9.4      2.750     10.657
REMARK  6 active torsions:
REMARK  status: ('A' for Active; 'I' for Inactive)
REMARK    1  A    between atoms: C_6  and  N_7 
REMARK       I    between atoms: N_7  and  C_8 
REMARK    2  A    between atoms: C_8  and  C_9 
REMARK    3  A    between atoms: C_9  and  S_10 
REMARK    4  A    between atoms: S_10  and  C_11 
REMARK    5  A    between atoms: N_16  and  C_18 
REMARK    6  A    between atoms: C_18  and  C_19 
ROOT
HETATM    1  C   UNL     1      40.927 -12.117   4.666  1.00  0.00     0.169 A 
HETATM    2  N   UNL     1      42.058 -12.607   5.052  1.00  0.00    -0.228 NA
HETATM    3  C   UNL     1      42.744 -11.904   6.011  1.00  0.00     0.052 A 
HETATM    4  C   UNL     1      42.311 -10.747   6.536  1.00  0.00     0.060 A 
HETATM    5  C   UNL     1      42.989 -10.010   7.635  1.00  0.00     0.281 C 
HETATM    6  N   UNL     1      44.023 -10.866   8.345  1.00  0.00    -0.063 N 
HETATM    7  H   UNL     1      43.497 -11.580   8.863  1.00  0.00     0.280 HD
HETATM    8  C   UNL     1      44.892 -11.595   7.341  1.00  0.00     0.241 C 
HETATM    9  C   UNL     1      44.029 -12.534   6.491  1.00  0.00     0.088 C 
HETATM   10  C   UNL     1      41.047 -10.183   6.032  1.00  0.00     0.257 A 
HETATM   11  O   UNL     1      40.634  -9.114   6.460  1.00  0.00    -0.267 OA
HETATM   12  N   UNL     1      40.412 -10.937   5.099  1.00  0.00    -0.302 N 
HETATM   13  H   UNL     1      39.519 -10.630   4.743  1.00  0.00     0.171 HD
ENDROOT
BRANCH   1  14
HETATM   14  S   UNL     1      39.899 -12.909   3.521  1.00  0.00    -0.083 SA
BRANCH  14  15
HETATM   15  C   UNL     1      40.869 -14.423   3.233  1.00  0.00     0.185 C 
BRANCH  15  16
HETATM   16  C   UNL     1      41.852 -14.306   2.080  1.00  0.00     0.231 C 
HETATM   17  N   UNL     1      42.779 -15.283   1.842  1.00  0.00    -0.327 N 
HETATM   18  H   UNL     1      43.294 -15.075   0.993  1.00  0.00     0.169 HD
HETATM   19  O   UNL     1      41.838 -13.357   1.285  1.00  0.00    -0.272 OA
BRANCH  17  20
HETATM   20  C   UNL     1      43.158 -16.467   2.501  1.00  0.00     0.035 A 
HETATM   21  C   UNL     1      43.182 -17.743   1.940  1.00  0.00     0.037 A 
HETATM   22  C   UNL     1      43.576 -18.873   2.691  1.00  0.00    -0.054 A 
HETATM   23  C   UNL     1      43.925 -18.720   4.045  1.00  0.00    -0.056 A 
HETATM   24  C   UNL     1      43.527 -20.228   2.034  1.00  0.00     0.049 C 
HETATM   25  C   UNL     1      44.324 -19.893   4.898  1.00  0.00     0.049 C 
HETATM   26  C   UNL     1      43.892 -17.441   4.610  1.00  0.00     0.009 A 
HETATM   27  C   UNL     1      43.508 -16.334   3.849  1.00  0.00     0.030 A 
ENDBRANCH  17  20
ENDBRANCH  15  16
ENDBRANCH  14  15
ENDBRANCH   1  14
BRANCH   6  28
HETATM   28  C   UNL     1      44.794 -10.072   9.372  1.00  0.00     0.273 C 
BRANCH  28  29
HETATM   29  C   UNL     1      43.978  -9.732  10.592  1.00  0.00    -0.030 A 
HETATM   30  C   UNL     1      43.578  -8.405  10.837  1.00  0.00     0.048 A 
HETATM   31  C   UNL     1      42.797  -8.155  11.946  1.00  0.00     0.105 A 
HETATM   32  C   UNL     1      42.425  -9.151  12.814  1.00  0.00     0.105 A 
HETATM   33  O   UNL     1      42.306  -6.941  12.306  1.00  0.00    -0.323 OA
HETATM   34  O   UNL     1      41.658  -8.689  13.834  1.00  0.00    -0.323 OA
HETATM   35  C   UNL     1      42.817 -10.457  12.624  1.00  0.00     0.040 A 
HETATM   36  C   UNL     1      41.589  -7.284  13.516  1.00  0.00     0.352 A 
HETATM   37  C   UNL     1      43.601 -10.749  11.501  1.00  0.00     0.012 A 
ENDBRANCH  28  29
ENDBRANCH   6  28
TORSDOF 6
ENDMDL
MODEL 8
REMARK VINA RESULT:      -9.4      2.685      3.712
REMARK  6 active torsions:
REMARK  status: ('A' for Active; 'I' for Inactive)
REMARK    1  A    between atoms: C_6  and  N_7 
REMARK       I    between atoms: N_7  and  C_8 
REMARK    2  A    between atoms: C_8  and  C_9 
REMARK    3  A    between atoms: C_9  and  S_10 
REMARK    4  A    between atoms: S_10  and  C_11 
REMARK    5  A    between atoms: N_16  and  C_18 
REMARK    6  A    between atoms: C_18  and  C_19 
ROOT
HETATM    1  C   UNL     1      40.096 -10.616   4.156  1.00  0.00     0.169 A 
HETATM    2  N   UNL     1      39.582 -11.668   3.609  1.00  0.00    -0.228 NA
HETATM    3  C   UNL     1      40.458 -12.580   3.075  1.00  0.00     0.052 A 
HETATM    4  C   UNL     1      41.791 -12.420   3.076  1.00  0.00     0.060 A 
HETATM    5  C   UNL     1      42.765 -13.428   2.583  1.00  0.00     0.281 C 
HETATM    6  N   UNL     1      42.131 -14.795   2.402  1.00  0.00    -0.063 N 
HETATM    7  H   UNL     1      41.926 -15.145   3.346  1.00  0.00     0.280 HD
HETATM    8  C   UNL     1      40.806 -14.678   1.676  1.00  0.00     0.241 C 
HETATM    9  C   UNL     1      39.833 -13.829   2.503  1.00  0.00     0.088 C 
HETATM   10  C   UNL     1      42.343 -11.182   3.653  1.00  0.00     0.257 A 
HETATM   11  O   UNL     1      43.550 -10.981   3.645  1.00  0.00    -0.267 OA
HETATM   12  N   UNL     1      41.424 -10.333   4.180  1.00  0.00    -0.302 N 
HETATM   13  H   UNL     1      41.737  -9.486   4.630  1.00  0.00     0.171 HD
ENDROOT
BRANCH   1  14
HETATM   14  S   UNL     1      39.143  -9.403   4.941  1.00  0.00    -0.083 SA
BRANCH  14  15
HETATM   15  C   UNL     1      40.346  -8.824   6.181  1.00  0.00     0.185 C 
BRANCH  15  16
HETATM   16  C   UNL     1      40.127  -9.415   7.564  1.00  0.00     0.231 C 
HETATM   17  N   UNL     1      41.185  -9.741   8.365  1.00  0.00    -0.327 N 
HETATM   18  H   UNL     1      40.853 -10.047   9.274  1.00  0.00     0.169 HD
HETATM   19  O   UNL     1      38.999  -9.591   8.044  1.00  0.00    -0.272 OA
BRANCH  17  20
HETATM   20  C   UNL     1      42.583  -9.745   8.204  1.00  0.00     0.035 A 
HETATM   21  C   UNL     1      43.315 -10.644   7.430  1.00  0.00     0.037 A 
HETATM   22  C   UNL     1      44.722 -10.565   7.338  1.00  0.00    -0.054 A 
HETATM   23  C   UNL     1      45.412  -9.578   8.065  1.00  0.00    -0.056 A 
HETATM   24  C   UNL     1      45.450 -11.603   6.524  1.00  0.00     0.049 C 
HETATM   25  C   UNL     1      46.912  -9.467   8.025  1.00  0.00     0.049 C 
HETATM   26  C   UNL     1      44.679  -8.682   8.849  1.00  0.00     0.009 A 
HETATM   27  C   UNL     1      43.286  -8.770   8.921  1.00  0.00     0.030 A 
ENDBRANCH  17  20
ENDBRANCH  15  16
ENDBRANCH  14  15
ENDBRANCH   1  14
BRANCH   6  28
HETATM   28  C   UNL     1      43.094 -15.779   1.781  1.00  0.00     0.273 C 
BRANCH  28  29
HETATM   29  C   UNL     1      43.372 -16.970   2.661  1.00  0.00    -0.030 A 
HETATM   30  C   UNL     1      43.339 -18.273   2.130  1.00  0.00     0.048 A 
HETATM   31  C   UNL     1      43.643 -19.325   2.968  1.00  0.00     0.105 A 
HETATM   32  C   UNL     1      43.950 -19.135   4.292  1.00  0.00     0.105 A 
HETATM   33  O   UNL     1      43.684 -20.634   2.607  1.00  0.00    -0.323 OA
HETATM   34  O   UNL     1      44.218 -20.301   4.934  1.00  0.00    -0.323 OA
HETATM   35  C   UNL     1      43.968 -17.879   4.856  1.00  0.00     0.040 A 
HETATM   36  C   UNL     1      44.041 -21.254   3.866  1.00  0.00     0.352 A 
HETATM   37  C   UNL     1      43.677 -16.787   4.030  1.00  0.00     0.012 A 
ENDBRANCH  28  29
ENDBRANCH   6  28
TORSDOF 6
ENDMDL
MODEL 9
REMARK VINA RESULT:      -9.3      1.674      2.068
REMARK  6 active torsions:
REMARK  status: ('A' for Active; 'I' for Inactive)
REMARK    1  A    between atoms: C_6  and  N_7 
REMARK       I    between atoms: N_7  and  C_8 
REMARK    2  A    between atoms: C_8  and  C_9 
REMARK    3  A    between atoms: C_9  and  S_10 
REMARK    4  A    between atoms: S_10  and  C_11 
REMARK    5  A    between atoms: N_16  and  C_18 
REMARK    6  A    between atoms: C_18  and  C_19 
ROOT
HETATM    1  C   UNL     1      44.532 -11.450   7.390  1.00  0.00     0.169 A 
HETATM    2  N   UNL     1      43.932 -12.562   7.659  1.00  0.00    -0.228 NA
HETATM    3  C   UNL     1      43.467 -13.289   6.591  1.00  0.00     0.052 A 
HETATM    4  C   UNL     1      43.587 -12.895   5.314  1.00  0.00     0.060 A 
HETATM    5  C   UNL     1      43.171 -13.700   4.137  1.00  0.00     0.281 C 
HETATM    6  N   UNL     1      42.921 -15.154   4.497  1.00  0.00    -0.063 N 
HETATM    7  H   UNL     1      43.840 -15.558   4.715  1.00  0.00     0.280 HD
HETATM    8  C   UNL     1      42.083 -15.255   5.756  1.00  0.00     0.241 C 
HETATM    9  C   UNL     1      42.830 -14.615   6.931  1.00  0.00     0.088 C 
HETATM   10  C   UNL     1      44.222 -11.593   5.044  1.00  0.00     0.257 A 
HETATM   11  O   UNL     1      44.321 -11.181   3.896  1.00  0.00    -0.267 OA
HETATM   12  N   UNL     1      44.675 -10.935   6.141  1.00  0.00    -0.302 N 
HETATM   13  H   UNL     1      45.160 -10.058   6.024  1.00  0.00     0.171 HD
ENDROOT
BRANCH   1  14
HETATM   14  S   UNL     1      45.244 -10.446   8.608  1.00  0.00    -0.083 SA
BRANCH  14  15
HETATM   15  C   UNL     1      43.828 -10.290   9.744  1.00  0.00     0.185 C 
BRANCH  15  16
HETATM   16  C   UNL     1      42.693  -9.446   9.189  1.00  0.00     0.231 C 
HETATM   17  N   UNL     1      41.908  -8.691  10.015  1.00  0.00    -0.327 N 
HETATM   18  H   UNL     1      41.256  -8.139   9.468  1.00  0.00     0.169 HD
HETATM   19  O   UNL     1      42.449  -9.368   7.977  1.00  0.00    -0.272 OA
BRANCH  17  20
HETATM   20  C   UNL     1      41.813  -8.526  11.410  1.00  0.00     0.035 A 
HETATM   21  C   UNL     1      42.647  -7.735  12.198  1.00  0.00     0.037 A 
HETATM   22  C   UNL     1      42.469  -7.640  13.596  1.00  0.00    -0.054 A 
HETATM   23  C   UNL     1      41.448  -8.380  14.219  1.00  0.00    -0.056 A 
HETATM   24  C   UNL     1      43.441  -6.808  14.391  1.00  0.00     0.049 C 
HETATM   25  C   UNL     1      41.233  -8.337  15.708  1.00  0.00     0.049 C 
HETATM   26  C   UNL     1      40.617  -9.180  13.429  1.00  0.00     0.009 A 
HETATM   27  C   UNL     1      40.802  -9.255  12.046  1.00  0.00     0.030 A 
ENDBRANCH  17  20
ENDBRANCH  15  16
ENDBRANCH  14  15
ENDBRANCH   1  14
BRANCH   6  28
HETATM   28  C   UNL     1      42.377 -15.934   3.325  1.00  0.00     0.273 C 
BRANCH  28  29
HETATM   29  C   UNL     1      42.848 -17.365   3.296  1.00  0.00    -0.030 A 
HETATM   30  C   UNL     1      43.427 -17.949   4.439  1.00  0.00     0.048 A 
HETATM   31  C   UNL     1      43.803 -19.274   4.372  1.00  0.00     0.105 A 
HETATM   32  C   UNL     1      43.649 -20.018   3.229  1.00  0.00     0.105 A 
HETATM   33  O   UNL     1      44.347 -19.991   5.390  1.00  0.00    -0.323 OA
HETATM   34  O   UNL     1      44.081 -21.296   3.381  1.00  0.00    -0.323 OA
HETATM   35  C   UNL     1      43.112 -19.476   2.083  1.00  0.00     0.040 A 
HETATM   36  C   UNL     1      44.532 -21.277   4.751  1.00  0.00     0.352 A 
HETATM   37  C   UNL     1      42.707 -18.137   2.119  1.00  0.00     0.012 A 
ENDBRANCH  28  29
ENDBRANCH   6  28
TORSDOF 6
ENDMDL
MODEL 10
REMARK VINA RESULT:      -9.1      5.656      9.898
REMARK  6 active torsions:
REMARK  status: ('A' for Active; 'I' for Inactive)
REMARK    1  A    between atoms: C_6  and  N_7 
REMARK       I    between atoms: N_7  and  C_8 
REMARK    2  A    between atoms: C_8  and  C_9 
REMARK    3  A    between atoms: C_9  and  S_10 
REMARK    4  A    between atoms: S_10  and  C_11 
REMARK    5  A    between atoms: N_16  and  C_18 
REMARK    6  A    between atoms: C_18  and  C_19 
ROOT
HETATM    1  C   UNL     1      40.168 -14.537   4.328  1.00  0.00     0.169 A 
HETATM    2  N   UNL     1      40.308 -15.162   3.205  1.00  0.00    -0.228 NA
HETATM    3  C   UNL     1      40.039 -14.450   2.062  1.00  0.00     0.052 A 
HETATM    4  C   UNL     1      39.625 -13.173   2.061  1.00  0.00     0.060 A 
HETATM    5  C   UNL     1      39.410 -12.354   0.841  1.00  0.00     0.281 C 
HETATM    6  N   UNL     1      40.035 -12.986  -0.390  1.00  0.00    -0.063 N 
HETATM    7  H   UNL     1      41.053 -12.913  -0.265  1.00  0.00     0.280 HD
HETATM    8  C   UNL     1      39.702 -14.462  -0.460  1.00  0.00     0.241 C 
HETATM    9  C   UNL     1      40.275 -15.184   0.765  1.00  0.00     0.088 C 
HETATM   10  C   UNL     1      39.418 -12.507   3.359  1.00  0.00     0.257 A 
HETATM   11  O   UNL     1      39.010 -11.355   3.404  1.00  0.00    -0.267 OA
HETATM   12  N   UNL     1      39.720 -13.261   4.447  1.00  0.00    -0.302 N 
HETATM   13  H   UNL     1      39.642 -12.851   5.366  1.00  0.00     0.171 HD
ENDROOT
BRANCH   1  14
HETATM   14  S   UNL     1      40.536 -15.258   5.858  1.00  0.00    -0.083 SA
BRANCH  14  15
HETATM   15  C   UNL     1      42.269 -14.726   6.040  1.00  0.00     0.185 C 
BRANCH  15  16
HETATM   16  C   UNL     1      42.929 -14.343   4.725  1.00  0.00     0.231 C 
HETATM   17  N   UNL     1      43.431 -15.299   3.886  1.00  0.00    -0.327 N 
HETATM   18  H   UNL     1      43.762 -14.870   3.028  1.00  0.00     0.169 HD
HETATM   19  O   UNL     1      43.008 -13.172   4.333  1.00  0.00    -0.272 OA
BRANCH  17  20
HETATM   20  C   UNL     1      43.584 -16.696   3.957  1.00  0.00     0.035 A 
HETATM   21  C   UNL     1      43.378 -17.596   2.912  1.00  0.00     0.037 A 
HETATM   22  C   UNL     1      43.555 -18.986   3.088  1.00  0.00    -0.054 A 
HETATM   23  C   UNL     1      43.919 -19.485   4.352  1.00  0.00    -0.056 A 
HETATM   24  C   UNL     1      43.263 -19.902   1.929  1.00  0.00     0.049 C 
HETATM   25  C   UNL     1      44.093 -20.958   4.602  1.00  0.00     0.049 C 
HETATM   26  C   UNL     1      44.116 -18.583   5.403  1.00  0.00     0.009 A 
HETATM   27  C   UNL     1      43.945 -17.211   5.207  1.00  0.00     0.030 A 
ENDBRANCH  17  20
ENDBRANCH  15  16
ENDBRANCH  14  15
ENDBRANCH   1  14
BRANCH   6  28
HETATM   28  C   UNL     1      39.702 -12.215  -1.644  1.00  0.00     0.273 C 
BRANCH  28  29
HETATM   29  C   UNL     1      40.200 -10.793  -1.614  1.00  0.00    -0.030 A 
HETATM   30  C   UNL     1      41.556 -10.517  -1.362  1.00  0.00     0.048 A 
HETATM   31  C   UNL     1      41.968  -9.201  -1.387  1.00  0.00     0.105 A 
HETATM   32  C   UNL     1      41.095  -8.169  -1.627  1.00  0.00     0.105 A 
HETATM   33  O   UNL     1      43.242  -8.769  -1.193  1.00  0.00    -0.323 OA
HETATM   34  O   UNL     1      41.707  -6.957  -1.609  1.00  0.00    -0.323 OA
HETATM   35  C   UNL     1      39.756  -8.395  -1.853  1.00  0.00     0.040 A 
HETATM   36  C   UNL     1      43.069  -7.338  -1.325  1.00  0.00     0.352 A 
HETATM   37  C   UNL     1      39.305  -9.721  -1.847  1.00  0.00     0.012 A 
ENDBRANCH  28  29
ENDBRANCH   6  28
TORSDOF 6
ENDMDL
