MODEL 1
REMARK VINA RESULT:      -8.1      0.000      0.000
REMARK  3 active torsions:
REMARK  status: ('A' for Active; 'I' for Inactive)
REMARK    1  A    between atoms: C_5  and  C_6 
REMARK    2  A    between atoms: C_10  and  N_11 
REMARK    3  A    between atoms: C_18  and  C_19 
ROOT
HETATM    1  C   UNL     1      41.688 -13.452   4.573  1.00  0.00     0.106 A 
HETATM    2  C   UNL     1      41.196 -12.142   5.197  1.00  0.00     0.081 A 
HETATM    3  C   UNL     1      41.793 -10.942   4.712  1.00  0.00     0.100 C 
HETATM    4  N   UNL     1      42.279  -9.964   4.321  1.00  0.00    -0.191 NA
HETATM    5  C   UNL     1      40.271 -12.100   6.195  1.00  0.00     0.140 A 
HETATM    6  O   UNL     1      39.696 -13.267   6.727  1.00  0.00    -0.279 OA
HETATM    7  C   UNL     1      40.164 -14.419   6.264  1.00  0.00     0.175 A 
HETATM    8  C   UNL     1      41.095 -14.624   5.278  1.00  0.00     0.040 A 
HETATM    9  N   UNL     1      39.787 -15.640   6.711  1.00  0.00    -0.256 N 
HETATM   10  H   UNL     1      39.115 -15.865   7.435  1.00  0.00     0.191 HD
HETATM   11  N   UNL     1      40.423 -16.644   6.082  1.00  0.00    -0.172 NA
HETATM   12  C   UNL     1      41.257 -16.036   5.213  1.00  0.00     0.099 A 
ENDROOT
BRANCH   1  13
HETATM   13  C   UNL     1      41.299 -13.575   3.105  1.00  0.00    -0.044 A 
HETATM   14  C   UNL     1      39.940 -13.584   2.752  1.00  0.00     0.009 A 
HETATM   15  C   UNL     1      39.545 -13.752   1.422  1.00  0.00     0.007 A 
HETATM   16  C   UNL     1      40.498 -13.931   0.415  1.00  0.00    -0.062 A 
HETATM   17  C   UNL     1      40.073 -14.084  -1.016  1.00  0.00     0.048 C 
HETATM   18  C   UNL     1      41.853 -13.910   0.754  1.00  0.00     0.007 A 
HETATM   19  C   UNL     1      42.250 -13.747   2.083  1.00  0.00     0.009 A 
ENDBRANCH   1  13
BRANCH   5  20
HETATM   20  N   UNL     1      39.794 -10.955   6.795  1.00  0.00    -0.282 NA
HETATM   21  H   UNL     1      39.182 -11.102   7.595  1.00  0.00     0.126 HD
HETATM   22  H   UNL     1      40.534 -10.284   6.979  1.00  0.00     0.126 HD
ENDBRANCH   5  20
BRANCH  12  23
HETATM   23  C   UNL     1      42.151 -16.824   4.366  1.00  0.00    -0.005 A 
HETATM   24  C   UNL     1      43.320 -17.376   4.909  1.00  0.00     0.014 A 
HETATM   25  C   UNL     1      44.188 -18.126   4.112  1.00  0.00     0.001 A 
HETATM   26  C   UNL     1      43.899 -18.326   2.763  1.00  0.00     0.000 A 
HETATM   27  C   UNL     1      42.745 -17.772   2.210  1.00  0.00     0.001 A 
HETATM   28  C   UNL     1      41.877 -17.020   3.007  1.00  0.00     0.014 A 
ENDBRANCH  12  23
TORSDOF 3
ENDMDL
MODEL 2
REMARK VINA RESULT:      -8.0      1.812      2.144
REMARK  3 active torsions:
REMARK  status: ('A' for Active; 'I' for Inactive)
REMARK    1  A    between atoms: C_5  and  C_6 
REMARK    2  A    between atoms: C_10  and  N_11 
REMARK    3  A    between atoms: C_18  and  C_19 
ROOT
HETATM    1  C   UNL     1      43.256 -14.507   4.404  1.00  0.00     0.106 A 
HETATM    2  C   UNL     1      43.205 -13.093   4.991  1.00  0.00     0.081 A 
HETATM    3  C   UNL     1      43.671 -12.038   4.153  1.00  0.00     0.100 C 
HETATM    4  N   UNL     1      44.052 -11.178   3.474  1.00  0.00    -0.191 NA
HETATM    5  C   UNL     1      42.784 -12.834   6.260  1.00  0.00     0.140 A 
HETATM    6  O   UNL     1      42.362 -13.856   7.127  1.00  0.00    -0.279 OA
HETATM    7  C   UNL     1      42.475 -15.098   6.674  1.00  0.00     0.175 A 
HETATM    8  C   UNL     1      42.889 -15.517   5.435  1.00  0.00     0.040 A 
HETATM    9  N   UNL     1      42.190 -16.210   7.392  1.00  0.00    -0.256 N 
HETATM   10  H   UNL     1      41.858 -16.273   8.347  1.00  0.00     0.191 HD
HETATM   11  N   UNL     1      42.401 -17.344   6.702  1.00  0.00    -0.172 NA
HETATM   12  C   UNL     1      42.861 -16.939   5.500  1.00  0.00     0.099 A 
ENDROOT
BRANCH   1  13
HETATM   13  C   UNL     1      42.286 -14.686   3.243  1.00  0.00    -0.044 A 
HETATM   14  C   UNL     1      42.788 -14.765   1.933  1.00  0.00     0.009 A 
HETATM   15  C   UNL     1      41.925 -14.873   0.839  1.00  0.00     0.007 A 
HETATM   16  C   UNL     1      40.540 -14.891   1.026  1.00  0.00    -0.062 A 
HETATM   17  C   UNL     1      39.615 -15.034  -0.147  1.00  0.00     0.048 C 
HETATM   18  C   UNL     1      40.031 -14.827   2.326  1.00  0.00     0.007 A 
HETATM   19  C   UNL     1      40.891 -14.714   3.420  1.00  0.00     0.009 A 
ENDBRANCH   1  13
BRANCH   5  20
HETATM   20  N   UNL     1      42.720 -11.587   6.841  1.00  0.00    -0.282 NA
HETATM   21  H   UNL     1      43.075 -11.529   7.794  1.00  0.00     0.126 HD
HETATM   22  H   UNL     1      43.092 -10.862   6.234  1.00  0.00     0.126 HD
ENDBRANCH   5  20
BRANCH  12  23
HETATM   23  C   UNL     1      43.238 -17.916   4.481  1.00  0.00    -0.005 A 
HETATM   24  C   UNL     1      44.111 -18.963   4.807  1.00  0.00     0.014 A 
HETATM   25  C   UNL     1      44.487 -19.902   3.843  1.00  0.00     0.001 A 
HETATM   26  C   UNL     1      43.998 -19.798   2.542  1.00  0.00     0.000 A 
HETATM   27  C   UNL     1      43.137 -18.754   2.204  1.00  0.00     0.001 A 
HETATM   28  C   UNL     1      42.763 -17.815   3.167  1.00  0.00     0.014 A 
ENDBRANCH  12  23
TORSDOF 3
ENDMDL
MODEL 3
REMARK VINA RESULT:      -7.8      2.524      4.210
REMARK  3 active torsions:
REMARK  status: ('A' for Active; 'I' for Inactive)
REMARK    1  A    between atoms: C_5  and  C_6 
REMARK    2  A    between atoms: C_10  and  N_11 
REMARK    3  A    between atoms: C_18  and  C_19 
ROOT
HETATM    1  C   UNL     1      40.624 -13.757   4.552  1.00  0.00     0.106 A 
HETATM    2  C   UNL     1      39.603 -12.659   4.238  1.00  0.00     0.081 A 
HETATM    3  C   UNL     1      39.128 -11.896   5.344  1.00  0.00     0.100 C 
HETATM    4  N   UNL     1      38.737 -11.275   6.243  1.00  0.00    -0.191 NA
HETATM    5  C   UNL     1      39.125 -12.430   2.983  1.00  0.00     0.140 A 
HETATM    6  O   UNL     1      39.539 -13.194   1.879  1.00  0.00    -0.279 OA
HETATM    7  C   UNL     1      40.358 -14.205   2.135  1.00  0.00     0.175 A 
HETATM    8  C   UNL     1      40.913 -14.568   3.336  1.00  0.00     0.040 A 
HETATM    9  N   UNL     1      40.800 -15.093   1.212  1.00  0.00    -0.256 N 
HETATM   10  H   UNL     1      40.590 -15.126   0.221  1.00  0.00     0.191 HD
HETATM   11  N   UNL     1      41.611 -16.029   1.736  1.00  0.00    -0.172 NA
HETATM   12  C   UNL     1      41.670 -15.739   3.053  1.00  0.00     0.099 A 
ENDROOT
BRANCH   1  13
HETATM   13  C   UNL     1      41.954 -13.191   5.033  1.00  0.00    -0.044 A 
HETATM   14  C   UNL     1      42.411 -13.512   6.322  1.00  0.00     0.009 A 
HETATM   15  C   UNL     1      43.599 -12.966   6.818  1.00  0.00     0.007 A 
HETATM   16  C   UNL     1      44.350 -12.076   6.045  1.00  0.00    -0.062 A 
HETATM   17  C   UNL     1      45.638 -11.512   6.568  1.00  0.00     0.048 C 
HETATM   18  C   UNL     1      43.910 -11.761   4.756  1.00  0.00     0.007 A 
HETATM   19  C   UNL     1      42.721 -12.301   4.260  1.00  0.00     0.009 A 
ENDBRANCH   1  13
BRANCH   5  20
HETATM   20  N   UNL     1      38.207 -11.462   2.643  1.00  0.00    -0.282 NA
HETATM   21  H   UNL     1      38.354 -11.017   1.739  1.00  0.00     0.126 HD
HETATM   22  H   UNL     1      37.250 -11.776   2.780  1.00  0.00     0.126 HD
ENDBRANCH   5  20
BRANCH  12  23
HETATM   23  C   UNL     1      42.445 -16.579   3.964  1.00  0.00    -0.005 A 
HETATM   24  C   UNL     1      43.559 -17.284   3.486  1.00  0.00     0.014 A 
HETATM   25  C   UNL     1      44.307 -18.097   4.342  1.00  0.00     0.001 A 
HETATM   26  C   UNL     1      43.943 -18.217   5.682  1.00  0.00     0.000 A 
HETATM   27  C   UNL     1      42.830 -17.529   6.165  1.00  0.00     0.001 A 
HETATM   28  C   UNL     1      42.082 -16.718   5.309  1.00  0.00     0.014 A 
ENDBRANCH  12  23
TORSDOF 3
ENDMDL
MODEL 4
REMARK VINA RESULT:      -7.7      1.812      5.160
REMARK  3 active torsions:
REMARK  status: ('A' for Active; 'I' for Inactive)
REMARK    1  A    between atoms: C_5  and  C_6 
REMARK    2  A    between atoms: C_10  and  N_11 
REMARK    3  A    between atoms: C_18  and  C_19 
ROOT
HETATM    1  C   UNL     1      40.508 -13.011   3.558  1.00  0.00     0.106 A 
HETATM    2  C   UNL     1      40.800 -12.672   5.023  1.00  0.00     0.081 A 
HETATM    3  C   UNL     1      40.244 -13.547   6.002  1.00  0.00     0.100 C 
HETATM    4  N   UNL     1      39.792 -14.256   6.801  1.00  0.00    -0.191 NA
HETATM    5  C   UNL     1      41.511 -11.574   5.401  1.00  0.00     0.140 A 
HETATM    6  O   UNL     1      42.033 -10.666   4.463  1.00  0.00    -0.279 OA
HETATM    7  C   UNL     1      41.725 -10.890   3.192  1.00  0.00     0.175 A 
HETATM    8  C   UNL     1      41.014 -11.935   2.660  1.00  0.00     0.040 A 
HETATM    9  N   UNL     1      42.072 -10.083   2.161  1.00  0.00    -0.256 N 
HETATM   10  H   UNL     1      42.602  -9.221   2.189  1.00  0.00     0.191 HD
HETATM   11  N   UNL     1      41.624 -10.532   0.975  1.00  0.00    -0.172 NA
HETATM   12  C   UNL     1      40.943 -11.660   1.265  1.00  0.00     0.099 A 
ENDROOT
BRANCH   1  13
HETATM   13  C   UNL     1      41.179 -14.306   3.119  1.00  0.00    -0.044 A 
HETATM   14  C   UNL     1      40.382 -15.387   2.704  1.00  0.00     0.009 A 
HETATM   15  C   UNL     1      40.960 -16.609   2.348  1.00  0.00     0.007 A 
HETATM   16  C   UNL     1      42.345 -16.786   2.412  1.00  0.00    -0.062 A 
HETATM   17  C   UNL     1      42.966 -18.089   2.004  1.00  0.00     0.048 C 
HETATM   18  C   UNL     1      43.147 -15.713   2.810  1.00  0.00     0.007 A 
HETATM   19  C   UNL     1      42.572 -14.492   3.172  1.00  0.00     0.009 A 
ENDBRANCH   1  13
BRANCH   5  20
HETATM   20  N   UNL     1      41.801 -11.218   6.699  1.00  0.00    -0.282 NA
HETATM   21  H   UNL     1      41.002 -11.171   7.329  1.00  0.00     0.126 HD
HETATM   22  H   UNL     1      42.576 -11.754   7.079  1.00  0.00     0.126 HD
ENDBRANCH   5  20
BRANCH  12  23
HETATM   23  C   UNL     1      40.273 -12.415   0.209  1.00  0.00    -0.005 A 
HETATM   24  C   UNL     1      39.005 -12.016  -0.239  1.00  0.00     0.014 A 
HETATM   25  C   UNL     1      38.348 -12.731  -1.243  1.00  0.00     0.001 A 
HETATM   26  C   UNL     1      38.950 -13.855  -1.805  1.00  0.00     0.000 A 
HETATM   27  C   UNL     1      40.205 -14.268  -1.360  1.00  0.00     0.001 A 
HETATM   28  C   UNL     1      40.862 -13.554  -0.354  1.00  0.00     0.014 A 
ENDBRANCH  12  23
TORSDOF 3
ENDMDL
MODEL 5
REMARK VINA RESULT:      -7.5      2.687      4.772
REMARK  3 active torsions:
REMARK  status: ('A' for Active; 'I' for Inactive)
REMARK    1  A    between atoms: C_5  and  C_6 
REMARK    2  A    between atoms: C_10  and  N_11 
REMARK    3  A    between atoms: C_18  and  C_19 
ROOT
HETATM    1  C   UNL     1      41.101 -12.491   2.018  1.00  0.00     0.106 A 
HETATM    2  C   UNL     1      40.124 -12.288   0.856  1.00  0.00     0.081 A 
HETATM    3  C   UNL     1      40.670 -12.381  -0.458  1.00  0.00     0.100 C 
HETATM    4  N   UNL     1      41.111 -12.453  -1.529  1.00  0.00    -0.191 NA
HETATM    5  C   UNL     1      38.808 -11.990   1.039  1.00  0.00     0.140 A 
HETATM    6  O   UNL     1      38.249 -11.847   2.320  1.00  0.00    -0.279 OA
HETATM    7  C   UNL     1      39.090 -11.935   3.343  1.00  0.00     0.175 A 
HETATM    8  C   UNL     1      40.432 -12.215   3.320  1.00  0.00     0.040 A 
HETATM    9  N   UNL     1      38.747 -11.748   4.640  1.00  0.00    -0.256 N 
HETATM   10  H   UNL     1      37.837 -11.526   5.024  1.00  0.00     0.191 HD
HETATM   11  N   UNL     1      39.790 -11.881   5.478  1.00  0.00    -0.172 NA
HETATM   12  C   UNL     1      40.846 -12.141   4.679  1.00  0.00     0.099 A 
ENDROOT
BRANCH   1  13
HETATM   13  C   UNL     1      41.632 -13.917   2.086  1.00  0.00    -0.044 A 
HETATM   14  C   UNL     1      40.728 -14.980   2.247  1.00  0.00     0.009 A 
HETATM   15  C   UNL     1      41.182 -16.296   2.370  1.00  0.00     0.007 A 
HETATM   16  C   UNL     1      42.551 -16.580   2.350  1.00  0.00    -0.062 A 
HETATM   17  C   UNL     1      43.036 -17.996   2.456  1.00  0.00     0.048 C 
HETATM   18  C   UNL     1      43.458 -15.531   2.177  1.00  0.00     0.007 A 
HETATM   19  C   UNL     1      43.007 -14.215   2.059  1.00  0.00     0.009 A 
ENDBRANCH   1  13
BRANCH   5  20
HETATM   20  N   UNL     1      37.886 -11.795   0.034  1.00  0.00    -0.282 NA
HETATM   21  H   UNL     1      37.706 -12.603  -0.558  1.00  0.00     0.126 HD
HETATM   22  H   UNL     1      37.036 -11.355   0.376  1.00  0.00     0.126 HD
ENDBRANCH   5  20
BRANCH  12  23
HETATM   23  C   UNL     1      42.182 -12.313   5.247  1.00  0.00    -0.005 A 
HETATM   24  C   UNL     1      43.146 -11.307   5.082  1.00  0.00     0.014 A 
HETATM   25  C   UNL     1      44.429 -11.458   5.613  1.00  0.00     0.001 A 
HETATM   26  C   UNL     1      44.763 -12.620   6.307  1.00  0.00     0.000 A 
HETATM   27  C   UNL     1      43.817 -13.631   6.467  1.00  0.00     0.001 A 
HETATM   28  C   UNL     1      42.534 -13.481   5.935  1.00  0.00     0.014 A 
ENDBRANCH  12  23
TORSDOF 3
ENDMDL
MODEL 6
REMARK VINA RESULT:      -7.3      6.978      8.864
REMARK  3 active torsions:
REMARK  status: ('A' for Active; 'I' for Inactive)
REMARK    1  A    between atoms: C_5  and  C_6 
REMARK    2  A    between atoms: C_10  and  N_11 
REMARK    3  A    between atoms: C_18  and  C_19 
ROOT
HETATM    1  C   UNL     1      43.016  -7.703  10.966  1.00  0.00     0.106 A 
HETATM    2  C   UNL     1      42.328  -6.974  12.124  1.00  0.00     0.081 A 
HETATM    3  C   UNL     1      42.171  -5.564  11.985  1.00  0.00     0.100 C 
HETATM    4  N   UNL     1      42.043  -4.416  11.875  1.00  0.00    -0.191 NA
HETATM    5  C   UNL     1      41.919  -7.607  13.258  1.00  0.00     0.140 A 
HETATM    6  O   UNL     1      42.100  -8.988  13.447  1.00  0.00    -0.279 OA
HETATM    7  C   UNL     1      42.768  -9.630  12.496  1.00  0.00     0.175 A 
HETATM    8  C   UNL     1      43.251  -9.134  11.312  1.00  0.00     0.040 A 
HETATM    9  N   UNL     1      43.104 -10.941  12.541  1.00  0.00    -0.256 N 
HETATM   10  H   UNL     1      42.907 -11.616  13.271  1.00  0.00     0.191 HD
HETATM   11  N   UNL     1      43.790 -11.340  11.456  1.00  0.00    -0.172 NA
HETATM   12  C   UNL     1      43.917 -10.231  10.698  1.00  0.00     0.099 A 
ENDROOT
BRANCH   1  13
HETATM   13  C   UNL     1      42.179  -7.688   9.693  1.00  0.00    -0.044 A 
HETATM   14  C   UNL     1      40.874  -8.206   9.723  1.00  0.00     0.009 A 
HETATM   15  C   UNL     1      40.097  -8.259   8.562  1.00  0.00     0.007 A 
HETATM   16  C   UNL     1      40.611  -7.811   7.341  1.00  0.00    -0.062 A 
HETATM   17  C   UNL     1      39.767  -7.844   6.101  1.00  0.00     0.048 C 
HETATM   18  C   UNL     1      41.904  -7.281   7.305  1.00  0.00     0.007 A 
HETATM   19  C   UNL     1      42.684  -7.231   8.462  1.00  0.00     0.009 A 
ENDBRANCH   1  13
BRANCH   5  20
HETATM   20  N   UNL     1      41.299  -7.004  14.331  1.00  0.00    -0.282 NA
HETATM   21  H   UNL     1      41.858  -6.939  15.179  1.00  0.00     0.126 HD
HETATM   22  H   UNL     1      40.862  -6.123  14.074  1.00  0.00     0.126 HD
ENDBRANCH   5  20
BRANCH  12  23
HETATM   23  C   UNL     1      44.650 -10.275   9.435  1.00  0.00    -0.005 A 
HETATM   24  C   UNL     1      44.292 -11.207   8.451  1.00  0.00     0.014 A 
HETATM   25  C   UNL     1      44.986 -11.267   7.240  1.00  0.00     0.001 A 
HETATM   26  C   UNL     1      46.051 -10.399   7.005  1.00  0.00     0.000 A 
HETATM   27  C   UNL     1      46.423  -9.475   7.981  1.00  0.00     0.001 A 
HETATM   28  C   UNL     1      45.730  -9.416   9.192  1.00  0.00     0.014 A 
ENDBRANCH  12  23
TORSDOF 3
ENDMDL
MODEL 7
REMARK VINA RESULT:      -7.2      2.833      4.602
REMARK  3 active torsions:
REMARK  status: ('A' for Active; 'I' for Inactive)
REMARK    1  A    between atoms: C_5  and  C_6 
REMARK    2  A    between atoms: C_10  and  N_11 
REMARK    3  A    between atoms: C_18  and  C_19 
ROOT
HETATM    1  C   UNL     1      40.806 -12.806   3.529  1.00  0.00     0.106 A 
HETATM    2  C   UNL     1      40.113 -11.648   2.805  1.00  0.00     0.081 A 
HETATM    3  C   UNL     1      39.501 -10.658   3.628  1.00  0.00     0.100 C 
HETATM    4  N   UNL     1      39.001  -9.851   4.294  1.00  0.00    -0.191 NA
HETATM    5  C   UNL     1      40.031 -11.567   1.448  1.00  0.00     0.140 A 
HETATM    6  O   UNL     1      40.584 -12.550   0.609  1.00  0.00    -0.279 OA
HETATM    7  C   UNL     1      41.117 -13.606   1.210  1.00  0.00     0.175 A 
HETATM    8  C   UNL     1      41.262 -13.837   2.554  1.00  0.00     0.040 A 
HETATM    9  N   UNL     1      41.626 -14.684   0.567  1.00  0.00    -0.256 N 
HETATM   10  H   UNL     1      41.684 -14.852  -0.430  1.00  0.00     0.191 HD
HETATM   11  N   UNL     1      42.093 -15.621   1.411  1.00  0.00    -0.172 NA
HETATM   12  C   UNL     1      41.851 -15.130   2.644  1.00  0.00     0.099 A 
ENDROOT
BRANCH   1  13
HETATM   13  C   UNL     1      42.039 -12.352   4.301  1.00  0.00    -0.044 A 
HETATM   14  C   UNL     1      43.139 -11.836   3.597  1.00  0.00     0.009 A 
HETATM   15  C   UNL     1      44.308 -11.461   4.266  1.00  0.00     0.007 A 
HETATM   16  C   UNL     1      44.410 -11.607   5.652  1.00  0.00    -0.062 A 
HETATM   17  C   UNL     1      45.655 -11.180   6.373  1.00  0.00     0.048 C 
HETATM   18  C   UNL     1      43.316 -12.107   6.364  1.00  0.00     0.007 A 
HETATM   19  C   UNL     1      42.149 -12.486   5.697  1.00  0.00     0.009 A 
ENDBRANCH   1  13
BRANCH   5  20
HETATM   20  N   UNL     1      39.419 -10.554   0.744  1.00  0.00    -0.282 NA
HETATM   21  H   UNL     1      39.905 -10.252  -0.099  1.00  0.00     0.126 HD
HETATM   22  H   UNL     1      38.432 -10.737   0.590  1.00  0.00     0.126 HD
ENDBRANCH   5  20
BRANCH  12  23
HETATM   23  C   UNL     1      42.197 -15.904   3.834  1.00  0.00    -0.005 A 
HETATM   24  C   UNL     1      41.279 -16.013   4.888  1.00  0.00     0.014 A 
HETATM   25  C   UNL     1      41.597 -16.744   6.036  1.00  0.00     0.001 A 
HETATM   26  C   UNL     1      42.839 -17.369   6.141  1.00  0.00     0.000 A 
HETATM   27  C   UNL     1      43.764 -17.258   5.104  1.00  0.00     0.001 A 
HETATM   28  C   UNL     1      43.446 -16.525   3.957  1.00  0.00     0.014 A 
ENDBRANCH  12  23
TORSDOF 3
ENDMDL
MODEL 8
REMARK VINA RESULT:      -7.1     15.803     17.566
REMARK  3 active torsions:
REMARK  status: ('A' for Active; 'I' for Inactive)
REMARK    1  A    between atoms: C_5  and  C_6 
REMARK    2  A    between atoms: C_10  and  N_11 
REMARK    3  A    between atoms: C_18  and  C_19 
ROOT
HETATM    1  C   UNL     1      45.508 -30.803  -1.314  1.00  0.00     0.106 A 
HETATM    2  C   UNL     1      44.751 -31.094  -2.614  1.00  0.00     0.081 A 
HETATM    3  C   UNL     1      44.078 -32.348  -2.691  1.00  0.00     0.100 C 
HETATM    4  N   UNL     1      43.531 -33.369  -2.758  1.00  0.00    -0.191 NA
HETATM    5  C   UNL     1      44.742 -30.237  -3.672  1.00  0.00     0.140 A 
HETATM    6  O   UNL     1      45.432 -29.014  -3.645  1.00  0.00    -0.279 OA
HETATM    7  C   UNL     1      46.165 -28.774  -2.565  1.00  0.00     0.175 A 
HETATM    8  C   UNL     1      46.286 -29.537  -1.432  1.00  0.00     0.040 A 
HETATM    9  N   UNL     1      46.955 -27.687  -2.395  1.00  0.00    -0.256 N 
HETATM   10  H   UNL     1      47.107 -26.915  -3.033  1.00  0.00     0.191 HD
HETATM   11  N   UNL     1      47.601 -27.692  -1.216  1.00  0.00    -0.172 NA
HETATM   12  C   UNL     1      47.223 -28.841  -0.618  1.00  0.00     0.099 A 
ENDROOT
BRANCH   1  13
HETATM   13  C   UNL     1      44.573 -30.639  -0.123  1.00  0.00    -0.044 A 
HETATM   14  C   UNL     1      43.624 -29.603  -0.132  1.00  0.00     0.009 A 
HETATM   15  C   UNL     1      42.787 -29.387   0.966  1.00  0.00     0.007 A 
HETATM   16  C   UNL     1      42.888 -30.191   2.106  1.00  0.00    -0.062 A 
HETATM   17  C   UNL     1      41.972 -29.975   3.274  1.00  0.00     0.048 C 
HETATM   18  C   UNL     1      43.820 -31.232   2.119  1.00  0.00     0.007 A 
HETATM   19  C   UNL     1      44.661 -31.447   1.025  1.00  0.00     0.009 A 
ENDBRANCH   1  13
BRANCH   5  20
HETATM   20  N   UNL     1      44.083 -30.447  -4.863  1.00  0.00    -0.282 NA
HETATM   21  H   UNL     1      43.827 -29.605  -5.376  1.00  0.00     0.126 HD
HETATM   22  H   UNL     1      44.550 -31.139  -5.442  1.00  0.00     0.126 HD
ENDBRANCH   5  20
BRANCH  12  23
HETATM   23  C   UNL     1      47.761 -29.210   0.690  1.00  0.00    -0.005 A 
HETATM   24  C   UNL     1      48.902 -30.021   0.771  1.00  0.00     0.014 A 
HETATM   25  C   UNL     1      49.426 -30.388   2.013  1.00  0.00     0.001 A 
HETATM   26  C   UNL     1      48.810 -29.953   3.185  1.00  0.00     0.000 A 
HETATM   27  C   UNL     1      47.668 -29.156   3.116  1.00  0.00     0.001 A 
HETATM   28  C   UNL     1      47.143 -28.790   1.874  1.00  0.00     0.014 A 
ENDBRANCH  12  23
TORSDOF 3
ENDMDL
MODEL 9
REMARK VINA RESULT:      -6.9     15.639     17.619
REMARK  3 active torsions:
REMARK  status: ('A' for Active; 'I' for Inactive)
REMARK    1  A    between atoms: C_5  and  C_6 
REMARK    2  A    between atoms: C_10  and  N_11 
REMARK    3  A    between atoms: C_18  and  C_19 
ROOT
HETATM    1  C   UNL     1      45.582 -30.618   0.393  1.00  0.00     0.106 A 
HETATM    2  C   UNL     1      44.213 -30.450   1.061  1.00  0.00     0.081 A 
HETATM    3  C   UNL     1      43.896 -31.372   2.101  1.00  0.00     0.100 C 
HETATM    4  N   UNL     1      43.633 -32.122   2.946  1.00  0.00    -0.191 NA
HETATM    5  C   UNL     1      43.311 -29.508   0.672  1.00  0.00     0.140 A 
HETATM    6  O   UNL     1      43.575 -28.614  -0.379  1.00  0.00    -0.279 OA
HETATM    7  C   UNL     1      44.717 -28.790  -1.030  1.00  0.00     0.175 A 
HETATM    8  C   UNL     1      45.715 -29.695  -0.769  1.00  0.00     0.040 A 
HETATM    9  N   UNL     1      45.105 -28.077  -2.114  1.00  0.00    -0.256 N 
HETATM   10  H   UNL     1      44.612 -27.326  -2.582  1.00  0.00     0.191 HD
HETATM   11  N   UNL     1      46.301 -28.464  -2.592  1.00  0.00    -0.172 NA
HETATM   12  C   UNL     1      46.681 -29.482  -1.792  1.00  0.00     0.099 A 
ENDROOT
BRANCH   1  13
HETATM   13  C   UNL     1      46.731 -30.304   1.342  1.00  0.00    -0.044 A 
HETATM   14  C   UNL     1      47.683 -31.299   1.622  1.00  0.00     0.009 A 
HETATM   15  C   UNL     1      48.719 -31.066   2.530  1.00  0.00     0.007 A 
HETATM   16  C   UNL     1      48.822 -29.838   3.191  1.00  0.00    -0.062 A 
HETATM   17  C   UNL     1      49.950 -29.580   4.146  1.00  0.00     0.048 C 
HETATM   18  C   UNL     1      47.888 -28.837   2.909  1.00  0.00     0.007 A 
HETATM   19  C   UNL     1      46.849 -29.070   2.006  1.00  0.00     0.009 A 
ENDBRANCH   1  13
BRANCH   5  20
HETATM   20  N   UNL     1      42.068 -29.313   1.233  1.00  0.00    -0.282 NA
HETATM   21  H   UNL     1      41.288 -29.310   0.578  1.00  0.00     0.126 HD
HETATM   22  H   UNL     1      41.911 -29.917   2.035  1.00  0.00     0.126 HD
ENDBRANCH   5  20
BRANCH  12  23
HETATM   23  C   UNL     1      47.937 -30.188  -2.034  1.00  0.00    -0.005 A 
HETATM   24  C   UNL     1      47.923 -31.450  -2.647  1.00  0.00     0.014 A 
HETATM   25  C   UNL     1      49.114 -32.141  -2.880  1.00  0.00     0.001 A 
HETATM   26  C   UNL     1      50.331 -31.580  -2.498  1.00  0.00     0.000 A 
HETATM   27  C   UNL     1      50.357 -30.331  -1.877  1.00  0.00     0.001 A 
HETATM   28  C   UNL     1      49.165 -29.641  -1.643  1.00  0.00     0.014 A 
ENDBRANCH  12  23
TORSDOF 3
ENDMDL
MODEL 10
REMARK VINA RESULT:      -6.9      2.719      5.740
REMARK  3 active torsions:
REMARK  status: ('A' for Active; 'I' for Inactive)
REMARK    1  A    between atoms: C_5  and  C_6 
REMARK    2  A    between atoms: C_10  and  N_11 
REMARK    3  A    between atoms: C_18  and  C_19 
ROOT
HETATM    1  C   UNL     1      41.741 -12.856   4.048  1.00  0.00     0.106 A 
HETATM    2  C   UNL     1      40.627 -13.202   3.055  1.00  0.00     0.081 A 
HETATM    3  C   UNL     1      40.966 -14.112   2.011  1.00  0.00     0.100 C 
HETATM    4  N   UNL     1      41.238 -14.850   1.158  1.00  0.00    -0.191 NA
HETATM    5  C   UNL     1      39.384 -12.650   3.116  1.00  0.00     0.140 A 
HETATM    6  O   UNL     1      39.032 -11.716   4.105  1.00  0.00    -0.279 OA
HETATM    7  C   UNL     1      40.002 -11.335   4.927  1.00  0.00     0.175 A 
HETATM    8  C   UNL     1      41.296 -11.785   4.984  1.00  0.00     0.040 A 
HETATM    9  N   UNL     1      39.870 -10.391   5.889  1.00  0.00    -0.256 N 
HETATM   10  H   UNL     1      39.048  -9.849   6.130  1.00  0.00     0.191 HD
HETATM   11  N   UNL     1      41.008 -10.184   6.575  1.00  0.00    -0.172 NA
HETATM   12  C   UNL     1      41.909 -11.016   6.011  1.00  0.00     0.099 A 
ENDROOT
BRANCH   1  13
HETATM   13  C   UNL     1      42.147 -14.050   4.902  1.00  0.00    -0.044 A 
HETATM   14  C   UNL     1      43.279 -14.800   4.542  1.00  0.00     0.009 A 
HETATM   15  C   UNL     1      43.649 -15.936   5.269  1.00  0.00     0.007 A 
HETATM   16  C   UNL     1      42.888 -16.357   6.364  1.00  0.00    -0.062 A 
HETATM   17  C   UNL     1      43.301 -17.560   7.160  1.00  0.00     0.048 C 
HETATM   18  C   UNL     1      41.768 -15.609   6.739  1.00  0.00     0.007 A 
HETATM   19  C   UNL     1      41.394 -14.478   6.011  1.00  0.00     0.009 A 
ENDBRANCH   1  13
BRANCH   5  20
HETATM   20  N   UNL     1      38.347 -12.921   2.251  1.00  0.00    -0.282 NA
HETATM   21  H   UNL     1      38.616 -13.337   1.362  1.00  0.00     0.126 HD
HETATM   22  H   UNL     1      37.587 -13.416   2.708  1.00  0.00     0.126 HD
ENDBRANCH   5  20
BRANCH  12  23
HETATM   23  C   UNL     1      43.292 -11.041   6.482  1.00  0.00    -0.005 A 
HETATM   24  C   UNL     1      43.582 -10.718   7.815  1.00  0.00     0.014 A 
HETATM   25  C   UNL     1      44.900 -10.730   8.280  1.00  0.00     0.001 A 
HETATM   26  C   UNL     1      45.940 -11.060   7.414  1.00  0.00     0.000 A 
HETATM   27  C   UNL     1      45.665 -11.373   6.083  1.00  0.00     0.001 A 
HETATM   28  C   UNL     1      44.347 -11.358   5.618  1.00  0.00     0.014 A 
ENDBRANCH  12  23
TORSDOF 3
ENDMDL
