MODEL 1
REMARK VINA RESULT:      -8.9      0.000      0.000
REMARK  3 active torsions:
REMARK  status: ('A' for Active; 'I' for Inactive)
REMARK    1  A    between atoms: C_6  and  O_7 
REMARK    2  A    between atoms: O_7  and  C_8 
REMARK       I    between atoms: N_10  and  C_11 
REMARK       I    between atoms: C_11  and  N_12 
REMARK    3  A    between atoms: N_12  and  C_13 
ROOT
HETATM    1  C   UNL     1      43.074 -16.026   4.533  1.00  0.00     0.148 C 
HETATM    2  C   UNL     1      42.598 -15.910   3.079  1.00  0.00     0.160 C 
HETATM    3  N   UNL     1      41.153 -15.752   3.170  1.00  0.00    -0.331 N 
HETATM    4  C   UNL     1      40.305 -15.173   2.245  1.00  0.00     0.323 C 
HETATM    5  N   UNL     1      40.878 -14.982   1.010  1.00  0.00    -0.309 N 
HETATM    6  O   UNL     1      39.157 -14.869   2.553  1.00  0.00    -0.247 OA
HETATM    7  C   UNL     1      40.690 -16.013   4.521  1.00  0.00     0.130 C 
HETATM    8  C   UNL     1      41.867 -16.688   5.203  1.00  0.00     0.054 C 
HETATM    9  H   UNL     1      41.674 -15.565   0.808  1.00  0.00     0.170 HD
ENDROOT
BRANCH   5  10
HETATM   10  C   UNL     1      40.363 -14.232  -0.069  1.00  0.00     0.037 A 
HETATM   11  C   UNL     1      40.682 -12.887  -0.291  1.00  0.00     0.043 A 
HETATM   12  C   UNL     1      40.157 -12.218  -1.417  1.00  0.00    -0.006 A 
HETATM   13  C   UNL     1      39.326 -12.916  -2.289  1.00  0.00     0.042 A 
HETATM   14  C   UNL     1      40.286 -10.896  -1.927  1.00  0.00     0.030 A 
HETATM   15  N   UNL     1      38.961 -12.042  -3.288  1.00  0.00    -0.365 N 
HETATM   16  C   UNL     1      38.990 -14.259  -2.095  1.00  0.00     0.033 A 
HETATM   17  H   UNL     1      38.355 -12.276  -4.063  1.00  0.00     0.165 HD
HETATM   18  C   UNL     1      39.540 -10.818  -3.081  1.00  0.00     0.089 A 
HETATM   19  C   UNL     1      39.528 -14.902  -0.972  1.00  0.00     0.032 A 
ENDBRANCH   5  10
BRANCH   1  20
HETATM   20  O   UNL     1      44.239 -16.839   4.599  1.00  0.00    -0.344 OA
BRANCH  20  21
HETATM   21  C   UNL     1      44.095 -18.196   4.522  1.00  0.00     0.070 A 
HETATM   22  C   UNL     1      43.970 -18.690   3.220  1.00  0.00     0.060 A 
HETATM   23  C   UNL     1      43.818 -20.058   2.999  1.00  0.00     0.036 A 
HETATM   24  C   UNL     1      43.790 -20.947   4.070  1.00  0.00     0.024 A 
HETATM   25 CL   UNL     1      43.662 -20.653   1.392  1.00  0.00    -0.084 Cl
HETATM   26  C   UNL     1      43.915 -20.461   5.369  1.00  0.00     0.004 A 
HETATM   27  C   UNL     1      44.067 -19.088   5.596  1.00  0.00     0.037 A 
ENDBRANCH  20  21
ENDBRANCH   1  20
TORSDOF 3
ENDMDL
MODEL 2
REMARK VINA RESULT:      -8.8      6.074      9.273
REMARK  3 active torsions:
REMARK  status: ('A' for Active; 'I' for Inactive)
REMARK    1  A    between atoms: C_6  and  O_7 
REMARK    2  A    between atoms: O_7  and  C_8 
REMARK       I    between atoms: N_10  and  C_11 
REMARK       I    between atoms: C_11  and  N_12 
REMARK    3  A    between atoms: N_12  and  C_13 
ROOT
HETATM    1  C   UNL     1      44.426 -11.504   6.986  1.00  0.00     0.148 C 
HETATM    2  C   UNL     1      44.257 -13.022   6.839  1.00  0.00     0.160 C 
HETATM    3  N   UNL     1      43.101 -13.187   5.968  1.00  0.00    -0.331 N 
HETATM    4  C   UNL     1      42.792 -14.271   5.169  1.00  0.00     0.323 C 
HETATM    5  N   UNL     1      43.525 -15.399   5.456  1.00  0.00    -0.309 N 
HETATM    6  O   UNL     1      41.937 -14.180   4.294  1.00  0.00    -0.247 OA
HETATM    7  C   UNL     1      42.412 -11.923   5.782  1.00  0.00     0.130 C 
HETATM    8  C   UNL     1      42.980 -11.017   6.859  1.00  0.00     0.054 C 
HETATM    9  H   UNL     1      43.924 -15.431   6.380  1.00  0.00     0.170 HD
ENDROOT
BRANCH   5  10
HETATM   10  C   UNL     1      43.604 -16.586   4.698  1.00  0.00     0.037 A 
HETATM   11  C   UNL     1      43.866 -17.842   5.262  1.00  0.00     0.043 A 
HETATM   12  C   UNL     1      43.888 -18.988   4.441  1.00  0.00    -0.006 A 
HETATM   13  C   UNL     1      43.650 -18.846   3.076  1.00  0.00     0.042 A 
HETATM   14  C   UNL     1      44.106 -20.373   4.686  1.00  0.00     0.030 A 
HETATM   15  N   UNL     1      43.728 -20.101   2.517  1.00  0.00    -0.365 N 
HETATM   16  C   UNL     1      43.385 -17.607   2.484  1.00  0.00     0.033 A 
HETATM   17  H   UNL     1      43.599 -20.302   1.535  1.00  0.00     0.165 HD
HETATM   18  C   UNL     1      44.000 -21.034   3.483  1.00  0.00     0.089 A 
HETATM   19  C   UNL     1      43.363 -16.484   3.323  1.00  0.00     0.032 A 
ENDBRANCH   5  10
BRANCH   1  20
HETATM   20  O   UNL     1      44.987 -11.199   8.256  1.00  0.00    -0.344 OA
BRANCH  20  21
HETATM   21  C   UNL     1      44.490 -10.133   8.952  1.00  0.00     0.070 A 
HETATM   22  C   UNL     1      43.938 -10.461  10.194  1.00  0.00     0.060 A 
HETATM   23  C   UNL     1      43.395  -9.467  11.007  1.00  0.00     0.036 A 
HETATM   24  C   UNL     1      43.399  -8.138  10.595  1.00  0.00     0.024 A 
HETATM   25 CL   UNL     1      42.716  -9.886  12.532  1.00  0.00    -0.084 Cl
HETATM   26  C   UNL     1      43.949  -7.804   9.359  1.00  0.00     0.004 A 
HETATM   27  C   UNL     1      44.493  -8.798   8.538  1.00  0.00     0.037 A 
ENDBRANCH  20  21
ENDBRANCH   1  20
TORSDOF 3
ENDMDL
MODEL 3
REMARK VINA RESULT:      -8.8      7.873     10.563
REMARK  3 active torsions:
REMARK  status: ('A' for Active; 'I' for Inactive)
REMARK    1  A    between atoms: C_6  and  O_7 
REMARK    2  A    between atoms: O_7  and  C_8 
REMARK       I    between atoms: N_10  and  C_11 
REMARK       I    between atoms: C_11  and  N_12 
REMARK    3  A    between atoms: N_12  and  C_13 
ROOT
HETATM    1  C   UNL     1      44.017  -9.200   9.706  1.00  0.00     0.148 C 
HETATM    2  C   UNL     1      43.450 -10.117   8.614  1.00  0.00     0.160 C 
HETATM    3  N   UNL     1      44.565 -10.349   7.705  1.00  0.00    -0.331 N 
HETATM    4  C   UNL     1      44.746 -11.413   6.842  1.00  0.00     0.323 C 
HETATM    5  N   UNL     1      43.614 -12.170   6.649  1.00  0.00    -0.309 N 
HETATM    6  O   UNL     1      45.840 -11.622   6.327  1.00  0.00    -0.247 OA
HETATM    7  C   UNL     1      45.670  -9.459   8.009  1.00  0.00     0.130 C 
HETATM    8  C   UNL     1      45.074  -8.411   8.931  1.00  0.00     0.054 C 
HETATM    9  H   UNL     1      42.744 -11.706   6.852  1.00  0.00     0.170 HD
ENDROOT
BRANCH   5  10
HETATM   10  C   UNL     1      43.520 -13.426   6.013  1.00  0.00     0.037 A 
HETATM   11  C   UNL     1      43.909 -14.627   6.620  1.00  0.00     0.043 A 
HETATM   12  C   UNL     1      43.745 -15.846   5.930  1.00  0.00    -0.006 A 
HETATM   13  C   UNL     1      43.196 -15.830   4.651  1.00  0.00     0.042 A 
HETATM   14  C   UNL     1      44.018 -17.205   6.252  1.00  0.00     0.030 A 
HETATM   15  N   UNL     1      43.146 -17.134   4.213  1.00  0.00    -0.365 N 
HETATM   16  C   UNL     1      42.798 -14.648   4.019  1.00  0.00     0.033 A 
HETATM   17  H   UNL     1      42.794 -17.425   3.312  1.00  0.00     0.165 HD
HETATM   18  C   UNL     1      43.638 -17.975   5.176  1.00  0.00     0.089 A 
HETATM   19  C   UNL     1      42.967 -13.450   4.726  1.00  0.00     0.032 A 
ENDBRANCH   5  10
BRANCH   1  20
HETATM   20  O   UNL     1      42.987  -8.364  10.218  1.00  0.00    -0.344 OA
BRANCH  20  21
HETATM   21  C   UNL     1      42.599  -8.527  11.519  1.00  0.00     0.070 A 
HETATM   22  C   UNL     1      41.522  -9.400  11.694  1.00  0.00     0.060 A 
HETATM   23  C   UNL     1      41.025  -9.657  12.971  1.00  0.00     0.036 A 
HETATM   24  C   UNL     1      41.598  -9.050  14.086  1.00  0.00     0.024 A 
HETATM   25 CL   UNL     1      39.697 -10.732  13.173  1.00  0.00    -0.084 Cl
HETATM   26  C   UNL     1      42.673  -8.180  13.918  1.00  0.00     0.004 A 
HETATM   27  C   UNL     1      43.173  -7.918  12.637  1.00  0.00     0.037 A 
ENDBRANCH  20  21
ENDBRANCH   1  20
TORSDOF 3
ENDMDL
MODEL 4
REMARK VINA RESULT:      -8.7      5.723      8.853
REMARK  3 active torsions:
REMARK  status: ('A' for Active; 'I' for Inactive)
REMARK    1  A    between atoms: C_6  and  O_7 
REMARK    2  A    between atoms: O_7  and  C_8 
REMARK       I    between atoms: N_10  and  C_11 
REMARK       I    between atoms: C_11  and  N_12 
REMARK    3  A    between atoms: N_12  and  C_13 
ROOT
HETATM    1  C   UNL     1      43.281 -10.921   5.451  1.00  0.00     0.148 C 
HETATM    2  C   UNL     1      42.900 -12.407   5.489  1.00  0.00     0.160 C 
HETATM    3  N   UNL     1      42.765 -12.794   4.091  1.00  0.00    -0.331 N 
HETATM    4  C   UNL     1      42.882 -14.060   3.549  1.00  0.00     0.323 C 
HETATM    5  N   UNL     1      42.852 -15.069   4.483  1.00  0.00    -0.309 N 
HETATM    6  O   UNL     1      43.005 -14.213   2.338  1.00  0.00    -0.247 OA
HETATM    7  C   UNL     1      42.783 -11.626   3.229  1.00  0.00     0.130 C 
HETATM    8  C   UNL     1      42.582 -10.454   4.172  1.00  0.00     0.054 C 
HETATM    9  H   UNL     1      42.420 -14.832   5.361  1.00  0.00     0.170 HD
ENDROOT
BRANCH   5  10
HETATM   10  C   UNL     1      43.158 -16.432   4.284  1.00  0.00     0.037 A 
HETATM   11  C   UNL     1      42.863 -17.121   3.101  1.00  0.00     0.043 A 
HETATM   12  C   UNL     1      43.240 -18.474   2.966  1.00  0.00    -0.006 A 
HETATM   13  C   UNL     1      43.901 -19.099   4.020  1.00  0.00     0.042 A 
HETATM   14  C   UNL     1      43.105 -19.436   1.926  1.00  0.00     0.030 A 
HETATM   15  N   UNL     1      44.151 -20.396   3.630  1.00  0.00    -0.365 N 
HETATM   16  C   UNL     1      44.210 -18.437   5.212  1.00  0.00     0.033 A 
HETATM   17  H   UNL     1      44.620 -21.087   4.199  1.00  0.00     0.165 HD
HETATM   18  C   UNL     1      43.677 -20.609   2.363  1.00  0.00     0.089 A 
HETATM   19  C   UNL     1      43.830 -17.093   5.320  1.00  0.00     0.032 A 
ENDBRANCH   5  10
BRANCH   1  20
HETATM   20  O   UNL     1      42.783 -10.263   6.609  1.00  0.00    -0.344 OA
BRANCH  20  21
HETATM   21  C   UNL     1      43.626 -10.076   7.668  1.00  0.00     0.070 A 
HETATM   22  C   UNL     1      43.016  -9.534   8.803  1.00  0.00     0.060 A 
HETATM   23  C   UNL     1      43.762  -9.294   9.956  1.00  0.00     0.036 A 
HETATM   24  C   UNL     1      45.122  -9.592   9.991  1.00  0.00     0.024 A 
HETATM   25 CL   UNL     1      42.999  -8.624  11.345  1.00  0.00    -0.084 Cl
HETATM   26  C   UNL     1      45.735 -10.133   8.863  1.00  0.00     0.004 A 
HETATM   27  C   UNL     1      44.990 -10.375   7.704  1.00  0.00     0.037 A 
ENDBRANCH  20  21
ENDBRANCH   1  20
TORSDOF 3
ENDMDL
MODEL 5
REMARK VINA RESULT:      -8.4      2.140      2.878
REMARK  3 active torsions:
REMARK  status: ('A' for Active; 'I' for Inactive)
REMARK    1  A    between atoms: C_6  and  O_7 
REMARK    2  A    between atoms: O_7  and  C_8 
REMARK       I    between atoms: N_10  and  C_11 
REMARK       I    between atoms: C_11  and  N_12 
REMARK    3  A    between atoms: N_12  and  C_13 
ROOT
HETATM    1  C   UNL     1      43.117 -14.240   4.595  1.00  0.00     0.148 C 
HETATM    2  C   UNL     1      41.832 -14.105   3.767  1.00  0.00     0.160 C 
HETATM    3  N   UNL     1      41.972 -12.837   3.064  1.00  0.00    -0.331 N 
HETATM    4  C   UNL     1      41.357 -12.449   1.889  1.00  0.00     0.323 C 
HETATM    5  N   UNL     1      40.307 -13.256   1.518  1.00  0.00    -0.309 N 
HETATM    6  O   UNL     1      41.755 -11.468   1.269  1.00  0.00    -0.247 OA
HETATM    7  C   UNL     1      43.098 -12.083   3.583  1.00  0.00     0.130 C 
HETATM    8  C   UNL     1      43.455 -12.776   4.885  1.00  0.00     0.054 C 
HETATM    9  H   UNL     1      39.891 -13.793   2.262  1.00  0.00     0.170 HD
ENDROOT
BRANCH   5  10
HETATM   10  C   UNL     1      39.623 -13.261   0.285  1.00  0.00     0.037 A 
HETATM   11  C   UNL     1      39.688 -14.323  -0.626  1.00  0.00     0.043 A 
HETATM   12  C   UNL     1      38.940 -14.270  -1.821  1.00  0.00    -0.006 A 
HETATM   13  C   UNL     1      38.148 -13.152  -2.072  1.00  0.00     0.042 A 
HETATM   14  C   UNL     1      38.777 -15.155  -2.923  1.00  0.00     0.030 A 
HETATM   15  N   UNL     1      37.533 -13.354  -3.286  1.00  0.00    -0.365 N 
HETATM   16  C   UNL     1      38.061 -12.077  -1.182  1.00  0.00     0.033 A 
HETATM   17  H   UNL     1      36.898 -12.702  -3.725  1.00  0.00     0.165 HD
HETATM   18  C   UNL     1      37.904 -14.566  -3.809  1.00  0.00     0.089 A 
HETATM   19  C   UNL     1      38.810 -12.157   0.000  1.00  0.00     0.032 A 
ENDBRANCH   5  10
BRANCH   1  20
HETATM   20  O   UNL     1      42.853 -14.978   5.781  1.00  0.00    -0.344 OA
BRANCH  20  21
HETATM   21  C   UNL     1      43.138 -16.315   5.797  1.00  0.00     0.070 A 
HETATM   22  C   UNL     1      43.531 -16.835   4.560  1.00  0.00     0.060 A 
HETATM   23  C   UNL     1      43.852 -18.187   4.436  1.00  0.00     0.036 A 
HETATM   24  C   UNL     1      43.787 -19.031   5.540  1.00  0.00     0.024 A 
HETATM   25 CL   UNL     1      44.331 -18.815   2.907  1.00  0.00    -0.084 Cl
HETATM   26  C   UNL     1      43.398 -18.518   6.775  1.00  0.00     0.004 A 
HETATM   27  C   UNL     1      43.073 -17.164   6.904  1.00  0.00     0.037 A 
ENDBRANCH  20  21
ENDBRANCH   1  20
TORSDOF 3
ENDMDL
MODEL 6
REMARK VINA RESULT:      -8.3      8.335     10.445
REMARK  3 active torsions:
REMARK  status: ('A' for Active; 'I' for Inactive)
REMARK    1  A    between atoms: C_6  and  O_7 
REMARK    2  A    between atoms: O_7  and  C_8 
REMARK       I    between atoms: N_10  and  C_11 
REMARK       I    between atoms: C_11  and  N_12 
REMARK    3  A    between atoms: N_12  and  C_13 
ROOT
HETATM    1  C   UNL     1      44.185  -9.761  10.386  1.00  0.00     0.148 C 
HETATM    2  C   UNL     1      43.367 -10.095   9.131  1.00  0.00     0.160 C 
HETATM    3  N   UNL     1      44.315 -10.728   8.224  1.00  0.00    -0.331 N 
HETATM    4  C   UNL     1      44.042 -11.599   7.187  1.00  0.00     0.323 C 
HETATM    5  N   UNL     1      42.714 -11.639   6.831  1.00  0.00    -0.309 N 
HETATM    6  O   UNL     1      44.938 -12.259   6.672  1.00  0.00    -0.247 OA
HETATM    7  C   UNL     1      45.674 -10.579   8.714  1.00  0.00     0.130 C 
HETATM    8  C   UNL     1      45.575  -9.518   9.795  1.00  0.00     0.054 C 
HETATM    9  H   UNL     1      42.173 -10.831   7.091  1.00  0.00     0.170 HD
ENDROOT
BRANCH   5  10
HETATM   10  C   UNL     1      42.083 -12.565   5.974  1.00  0.00     0.037 A 
HETATM   11  C   UNL     1      42.681 -13.762   5.561  1.00  0.00     0.043 A 
HETATM   12  C   UNL     1      41.967 -14.655   4.736  1.00  0.00    -0.006 A 
HETATM   13  C   UNL     1      40.672 -14.324   4.345  1.00  0.00     0.042 A 
HETATM   14  C   UNL     1      42.267 -15.922   4.162  1.00  0.00     0.030 A 
HETATM   15  N   UNL     1      40.209 -15.354   3.557  1.00  0.00    -0.365 N 
HETATM   16  C   UNL     1      40.047 -13.138   4.741  1.00  0.00     0.033 A 
HETATM   17  H   UNL     1      39.294 -15.384   3.130  1.00  0.00     0.165 HD
HETATM   18  C   UNL     1      41.166 -16.329   3.443  1.00  0.00     0.089 A 
HETATM   19  C   UNL     1      40.776 -12.270   5.565  1.00  0.00     0.032 A 
ENDBRANCH   5  10
BRANCH   1  20
HETATM   20  O   UNL     1      43.656  -8.601  11.015  1.00  0.00    -0.344 OA
BRANCH  20  21
HETATM   21  C   UNL     1      42.832  -8.760  12.094  1.00  0.00     0.070 A 
HETATM   22  C   UNL     1      43.104  -7.898  13.160  1.00  0.00     0.060 A 
HETATM   23  C   UNL     1      42.338  -7.954  14.324  1.00  0.00     0.036 A 
HETATM   24  C   UNL     1      41.293  -8.866  14.436  1.00  0.00     0.024 A 
HETATM   25 CL   UNL     1      42.686  -6.888  15.629  1.00  0.00    -0.084 Cl
HETATM   26  C   UNL     1      41.016  -9.728  13.377  1.00  0.00     0.004 A 
HETATM   27  C   UNL     1      41.784  -9.676  12.208  1.00  0.00     0.037 A 
ENDBRANCH  20  21
ENDBRANCH   1  20
TORSDOF 3
ENDMDL
MODEL 7
REMARK VINA RESULT:      -8.2      5.027      6.434
REMARK  3 active torsions:
REMARK  status: ('A' for Active; 'I' for Inactive)
REMARK    1  A    between atoms: C_6  and  O_7 
REMARK    2  A    between atoms: O_7  and  C_8 
REMARK       I    between atoms: N_10  and  C_11 
REMARK       I    between atoms: C_11  and  N_12 
REMARK    3  A    between atoms: N_12  and  C_13 
ROOT
HETATM    1  C   UNL     1      43.571 -12.852   6.364  1.00  0.00     0.148 C 
HETATM    2  C   UNL     1      43.226 -12.902   4.869  1.00  0.00     0.160 C 
HETATM    3  N   UNL     1      42.307 -14.025   4.735  1.00  0.00    -0.331 N 
HETATM    4  C   UNL     1      41.367 -14.235   3.745  1.00  0.00     0.323 C 
HETATM    5  N   UNL     1      41.527 -13.424   2.646  1.00  0.00    -0.309 N 
HETATM    6  O   UNL     1      40.487 -15.078   3.887  1.00  0.00    -0.247 OA
HETATM    7  C   UNL     1      42.267 -14.805   5.959  1.00  0.00     0.130 C 
HETATM    8  C   UNL     1      43.467 -14.327   6.756  1.00  0.00     0.054 C 
HETATM    9  H   UNL     1      42.450 -13.041   2.523  1.00  0.00     0.170 HD
ENDROOT
BRANCH   5  10
HETATM   10  C   UNL     1      40.626 -13.240   1.576  1.00  0.00     0.037 A 
HETATM   11  C   UNL     1      40.552 -14.103   0.476  1.00  0.00     0.043 A 
HETATM   12  C   UNL     1      39.594 -13.873  -0.533  1.00  0.00    -0.006 A 
HETATM   13  C   UNL     1      38.736 -12.783  -0.413  1.00  0.00     0.042 A 
HETATM   14  C   UNL     1      39.255 -14.542  -1.743  1.00  0.00     0.030 A 
HETATM   15  N   UNL     1      37.912 -12.790  -1.516  1.00  0.00    -0.365 N 
HETATM   16  C   UNL     1      38.784 -11.904   0.673  1.00  0.00     0.033 A 
HETATM   17  H   UNL     1      37.187 -12.110  -1.697  1.00  0.00     0.165 HD
HETATM   18  C   UNL     1      38.215 -13.853  -2.325  1.00  0.00     0.089 A 
HETATM   19  C   UNL     1      39.742 -12.158   1.665  1.00  0.00     0.032 A 
ENDBRANCH   5  10
BRANCH   1  20
HETATM   20  O   UNL     1      44.885 -12.338   6.540  1.00  0.00    -0.344 OA
BRANCH  20  21
HETATM   21  C   UNL     1      45.050 -11.204   7.284  1.00  0.00     0.070 A 
HETATM   22  C   UNL     1      43.906 -10.799   7.979  1.00  0.00     0.060 A 
HETATM   23  C   UNL     1      43.936  -9.657   8.778  1.00  0.00     0.036 A 
HETATM   24  C   UNL     1      45.104  -8.908   8.895  1.00  0.00     0.024 A 
HETATM   25 CL   UNL     1      42.521  -9.168   9.626  1.00  0.00    -0.084 Cl
HETATM   26  C   UNL     1      46.247  -9.307   8.206  1.00  0.00     0.004 A 
HETATM   27  C   UNL     1      46.221 -10.452   7.402  1.00  0.00     0.037 A 
ENDBRANCH  20  21
ENDBRANCH   1  20
TORSDOF 3
ENDMDL
MODEL 8
REMARK VINA RESULT:      -8.1      2.400      3.009
REMARK  3 active torsions:
REMARK  status: ('A' for Active; 'I' for Inactive)
REMARK    1  A    between atoms: C_6  and  O_7 
REMARK    2  A    between atoms: O_7  and  C_8 
REMARK       I    between atoms: N_10  and  C_11 
REMARK       I    between atoms: C_11  and  N_12 
REMARK    3  A    between atoms: N_12  and  C_13 
ROOT
HETATM    1  C   UNL     1      42.000 -15.130   2.508  1.00  0.00     0.148 C 
HETATM    2  C   UNL     1      40.687 -14.505   2.019  1.00  0.00     0.160 C 
HETATM    3  N   UNL     1      41.049 -13.161   1.590  1.00  0.00    -0.331 N 
HETATM    4  C   UNL     1      40.388 -12.355   0.683  1.00  0.00     0.323 C 
HETATM    5  N   UNL     1      39.118 -12.787   0.379  1.00  0.00    -0.309 N 
HETATM    6  O   UNL     1      40.933 -11.360   0.217  1.00  0.00    -0.247 OA
HETATM    7  C   UNL     1      42.401 -12.835   2.007  1.00  0.00     0.130 C 
HETATM    8  C   UNL     1      42.754 -13.903   3.026  1.00  0.00     0.054 C 
HETATM    9  H   UNL     1      38.693 -13.393   1.062  1.00  0.00     0.170 HD
ENDROOT
BRANCH   5  10
HETATM   10  C   UNL     1      38.278 -12.321  -0.654  1.00  0.00     0.037 A 
HETATM   11  C   UNL     1      37.613 -11.089  -0.607  1.00  0.00     0.043 A 
HETATM   12  C   UNL     1      36.822 -10.677  -1.699  1.00  0.00    -0.006 A 
HETATM   13  C   UNL     1      36.717 -11.511  -2.810  1.00  0.00     0.042 A 
HETATM   14  C   UNL     1      36.044  -9.517  -1.972  1.00  0.00     0.030 A 
HETATM   15  N   UNL     1      35.900 -10.878  -3.718  1.00  0.00    -0.365 N 
HETATM   16  C   UNL     1      37.369 -12.746  -2.887  1.00  0.00     0.033 A 
HETATM   17  H   UNL     1      35.644 -11.254  -4.621  1.00  0.00     0.165 HD
HETATM   18  C   UNL     1      35.490  -9.668  -3.223  1.00  0.00     0.089 A 
HETATM   19  C   UNL     1      38.153 -13.130  -1.790  1.00  0.00     0.032 A 
ENDBRANCH   5  10
BRANCH   1  20
HETATM   20  O   UNL     1      41.734 -16.074   3.538  1.00  0.00    -0.344 OA
BRANCH  20  21
HETATM   21  C   UNL     1      42.648 -17.064   3.769  1.00  0.00     0.070 A 
HETATM   22  C   UNL     1      42.715 -18.033   2.765  1.00  0.00     0.060 A 
HETATM   23  C   UNL     1      43.607 -19.099   2.874  1.00  0.00     0.036 A 
HETATM   24  C   UNL     1      44.441 -19.209   3.983  1.00  0.00     0.024 A 
HETATM   25 CL   UNL     1      43.677 -20.288   1.632  1.00  0.00    -0.084 Cl
HETATM   26  C   UNL     1      44.380 -18.245   4.987  1.00  0.00     0.004 A 
HETATM   27  C   UNL     1      43.485 -17.175   4.882  1.00  0.00     0.037 A 
ENDBRANCH  20  21
ENDBRANCH   1  20
TORSDOF 3
ENDMDL
MODEL 9
REMARK VINA RESULT:      -8.0      7.977     10.551
REMARK  3 active torsions:
REMARK  status: ('A' for Active; 'I' for Inactive)
REMARK    1  A    between atoms: C_6  and  O_7 
REMARK    2  A    between atoms: O_7  and  C_8 
REMARK       I    between atoms: N_10  and  C_11 
REMARK       I    between atoms: C_11  and  N_12 
REMARK    3  A    between atoms: N_12  and  C_13 
ROOT
HETATM    1  C   UNL     1      43.748 -12.768   6.442  1.00  0.00     0.148 C 
HETATM    2  C   UNL     1      43.603 -12.338   7.908  1.00  0.00     0.160 C 
HETATM    3  N   UNL     1      44.252 -11.036   7.982  1.00  0.00    -0.331 N 
HETATM    4  C   UNL     1      44.030 -10.031   8.904  1.00  0.00     0.323 C 
HETATM    5  N   UNL     1      43.317 -10.437  10.007  1.00  0.00    -0.309 N 
HETATM    6  O   UNL     1      44.448  -8.895   8.704  1.00  0.00    -0.247 OA
HETATM    7  C   UNL     1      44.991 -10.759   6.763  1.00  0.00     0.130 C 
HETATM    8  C   UNL     1      45.067 -12.098   6.051  1.00  0.00     0.054 C 
HETATM    9  H   UNL     1      43.336 -11.427  10.194  1.00  0.00     0.170 HD
ENDROOT
BRANCH   5  10
HETATM   10  C   UNL     1      42.747  -9.623  11.008  1.00  0.00     0.037 A 
HETATM   11  C   UNL     1      43.505  -8.936  11.965  1.00  0.00     0.043 A 
HETATM   12  C   UNL     1      42.861  -8.109  12.908  1.00  0.00    -0.006 A 
HETATM   13  C   UNL     1      41.474  -7.991  12.868  1.00  0.00     0.042 A 
HETATM   14  C   UNL     1      43.321  -7.288  13.977  1.00  0.00     0.030 A 
HETATM   15  N   UNL     1      41.110  -7.135  13.882  1.00  0.00    -0.365 N 
HETATM   16  C   UNL     1      40.690  -8.663  11.925  1.00  0.00     0.033 A 
HETATM   17  H   UNL     1      40.159  -6.865  14.092  1.00  0.00     0.165 HD
HETATM   18  C   UNL     1      42.220  -6.700  14.557  1.00  0.00     0.089 A 
HETATM   19  C   UNL     1      41.354  -9.475  10.996  1.00  0.00     0.032 A 
ENDBRANCH   5  10
BRANCH   1  20
HETATM   20  O   UNL     1      43.818 -14.185   6.357  1.00  0.00    -0.344 OA
BRANCH  20  21
HETATM   21  C   UNL     1      43.068 -14.821   5.407  1.00  0.00     0.070 A 
HETATM   22  C   UNL     1      43.633 -16.004   4.922  1.00  0.00     0.060 A 
HETATM   23  C   UNL     1      42.971 -16.752   3.949  1.00  0.00     0.036 A 
HETATM   24  C   UNL     1      41.740 -16.332   3.453  1.00  0.00     0.024 A 
HETATM   25 CL   UNL     1      43.679 -18.205   3.358  1.00  0.00    -0.084 Cl
HETATM   26  C   UNL     1      41.171 -15.155   3.934  1.00  0.00     0.004 A 
HETATM   27  C   UNL     1      41.833 -14.400   4.908  1.00  0.00     0.037 A 
ENDBRANCH  20  21
ENDBRANCH   1  20
TORSDOF 3
ENDMDL
MODEL 10
REMARK VINA RESULT:      -7.8      8.073     10.809
REMARK  3 active torsions:
REMARK  status: ('A' for Active; 'I' for Inactive)
REMARK    1  A    between atoms: C_6  and  O_7 
REMARK    2  A    between atoms: O_7  and  C_8 
REMARK       I    between atoms: N_10  and  C_11 
REMARK       I    between atoms: C_11  and  N_12 
REMARK    3  A    between atoms: N_12  and  C_13 
ROOT
HETATM    1  C   UNL     1      43.062  -8.732   9.488  1.00  0.00     0.148 C 
HETATM    2  C   UNL     1      42.689  -9.790   8.440  1.00  0.00     0.160 C 
HETATM    3  N   UNL     1      43.959 -10.197   7.853  1.00  0.00    -0.331 N 
HETATM    4  C   UNL     1      44.253 -11.389   7.218  1.00  0.00     0.323 C 
HETATM    5  N   UNL     1      43.144 -12.129   6.884  1.00  0.00    -0.309 N 
HETATM    6  O   UNL     1      45.417 -11.712   7.002  1.00  0.00    -0.247 OA
HETATM    7  C   UNL     1      45.027  -9.308   8.269  1.00  0.00     0.130 C 
HETATM    8  C   UNL     1      44.315  -8.109   8.868  1.00  0.00     0.054 C 
HETATM    9  H   UNL     1      42.283 -11.610   6.813  1.00  0.00     0.170 HD
ENDROOT
BRANCH   5  10
HETATM   10  C   UNL     1      43.108 -13.465   6.432  1.00  0.00     0.037 A 
HETATM   11  C   UNL     1      43.021 -13.816   5.079  1.00  0.00     0.043 A 
HETATM   12  C   UNL     1      43.031 -15.176   4.705  1.00  0.00    -0.006 A 
HETATM   13  C   UNL     1      43.127 -16.148   5.698  1.00  0.00     0.042 A 
HETATM   14  C   UNL     1      42.970 -15.857   3.457  1.00  0.00     0.030 A 
HETATM   15  N   UNL     1      43.118 -17.373   5.070  1.00  0.00    -0.365 N 
HETATM   16  C   UNL     1      43.216 -15.829   7.056  1.00  0.00     0.033 A 
HETATM   17  H   UNL     1      43.174 -18.263   5.545  1.00  0.00     0.165 HD
HETATM   18  C   UNL     1      43.027 -17.208   3.712  1.00  0.00     0.089 A 
HETATM   19  C   UNL     1      43.209 -14.471   7.401  1.00  0.00     0.032 A 
ENDBRANCH   5  10
BRANCH   1  20
HETATM   20  O   UNL     1      42.004  -7.792   9.625  1.00  0.00    -0.344 OA
BRANCH  20  21
HETATM   21  C   UNL     1      41.199  -7.869  10.727  1.00  0.00     0.070 A 
HETATM   22  C   UNL     1      41.856  -8.272  11.894  1.00  0.00     0.060 A 
HETATM   23  C   UNL     1      41.153  -8.391  13.091  1.00  0.00     0.036 A 
HETATM   24  C   UNL     1      39.791  -8.108  13.141  1.00  0.00     0.024 A 
HETATM   25 CL   UNL     1      41.973  -8.891  14.519  1.00  0.00    -0.084 Cl
HETATM   26  C   UNL     1      39.131  -7.705  11.982  1.00  0.00     0.004 A 
HETATM   27  C   UNL     1      39.832  -7.586  10.777  1.00  0.00     0.037 A 
ENDBRANCH  20  21
ENDBRANCH   1  20
TORSDOF 3
ENDMDL
