MODEL 1
REMARK VINA RESULT:      -8.2      0.000      0.000
REMARK  3 active torsions:
REMARK  status: ('A' for Active; 'I' for Inactive)
REMARK    1  A    between atoms: C_2  and  C_3 
REMARK    2  A    between atoms: C_7  and  N_8 
REMARK       I    between atoms: N_8  and  C_9 
REMARK    3  A    between atoms: C_9  and  C_10 
ROOT
HETATM    1  N   UNL     1      41.646 -14.442   1.075  1.00  0.00    -0.309 N 
HETATM    2  C   UNL     1      41.484 -14.736   2.410  1.00  0.00     0.234 C 
HETATM    3  O   UNL     1      40.417 -14.808   3.011  1.00  0.00    -0.272 OA
HETATM    4  H   UNL     1      42.567 -14.231   0.713  1.00  0.00     0.170 HD
ENDROOT
BRANCH   2   5
HETATM    5  C   UNL     1      42.816 -14.955   3.107  1.00  0.00     0.138 C 
HETATM    6  C   UNL     1      43.156 -16.385   3.358  1.00  0.00    -0.008 A 
HETATM    7  C   UNL     1      43.642 -16.512   4.652  1.00  0.00     0.076 A 
HETATM    8  C   UNL     1      43.116 -17.484   2.512  1.00  0.00     0.030 A 
HETATM    9  C   UNL     1      44.102 -17.713   5.153  1.00  0.00     0.039 A 
HETATM   10  O   UNL     1      43.639 -15.341   5.361  1.00  0.00    -0.349 OA
HETATM   11  C   UNL     1      44.055 -18.830   4.319  1.00  0.00     0.022 A 
HETATM   12  C   UNL     1      43.563 -18.712   3.011  1.00  0.00     0.011 A 
HETATM   13 BR   UNL     1      43.514 -20.240   1.895  1.00  0.00    -0.051 Br
HETATM   14  C   UNL     1      42.811 -14.461   4.561  1.00  0.00     0.194 C 
ENDBRANCH   2   5
BRANCH   1  15
HETATM   15  C   UNL     1      40.676 -14.168   0.141  1.00  0.00     0.158 A 
HETATM   16  N   UNL     1      39.824 -15.166  -0.114  1.00  0.00    -0.156 NA
HETATM   17  N   UNL     1      39.034 -14.693  -1.082  1.00  0.00    -0.280 N 
HETATM   18  C   UNL     1      39.307 -13.405  -1.433  1.00  0.00     0.037 A 
HETATM   19  H   UNL     1      38.316 -15.304  -1.459  1.00  0.00     0.189 HD
HETATM   20  C   UNL     1      40.362 -13.006  -0.623  1.00  0.00     0.010 A 
HETATM   21  C   UNL     1      40.968 -11.653  -0.587  1.00  0.00     0.054 C 
BRANCH  18  22
HETATM   22  C   UNL     1      38.533 -12.697  -2.492  1.00  0.00     0.055 C 
HETATM   23  C   UNL     1      37.183 -13.350  -2.736  1.00  0.00     0.011 C 
ENDBRANCH  18  22
ENDBRANCH   1  15
TORSDOF 3
ENDMDL
MODEL 2
REMARK VINA RESULT:      -7.7      4.384      7.386
REMARK  3 active torsions:
REMARK  status: ('A' for Active; 'I' for Inactive)
REMARK    1  A    between atoms: C_2  and  C_3 
REMARK    2  A    between atoms: C_7  and  N_8 
REMARK       I    between atoms: N_8  and  C_9 
REMARK    3  A    between atoms: C_9  and  C_10 
ROOT
HETATM    1  N   UNL     1      43.695 -12.243   5.460  1.00  0.00    -0.309 N 
HETATM    2  C   UNL     1      43.139 -13.470   5.744  1.00  0.00     0.234 C 
HETATM    3  O   UNL     1      43.239 -14.083   6.801  1.00  0.00    -0.272 OA
HETATM    4  H   UNL     1      43.707 -11.903   4.508  1.00  0.00     0.170 HD
ENDROOT
BRANCH   2   5
HETATM    5  C   UNL     1      42.367 -14.029   4.561  1.00  0.00     0.138 C 
HETATM    6  C   UNL     1      42.876 -15.335   4.049  1.00  0.00    -0.008 A 
HETATM    7  C   UNL     1      42.924 -15.286   2.663  1.00  0.00     0.076 A 
HETATM    8  C   UNL     1      43.209 -16.500   4.723  1.00  0.00     0.030 A 
HETATM    9  C   UNL     1      43.295 -16.374   1.899  1.00  0.00     0.039 A 
HETATM   10  O   UNL     1      42.551 -14.078   2.138  1.00  0.00    -0.349 OA
HETATM   11  C   UNL     1      43.646 -17.550   2.563  1.00  0.00     0.022 A 
HETATM   12  C   UNL     1      43.603 -17.607   3.964  1.00  0.00     0.011 A 
HETATM   13 BR   UNL     1      44.076 -19.214   4.843  1.00  0.00    -0.051 Br
HETATM   14  C   UNL     1      42.553 -13.194   3.286  1.00  0.00     0.194 C 
ENDBRANCH   2   5
BRANCH   1  15
HETATM   15  C   UNL     1      44.469 -11.452   6.274  1.00  0.00     0.158 A 
HETATM   16  N   UNL     1      45.789 -11.559   6.096  1.00  0.00    -0.156 NA
HETATM   17  N   UNL     1      46.320 -10.761   7.027  1.00  0.00    -0.280 N 
HETATM   18  C   UNL     1      45.391 -10.098   7.773  1.00  0.00     0.037 A 
HETATM   19  H   UNL     1      47.331 -10.709   7.097  1.00  0.00     0.189 HD
HETATM   20  C   UNL     1      44.156 -10.496   7.285  1.00  0.00     0.010 A 
HETATM   21  C   UNL     1      42.836  -9.988   7.736  1.00  0.00     0.054 C 
BRANCH  18  22
HETATM   22  C   UNL     1      45.784  -9.158   8.861  1.00  0.00     0.055 C 
HETATM   23  C   UNL     1      45.429  -9.703  10.235  1.00  0.00     0.011 C 
ENDBRANCH  18  22
ENDBRANCH   1  15
TORSDOF 3
ENDMDL
MODEL 3
REMARK VINA RESULT:      -7.6      1.852      2.597
REMARK  3 active torsions:
REMARK  status: ('A' for Active; 'I' for Inactive)
REMARK    1  A    between atoms: C_2  and  C_3 
REMARK    2  A    between atoms: C_7  and  N_8 
REMARK       I    between atoms: N_8  and  C_9 
REMARK    3  A    between atoms: C_9  and  C_10 
ROOT
HETATM    1  N   UNL     1      42.541 -14.934   3.219  1.00  0.00    -0.309 N 
HETATM    2  C   UNL     1      42.093 -15.502   4.391  1.00  0.00     0.234 C 
HETATM    3  O   UNL     1      40.947 -15.458   4.824  1.00  0.00    -0.272 OA
HETATM    4  H   UNL     1      43.533 -14.872   3.037  1.00  0.00     0.170 HD
ENDROOT
BRANCH   2   5
HETATM    5  C   UNL     1      43.210 -16.206   5.142  1.00  0.00     0.138 C 
HETATM    6  C   UNL     1      43.404 -17.636   4.767  1.00  0.00    -0.008 A 
HETATM    7  C   UNL     1      43.564 -18.386   5.924  1.00  0.00     0.076 A 
HETATM    8  C   UNL     1      43.502 -18.238   3.521  1.00  0.00     0.030 A 
HETATM    9  C   UNL     1      43.828 -19.741   5.894  1.00  0.00     0.039 A 
HETATM   10  O   UNL     1      43.460 -17.655   7.077  1.00  0.00    -0.349 OA
HETATM   11  C   UNL     1      43.916 -20.363   4.648  1.00  0.00     0.022 A 
HETATM   12  C   UNL     1      43.752 -19.613   3.474  1.00  0.00     0.011 A 
HETATM   13 BR   UNL     1      43.882 -20.476   1.795  1.00  0.00    -0.051 Br
HETATM   14  C   UNL     1      42.892 -16.399   6.631  1.00  0.00     0.194 C 
ENDBRANCH   2   5
BRANCH   1  15
HETATM   15  C   UNL     1      41.825 -14.209   2.298  1.00  0.00     0.158 A 
HETATM   16  N   UNL     1      42.243 -12.955   2.102  1.00  0.00    -0.156 NA
HETATM   17  N   UNL     1      41.368 -12.441   1.232  1.00  0.00    -0.280 N 
HETATM   18  C   UNL     1      40.423 -13.331   0.816  1.00  0.00     0.037 A 
HETATM   19  H   UNL     1      41.477 -11.470   0.956  1.00  0.00     0.189 HD
HETATM   20  C   UNL     1      40.710 -14.522   1.467  1.00  0.00     0.010 A 
HETATM   21  C   UNL     1      39.995 -15.810   1.280  1.00  0.00     0.054 C 
BRANCH  18  22
HETATM   22  C   UNL     1      39.360 -12.950  -0.157  1.00  0.00     0.055 C 
HETATM   23  C   UNL     1      39.628 -13.520  -1.540  1.00  0.00     0.011 C 
ENDBRANCH  18  22
ENDBRANCH   1  15
TORSDOF 3
ENDMDL
MODEL 4
REMARK VINA RESULT:      -7.4      3.113      7.218
REMARK  3 active torsions:
REMARK  status: ('A' for Active; 'I' for Inactive)
REMARK    1  A    between atoms: C_2  and  C_3 
REMARK    2  A    between atoms: C_7  and  N_8 
REMARK       I    between atoms: N_8  and  C_9 
REMARK    3  A    between atoms: C_9  and  C_10 
ROOT
HETATM    1  N   UNL     1      42.547 -15.081   3.827  1.00  0.00    -0.309 N 
HETATM    2  C   UNL     1      42.866 -14.315   2.728  1.00  0.00     0.234 C 
HETATM    3  O   UNL     1      43.736 -14.563   1.901  1.00  0.00    -0.272 OA
HETATM    4  H   UNL     1      41.941 -14.706   4.544  1.00  0.00     0.170 HD
ENDROOT
BRANCH   2   5
HETATM    5  C   UNL     1      42.010 -13.063   2.644  1.00  0.00     0.138 C 
HETATM    6  C   UNL     1      41.406 -12.813   1.303  1.00  0.00    -0.008 A 
HETATM    7  C   UNL     1      41.559 -11.472   0.984  1.00  0.00     0.076 A 
HETATM    8  C   UNL     1      40.717 -13.664   0.452  1.00  0.00     0.030 A 
HETATM    9  C   UNL     1      41.041 -10.924  -0.173  1.00  0.00     0.039 A 
HETATM   10  O   UNL     1      42.245 -10.753   1.927  1.00  0.00    -0.349 OA
HETATM   11  C   UNL     1      40.357 -11.770  -1.046  1.00  0.00     0.022 A 
HETATM   12  C   UNL     1      40.200 -13.129  -0.733  1.00  0.00     0.011 A 
HETATM   13 BR   UNL     1      39.262 -14.255  -1.929  1.00  0.00    -0.051 Br
HETATM   14  C   UNL     1      42.834 -11.773   2.769  1.00  0.00     0.194 C 
ENDBRANCH   2   5
BRANCH   1  15
HETATM   15  C   UNL     1      43.117 -16.263   4.233  1.00  0.00     0.158 A 
HETATM   16  N   UNL     1      43.625 -16.262   5.470  1.00  0.00    -0.156 NA
HETATM   17  N   UNL     1      44.172 -17.473   5.609  1.00  0.00    -0.280 N 
HETATM   18  C   UNL     1      43.995 -18.282   4.526  1.00  0.00     0.037 A 
HETATM   19  H   UNL     1      44.651 -17.689   6.478  1.00  0.00     0.189 HD
HETATM   20  C   UNL     1      43.270 -17.535   3.608  1.00  0.00     0.010 A 
HETATM   21  C   UNL     1      42.772 -18.015   2.295  1.00  0.00     0.054 C 
BRANCH  18  22
HETATM   22  C   UNL     1      44.529 -19.673   4.489  1.00  0.00     0.055 C 
HETATM   23  C   UNL     1      43.898 -20.550   5.559  1.00  0.00     0.011 C 
ENDBRANCH  18  22
ENDBRANCH   1  15
TORSDOF 3
ENDMDL
MODEL 5
REMARK VINA RESULT:      -7.4      2.820      6.954
REMARK  3 active torsions:
REMARK  status: ('A' for Active; 'I' for Inactive)
REMARK    1  A    between atoms: C_2  and  C_3 
REMARK    2  A    between atoms: C_7  and  N_8 
REMARK       I    between atoms: N_8  and  C_9 
REMARK    3  A    between atoms: C_9  and  C_10 
ROOT
HETATM    1  N   UNL     1      42.174 -15.376   2.695  1.00  0.00    -0.309 N 
HETATM    2  C   UNL     1      40.817 -15.160   2.611  1.00  0.00     0.234 C 
HETATM    3  O   UNL     1      39.937 -15.979   2.850  1.00  0.00    -0.272 OA
HETATM    4  H   UNL     1      42.817 -14.699   2.309  1.00  0.00     0.170 HD
ENDROOT
BRANCH   2   5
HETATM    5  C   UNL     1      40.497 -13.745   2.157  1.00  0.00     0.138 C 
HETATM    6  C   UNL     1      40.373 -13.582   0.680  1.00  0.00    -0.008 A 
HETATM    7  C   UNL     1      41.055 -12.437   0.295  1.00  0.00     0.076 A 
HETATM    8  C   UNL     1      39.668 -14.327  -0.255  1.00  0.00     0.030 A 
HETATM    9  C   UNL     1      41.066 -11.986  -1.010  1.00  0.00     0.039 A 
HETATM   10  O   UNL     1      41.687 -11.796   1.327  1.00  0.00    -0.349 OA
HETATM   11  C   UNL     1      40.372 -12.732  -1.964  1.00  0.00     0.022 A 
HETATM   12  C   UNL     1      39.682 -13.894  -1.584  1.00  0.00     0.011 A 
HETATM   13 BR   UNL     1      38.744 -14.886  -2.894  1.00  0.00    -0.051 Br
HETATM   14  C   UNL     1      41.656 -12.770   2.400  1.00  0.00     0.194 C 
ENDBRANCH   2   5
BRANCH   1  15
HETATM   15  C   UNL     1      42.830 -16.530   3.052  1.00  0.00     0.158 A 
HETATM   16  N   UNL     1      43.224 -17.305   2.037  1.00  0.00    -0.156 NA
HETATM   17  N   UNL     1      43.766 -18.376   2.624  1.00  0.00    -0.280 N 
HETATM   18  C   UNL     1      43.785 -18.304   3.986  1.00  0.00     0.037 A 
HETATM   19  H   UNL     1      44.113 -19.125   2.034  1.00  0.00     0.189 HD
HETATM   20  C   UNL     1      43.210 -17.083   4.309  1.00  0.00     0.010 A 
HETATM   21  C   UNL     1      43.071 -16.522   5.676  1.00  0.00     0.054 C 
BRANCH  18  22
HETATM   22  C   UNL     1      44.352 -19.399   4.823  1.00  0.00     0.055 C 
HETATM   23  C   UNL     1      43.946 -20.771   4.309  1.00  0.00     0.011 C 
ENDBRANCH  18  22
ENDBRANCH   1  15
TORSDOF 3
ENDMDL
MODEL 6
REMARK VINA RESULT:      -7.3      2.443      3.009
REMARK  3 active torsions:
REMARK  status: ('A' for Active; 'I' for Inactive)
REMARK    1  A    between atoms: C_2  and  C_3 
REMARK    2  A    between atoms: C_7  and  N_8 
REMARK       I    between atoms: N_8  and  C_9 
REMARK    3  A    between atoms: C_9  and  C_10 
ROOT
HETATM    1  N   UNL     1      40.766 -15.612   1.485  1.00  0.00    -0.309 N 
HETATM    2  C   UNL     1      42.064 -16.001   1.730  1.00  0.00     0.234 C 
HETATM    3  O   UNL     1      43.058 -15.629   1.118  1.00  0.00    -0.272 OA
HETATM    4  H   UNL     1      40.000 -16.106   1.923  1.00  0.00     0.170 HD
ENDROOT
BRANCH   2   5
HETATM    5  C   UNL     1      42.150 -16.995   2.876  1.00  0.00     0.138 C 
HETATM    6  C   UNL     1      42.885 -16.498   4.074  1.00  0.00    -0.008 A 
HETATM    7  C   UNL     1      43.741 -17.495   4.521  1.00  0.00     0.076 A 
HETATM    8  C   UNL     1      42.775 -15.303   4.769  1.00  0.00     0.030 A 
HETATM    9  C   UNL     1      44.511 -17.352   5.658  1.00  0.00     0.039 A 
HETATM   10  O   UNL     1      43.730 -18.624   3.746  1.00  0.00    -0.349 OA
HETATM   11  C   UNL     1      44.422 -16.150   6.361  1.00  0.00     0.022 A 
HETATM   12  C   UNL     1      43.560 -15.136   5.914  1.00  0.00     0.011 A 
HETATM   13 BR   UNL     1      43.451 -13.516   6.886  1.00  0.00    -0.051 Br
HETATM   14  C   UNL     1      43.038 -18.203   2.544  1.00  0.00     0.194 C 
ENDBRANCH   2   5
BRANCH   1  15
HETATM   15  C   UNL     1      40.305 -14.747   0.523  1.00  0.00     0.158 A 
HETATM   16  N   UNL     1      39.468 -15.276  -0.375  1.00  0.00    -0.156 NA
HETATM   17  N   UNL     1      39.216 -14.279  -1.228  1.00  0.00    -0.280 N 
HETATM   18  C   UNL     1      39.820 -13.103  -0.891  1.00  0.00     0.037 A 
HETATM   19  H   UNL     1      38.614 -14.466  -2.024  1.00  0.00     0.189 HD
HETATM   20  C   UNL     1      40.519 -13.358   0.280  1.00  0.00     0.010 A 
HETATM   21  C   UNL     1      41.281 -12.362   1.073  1.00  0.00     0.054 C 
BRANCH  18  22
HETATM   22  C   UNL     1      39.658 -11.873  -1.715  1.00  0.00     0.055 C 
HETATM   23  C   UNL     1      40.671 -11.814  -2.847  1.00  0.00     0.011 C 
ENDBRANCH  18  22
ENDBRANCH   1  15
TORSDOF 3
ENDMDL
MODEL 7
REMARK VINA RESULT:      -7.3      4.558      7.458
REMARK  3 active torsions:
REMARK  status: ('A' for Active; 'I' for Inactive)
REMARK    1  A    between atoms: C_2  and  C_3 
REMARK    2  A    between atoms: C_7  and  N_8 
REMARK       I    between atoms: N_8  and  C_9 
REMARK    3  A    between atoms: C_9  and  C_10 
ROOT
HETATM    1  N   UNL     1      42.495 -11.678   5.506  1.00  0.00    -0.309 N 
HETATM    2  C   UNL     1      42.890 -11.797   4.192  1.00  0.00     0.234 C 
HETATM    3  O   UNL     1      43.834 -11.220   3.665  1.00  0.00    -0.272 OA
HETATM    4  H   UNL     1      41.604 -12.053   5.801  1.00  0.00     0.170 HD
ENDROOT
BRANCH   2   5
HETATM    5  C   UNL     1      41.990 -12.743   3.415  1.00  0.00     0.138 C 
HETATM    6  C   UNL     1      42.514 -14.134   3.289  1.00  0.00    -0.008 A 
HETATM    7  C   UNL     1      42.343 -14.562   1.980  1.00  0.00     0.076 A 
HETATM    8  C   UNL     1      43.037 -14.991   4.245  1.00  0.00     0.030 A 
HETATM    9  C   UNL     1      42.675 -15.838   1.571  1.00  0.00     0.039 A 
HETATM   10  O   UNL     1      41.800 -13.614   1.154  1.00  0.00    -0.349 OA
HETATM   11  C   UNL     1      43.215 -16.708   2.519  1.00  0.00     0.022 A 
HETATM   12  C   UNL     1      43.394 -16.283   3.844  1.00  0.00     0.011 A 
HETATM   13 BR   UNL     1      44.122 -17.482   5.113  1.00  0.00    -0.051 Br
HETATM   14  C   UNL     1      41.910 -12.391   1.923  1.00  0.00     0.194 C 
ENDBRANCH   2   5
BRANCH   1  15
HETATM   15  C   UNL     1      43.054 -10.905   6.494  1.00  0.00     0.158 A 
HETATM   16  N   UNL     1      42.211 -10.083   7.128  1.00  0.00    -0.156 NA
HETATM   17  N   UNL     1      42.984  -9.402   7.979  1.00  0.00    -0.280 N 
HETATM   18  C   UNL     1      44.292  -9.785   7.960  1.00  0.00     0.037 A 
HETATM   19  H   UNL     1      42.551  -8.686   8.555  1.00  0.00     0.189 HD
HETATM   20  C   UNL     1      44.375 -10.802   7.019  1.00  0.00     0.010 A 
HETATM   21  C   UNL     1      45.591 -11.587   6.693  1.00  0.00     0.054 C 
BRANCH  18  22
HETATM   22  C   UNL     1      45.311  -9.146   8.840  1.00  0.00     0.055 C 
HETATM   23  C   UNL     1      45.304  -9.743  10.238  1.00  0.00     0.011 C 
ENDBRANCH  18  22
ENDBRANCH   1  15
TORSDOF 3
ENDMDL
MODEL 8
REMARK VINA RESULT:      -7.2      4.501      6.743
REMARK  3 active torsions:
REMARK  status: ('A' for Active; 'I' for Inactive)
REMARK    1  A    between atoms: C_2  and  C_3 
REMARK    2  A    between atoms: C_7  and  N_8 
REMARK       I    between atoms: N_8  and  C_9 
REMARK    3  A    between atoms: C_9  and  C_10 
ROOT
HETATM    1  N   UNL     1      43.246 -15.362   5.019  1.00  0.00    -0.309 N 
HETATM    2  C   UNL     1      42.497 -15.068   6.137  1.00  0.00     0.234 C 
HETATM    3  O   UNL     1      41.858 -15.868   6.810  1.00  0.00    -0.272 OA
HETATM    4  H   UNL     1      43.589 -14.614   4.432  1.00  0.00     0.170 HD
ENDROOT
BRANCH   2   5
HETATM    5  C   UNL     1      42.524 -13.584   6.461  1.00  0.00     0.138 C 
HETATM    6  C   UNL     1      42.014 -12.702   5.373  1.00  0.00    -0.008 A 
HETATM    7  C   UNL     1      42.876 -11.623   5.228  1.00  0.00     0.076 A 
HETATM    8  C   UNL     1      40.859 -12.785   4.610  1.00  0.00     0.030 A 
HETATM    9  C   UNL     1      42.632 -10.597   4.337  1.00  0.00     0.039 A 
HETATM   10  O   UNL     1      43.963 -11.668   6.059  1.00  0.00    -0.349 OA
HETATM   11  C   UNL     1      41.480 -10.674   3.553  1.00  0.00     0.022 A 
HETATM   12  C   UNL     1      40.605 -11.762   3.691  1.00  0.00     0.011 A 
HETATM   13 BR   UNL     1      39.046 -11.841   2.621  1.00  0.00    -0.051 Br
HETATM   14  C   UNL     1      43.951 -13.027   6.561  1.00  0.00     0.194 C 
ENDBRANCH   2   5
BRANCH   1  15
HETATM   15  C   UNL     1      43.438 -16.585   4.423  1.00  0.00     0.158 A 
HETATM   16  N   UNL     1      44.337 -17.378   5.013  1.00  0.00    -0.156 NA
HETATM   17  N   UNL     1      44.397 -18.459   4.229  1.00  0.00    -0.280 N 
HETATM   18  C   UNL     1      43.531 -18.420   3.176  1.00  0.00     0.037 A 
HETATM   19  H   UNL     1      45.050 -19.196   4.474  1.00  0.00     0.189 HD
HETATM   20  C   UNL     1      42.852 -17.216   3.287  1.00  0.00     0.010 A 
HETATM   21  C   UNL     1      41.752 -16.753   2.405  1.00  0.00     0.054 C 
BRANCH  18  22
HETATM   22  C   UNL     1      43.445 -19.533   2.188  1.00  0.00     0.055 C 
HETATM   23  C   UNL     1      43.810 -20.871   2.812  1.00  0.00     0.011 C 
ENDBRANCH  18  22
ENDBRANCH   1  15
TORSDOF 3
ENDMDL
MODEL 9
REMARK VINA RESULT:      -7.0     14.335     16.658
REMARK  3 active torsions:
REMARK  status: ('A' for Active; 'I' for Inactive)
REMARK    1  A    between atoms: C_2  and  C_3 
REMARK    2  A    between atoms: C_7  and  N_8 
REMARK       I    between atoms: N_8  and  C_9 
REMARK    3  A    between atoms: C_9  and  C_10 
ROOT
HETATM    1  N   UNL     1      46.263 -28.692   0.312  1.00  0.00    -0.309 N 
HETATM    2  C   UNL     1      45.000 -29.232   0.230  1.00  0.00     0.234 C 
HETATM    3  O   UNL     1      44.457 -29.936   1.075  1.00  0.00    -0.272 OA
HETATM    4  H   UNL     1      46.688 -28.276  -0.506  1.00  0.00     0.170 HD
ENDROOT
BRANCH   2   5
HETATM    5  C   UNL     1      44.313 -28.870  -1.076  1.00  0.00     0.138 C 
HETATM    6  C   UNL     1      44.360 -29.938  -2.117  1.00  0.00    -0.008 A 
HETATM    7  C   UNL     1      44.688 -29.362  -3.337  1.00  0.00     0.076 A 
HETATM    8  C   UNL     1      44.073 -31.292  -2.034  1.00  0.00     0.030 A 
HETATM    9  C   UNL     1      44.743 -30.093  -4.507  1.00  0.00     0.039 A 
HETATM   10  O   UNL     1      44.925 -28.015  -3.267  1.00  0.00    -0.349 OA
HETATM   11  C   UNL     1      44.471 -31.460  -4.437  1.00  0.00     0.022 A 
HETATM   12  C   UNL     1      44.141 -32.050  -3.207  1.00  0.00     0.011 A 
HETATM   13 BR   UNL     1      43.770 -33.904  -3.138  1.00  0.00    -0.051 Br
HETATM   14  C   UNL     1      45.052 -27.766  -1.846  1.00  0.00     0.194 C 
ENDBRANCH   2   5
BRANCH   1  15
HETATM   15  C   UNL     1      47.178 -28.820   1.330  1.00  0.00     0.158 A 
HETATM   16  N   UNL     1      47.466 -27.693   1.989  1.00  0.00    -0.156 NA
HETATM   17  N   UNL     1      48.408 -28.050   2.867  1.00  0.00    -0.280 N 
HETATM   18  C   UNL     1      48.708 -29.380   2.839  1.00  0.00     0.037 A 
HETATM   19  H   UNL     1      48.804 -27.333   3.467  1.00  0.00     0.189 HD
HETATM   20  C   UNL     1      47.892 -29.933   1.863  1.00  0.00     0.010 A 
HETATM   21  C   UNL     1      47.806 -31.372   1.512  1.00  0.00     0.054 C 
BRANCH  18  22
HETATM   22  C   UNL     1      49.731 -29.974   3.745  1.00  0.00     0.055 C 
HETATM   23  C   UNL     1      51.064 -30.169   3.041  1.00  0.00     0.011 C 
ENDBRANCH  18  22
ENDBRANCH   1  15
TORSDOF 3
ENDMDL
MODEL 10
REMARK VINA RESULT:      -6.9      4.901      7.511
REMARK  3 active torsions:
REMARK  status: ('A' for Active; 'I' for Inactive)
REMARK    1  A    between atoms: C_2  and  C_3 
REMARK    2  A    between atoms: C_7  and  N_8 
REMARK       I    between atoms: N_8  and  C_9 
REMARK    3  A    between atoms: C_9  and  C_10 
ROOT
HETATM    1  N   UNL     1      42.748 -14.720   4.643  1.00  0.00    -0.309 N 
HETATM    2  C   UNL     1      41.816 -14.171   5.495  1.00  0.00     0.234 C 
HETATM    3  O   UNL     1      41.219 -14.758   6.390  1.00  0.00    -0.272 OA
HETATM    4  H   UNL     1      43.052 -14.204   3.829  1.00  0.00     0.170 HD
ENDROOT
BRANCH   2   5
HETATM    5  C   UNL     1      41.573 -12.701   5.196  1.00  0.00     0.138 C 
HETATM    6  C   UNL     1      42.340 -11.757   6.059  1.00  0.00    -0.008 A 
HETATM    7  C   UNL     1      41.492 -10.740   6.476  1.00  0.00     0.076 A 
HETATM    8  C   UNL     1      43.683 -11.738   6.405  1.00  0.00     0.030 A 
HETATM    9  C   UNL     1      41.934  -9.677   7.238  1.00  0.00     0.039 A 
HETATM   10  O   UNL     1      40.201 -10.883   6.044  1.00  0.00    -0.349 OA
HETATM   11  C   UNL     1      43.280  -9.651   7.605  1.00  0.00     0.022 A 
HETATM   12  C   UNL     1      44.143 -10.677   7.190  1.00  0.00     0.011 A 
HETATM   13 BR   UNL     1      45.966 -10.618   7.694  1.00  0.00    -0.051 Br
HETATM   14  C   UNL     1      40.153 -12.250   5.566  1.00  0.00     0.194 C 
ENDBRANCH   2   5
BRANCH   1  15
HETATM   15  C   UNL     1      43.204 -16.016   4.604  1.00  0.00     0.158 A 
HETATM   16  N   UNL     1      44.003 -16.376   5.613  1.00  0.00    -0.156 NA
HETATM   17  N   UNL     1      44.363 -17.630   5.324  1.00  0.00    -0.280 N 
HETATM   18  C   UNL     1      43.787 -18.118   4.189  1.00  0.00     0.037 A 
HETATM   19  H   UNL     1      45.006 -18.103   5.951  1.00  0.00     0.189 HD
HETATM   20  C   UNL     1      42.984 -17.097   3.701  1.00  0.00     0.010 A 
HETATM   21  C   UNL     1      42.097 -17.179   2.514  1.00  0.00     0.054 C 
BRANCH  18  22
HETATM   22  C   UNL     1      44.061 -19.499   3.700  1.00  0.00     0.055 C 
HETATM   23  C   UNL     1      44.160 -20.494   4.845  1.00  0.00     0.011 C 
ENDBRANCH  18  22
ENDBRANCH   1  15
TORSDOF 3
ENDMDL
