MODEL 1
REMARK VINA RESULT:      -7.4      0.000      0.000
REMARK  10 active torsions:
REMARK  status: ('A' for Active; 'I' for Inactive)
REMARK    1  A    between atoms: C_2  and  C_3 
REMARK    2  A    between atoms: C_3  and  C_4 
REMARK    3  A    between atoms: C_4  and  N_5 
REMARK    4  A    between atoms: N_5  and  C_7 
REMARK    5  A    between atoms: C_7  and  C_8 
REMARK    6  A    between atoms: C_8  and  C_9 
REMARK    7  A    between atoms: C_9  and  N_10 
REMARK       I    between atoms: N_10  and  C_11 
REMARK    8  A    between atoms: C_11  and  C_12 
REMARK    9  A    between atoms: C_12  and  O_13 
REMARK   10  A    between atoms: N_14  and  C_15 
ROOT
HETATM    1  C   UNL     1      42.614 -13.946   5.140  1.00  0.00     0.256 C 
HETATM    2  N   UNL     1      43.406 -12.722   4.918  1.00  0.00    -0.254 N 
HETATM    3  C   UNL     1      43.599 -12.299   3.606  1.00  0.00     0.330 C 
HETATM    4  O   UNL     1      43.768 -11.129   3.257  1.00  0.00    -0.246 OA
HETATM    5  N   UNL     1      43.534 -13.241   2.623  1.00  0.00    -0.308 N 
HETATM    6  C   UNL     1      43.286 -14.589   2.824  1.00  0.00     0.048 A 
HETATM    7  C   UNL     1      42.856 -15.006   4.078  1.00  0.00     0.034 A 
HETATM    8  C   UNL     1      43.451 -15.491   1.771  1.00  0.00     0.030 A 
HETATM    9  C   UNL     1      43.192 -16.844   1.976  1.00  0.00     0.002 A 
HETATM   10  C   UNL     1      42.761 -17.285   3.224  1.00  0.00     0.001 A 
HETATM   11  C   UNL     1      42.587 -16.372   4.267  1.00  0.00     0.015 A 
HETATM   12  H   UNL     1      43.815 -12.915   1.706  1.00  0.00     0.170 HD
ENDROOT
BRANCH   1  13
HETATM   13  C   UNL     1      41.062 -13.589   5.163  1.00  0.00     0.279 C 
HETATM   14  N   UNL     1      40.588 -12.781   4.134  1.00  0.00    -0.356 N 
HETATM   15  H   UNL     1      41.298 -12.173   3.730  1.00  0.00     0.162 HD
HETATM   16  O   UNL     1      40.313 -14.026   6.039  1.00  0.00    -0.268 OA
BRANCH  14  17
HETATM   17  C   UNL     1      39.224 -12.299   4.157  1.00  0.00     0.124 C 
BRANCH  17  18
HETATM   18  C   UNL     1      38.790 -11.765   2.795  1.00  0.00     0.047 C 
BRANCH  18  19
HETATM   19  C   UNL     1      39.980 -11.630   1.849  1.00  0.00     0.236 C 
BRANCH  19  20
HETATM   20  N   UNL     1      39.577 -11.654   0.383  1.00  0.00    -0.075 N 
HETATM   21  H   UNL     1      38.607 -11.313   0.367  1.00  0.00     0.279 HD
HETATM   22  C   UNL     1      40.342 -10.653  -0.447  1.00  0.00     0.269 C 
BRANCH  20  23
HETATM   23  C   UNL     1      39.551 -13.014  -0.284  1.00  0.00     0.234 C 
BRANCH  23  24
HETATM   24  C   UNL     1      40.548 -14.000   0.322  1.00  0.00     0.027 C 
BRANCH  24  25
HETATM   25  C   UNL     1      39.950 -15.376   0.615  1.00  0.00    -0.003 C 
HETATM   26  C   UNL     1      39.679 -15.560   2.101  1.00  0.00     0.005 C 
ENDBRANCH  24  25
ENDBRANCH  23  24
ENDBRANCH  20  23
ENDBRANCH  19  20
ENDBRANCH  18  19
ENDBRANCH  17  18
ENDBRANCH  14  17
ENDBRANCH   1  13
BRANCH   1  27
HETATM   27  O   UNL     1      42.989 -14.536   6.385  1.00  0.00    -0.359 OA
HETATM   28  H   UNL     1      42.828 -15.491   6.289  1.00  0.00     0.213 HD
ENDBRANCH   1  27
BRANCH   2  29
HETATM   29  C   UNL     1      43.751 -11.840   6.014  1.00  0.00     0.042 A 
HETATM   30  C   UNL     1      42.825 -10.974   6.617  1.00  0.00     0.030 A 
HETATM   31  C   UNL     1      43.193 -10.135   7.676  1.00  0.00     0.002 A 
HETATM   32  C   UNL     1      44.495 -10.151   8.164  1.00  0.00     0.000 A 
HETATM   33  C   UNL     1      45.427 -11.007   7.593  1.00  0.00     0.002 A 
HETATM   34  C   UNL     1      45.059 -11.840   6.532  1.00  0.00     0.030 A 
ENDBRANCH   2  29
TORSDOF 10
ENDMDL
MODEL 2
REMARK VINA RESULT:      -7.1      2.116      5.421
REMARK  10 active torsions:
REMARK  status: ('A' for Active; 'I' for Inactive)
REMARK    1  A    between atoms: C_2  and  C_3 
REMARK    2  A    between atoms: C_3  and  C_4 
REMARK    3  A    between atoms: C_4  and  N_5 
REMARK    4  A    between atoms: N_5  and  C_7 
REMARK    5  A    between atoms: C_7  and  C_8 
REMARK    6  A    between atoms: C_8  and  C_9 
REMARK    7  A    between atoms: C_9  and  N_10 
REMARK       I    between atoms: N_10  and  C_11 
REMARK    8  A    between atoms: C_11  and  C_12 
REMARK    9  A    between atoms: C_12  and  O_13 
REMARK   10  A    between atoms: N_14  and  C_15 
ROOT
HETATM    1  C   UNL     1      42.412 -14.561   2.954  1.00  0.00     0.256 C 
HETATM    2  N   UNL     1      42.406 -15.670   3.926  1.00  0.00    -0.254 N 
HETATM    3  C   UNL     1      41.672 -15.507   5.097  1.00  0.00     0.330 C 
HETATM    4  O   UNL     1      41.154 -16.422   5.743  1.00  0.00    -0.246 OA
HETATM    5  N   UNL     1      41.454 -14.235   5.535  1.00  0.00    -0.308 N 
HETATM    6  C   UNL     1      41.902 -13.085   4.902  1.00  0.00     0.048 A 
HETATM    7  C   UNL     1      42.425 -13.195   3.619  1.00  0.00     0.034 A 
HETATM    8  C   UNL     1      41.802 -11.852   5.548  1.00  0.00     0.030 A 
HETATM    9  C   UNL     1      42.246 -10.699   4.904  1.00  0.00     0.002 A 
HETATM   10  C   UNL     1      42.774 -10.784   3.620  1.00  0.00     0.001 A 
HETATM   11  C   UNL     1      42.858 -12.022   2.977  1.00  0.00     0.015 A 
HETATM   12  H   UNL     1      41.038 -14.169   6.456  1.00  0.00     0.170 HD
ENDROOT
BRANCH   1  13
HETATM   13  C   UNL     1      41.130 -14.660   2.014  1.00  0.00     0.279 C 
HETATM   14  N   UNL     1      41.343 -14.525   0.645  1.00  0.00    -0.356 N 
HETATM   15  H   UNL     1      42.171 -13.980   0.411  1.00  0.00     0.162 HD
HETATM   16  O   UNL     1      40.006 -14.867   2.475  1.00  0.00    -0.268 OA
BRANCH  14  17
HETATM   17  C   UNL     1      40.219 -14.465  -0.264  1.00  0.00     0.124 C 
BRANCH  17  18
HETATM   18  C   UNL     1      40.260 -13.209  -1.130  1.00  0.00     0.047 C 
BRANCH  18  19
HETATM   19  C   UNL     1      40.263 -11.945  -0.274  1.00  0.00     0.236 C 
BRANCH  19  20
HETATM   20  N   UNL     1      38.868 -11.395  -0.025  1.00  0.00    -0.075 N 
HETATM   21  H   UNL     1      38.971 -10.373  -0.079  1.00  0.00     0.279 HD
HETATM   22  C   UNL     1      37.902 -11.734  -1.133  1.00  0.00     0.269 C 
BRANCH  20  23
HETATM   23  C   UNL     1      38.265 -11.682   1.335  1.00  0.00     0.234 C 
BRANCH  23  24
HETATM   24  C   UNL     1      39.222 -11.392   2.490  1.00  0.00     0.027 C 
BRANCH  24  25
HETATM   25  C   UNL     1      39.029 -10.009   3.113  1.00  0.00    -0.003 C 
HETATM   26  C   UNL     1      38.622 -10.109   4.576  1.00  0.00     0.005 C 
ENDBRANCH  24  25
ENDBRANCH  23  24
ENDBRANCH  20  23
ENDBRANCH  19  20
ENDBRANCH  18  19
ENDBRANCH  17  18
ENDBRANCH  14  17
ENDBRANCH   1  13
BRANCH   1  27
HETATM   27  O   UNL     1      43.597 -14.631   2.161  1.00  0.00    -0.359 OA
HETATM   28  H   UNL     1      43.978 -13.735   2.170  1.00  0.00     0.213 HD
ENDBRANCH   1  27
BRANCH   2  29
HETATM   29  C   UNL     1      42.916 -16.980   3.576  1.00  0.00     0.042 A 
HETATM   30  C   UNL     1      42.449 -17.711   2.473  1.00  0.00     0.030 A 
HETATM   31  C   UNL     1      42.966 -18.975   2.163  1.00  0.00     0.002 A 
HETATM   32  C   UNL     1      43.971 -19.533   2.945  1.00  0.00     0.000 A 
HETATM   33  C   UNL     1      44.460 -18.825   4.035  1.00  0.00     0.002 A 
HETATM   34  C   UNL     1      43.938 -17.565   4.346  1.00  0.00     0.030 A 
ENDBRANCH   2  29
TORSDOF 10
ENDMDL
MODEL 3
REMARK VINA RESULT:      -6.9      2.262      6.563
REMARK  10 active torsions:
REMARK  status: ('A' for Active; 'I' for Inactive)
REMARK    1  A    between atoms: C_2  and  C_3 
REMARK    2  A    between atoms: C_3  and  C_4 
REMARK    3  A    between atoms: C_4  and  N_5 
REMARK    4  A    between atoms: N_5  and  C_7 
REMARK    5  A    between atoms: C_7  and  C_8 
REMARK    6  A    between atoms: C_8  and  C_9 
REMARK    7  A    between atoms: C_9  and  N_10 
REMARK       I    between atoms: N_10  and  C_11 
REMARK    8  A    between atoms: C_11  and  C_12 
REMARK    9  A    between atoms: C_12  and  O_13 
REMARK   10  A    between atoms: N_14  and  C_15 
ROOT
HETATM    1  C   UNL     1      40.385 -12.814   5.222  1.00  0.00     0.256 C 
HETATM    2  N   UNL     1      41.212 -12.893   4.004  1.00  0.00    -0.254 N 
HETATM    3  C   UNL     1      42.491 -12.343   4.048  1.00  0.00     0.330 C 
HETATM    4  O   UNL     1      43.450 -12.726   3.374  1.00  0.00    -0.246 OA
HETATM    5  N   UNL     1      42.719 -11.346   4.948  1.00  0.00    -0.308 N 
HETATM    6  C   UNL     1      41.780 -10.836   5.831  1.00  0.00     0.048 A 
HETATM    7  C   UNL     1      40.575 -11.512   5.982  1.00  0.00     0.034 A 
HETATM    8  C   UNL     1      42.064  -9.678   6.557  1.00  0.00     0.030 A 
HETATM    9  C   UNL     1      41.120  -9.175   7.448  1.00  0.00     0.002 A 
HETATM   10  C   UNL     1      39.906  -9.834   7.616  1.00  0.00     0.001 A 
HETATM   11  C   UNL     1      39.636 -10.999   6.893  1.00  0.00     0.015 A 
HETATM   12  H   UNL     1      43.616 -10.886   4.851  1.00  0.00     0.170 HD
ENDROOT
BRANCH   1  13
HETATM   13  C   UNL     1      40.734 -14.028   6.192  1.00  0.00     0.279 C 
HETATM   14  N   UNL     1      42.063 -14.158   6.584  1.00  0.00    -0.356 N 
HETATM   15  H   UNL     1      42.726 -13.760   5.922  1.00  0.00     0.162 HD
HETATM   16  O   UNL     1      39.864 -14.804   6.593  1.00  0.00    -0.268 OA
BRANCH  14  17
HETATM   17  C   UNL     1      42.486 -15.310   7.350  1.00  0.00     0.124 C 
BRANCH  17  18
HETATM   18  C   UNL     1      43.604 -16.075   6.648  1.00  0.00     0.047 C 
BRANCH  18  19
HETATM   19  C   UNL     1      43.044 -17.177   5.753  1.00  0.00     0.236 C 
BRANCH  19  20
HETATM   20  N   UNL     1      43.972 -18.376   5.637  1.00  0.00    -0.075 N 
HETATM   21  H   UNL     1      44.809 -18.118   6.175  1.00  0.00     0.279 HD
HETATM   22  C   UNL     1      43.434 -19.598   6.341  1.00  0.00     0.269 C 
BRANCH  20  23
HETATM   23  C   UNL     1      44.460 -18.715   4.243  1.00  0.00     0.234 C 
BRANCH  23  24
HETATM   24  C   UNL     1      43.711 -17.963   3.145  1.00  0.00     0.027 C 
BRANCH  24  25
HETATM   25  C   UNL     1      42.823 -18.860   2.283  1.00  0.00    -0.003 C 
HETATM   26  C   UNL     1      43.523 -20.163   1.930  1.00  0.00     0.005 C 
ENDBRANCH  24  25
ENDBRANCH  23  24
ENDBRANCH  20  23
ENDBRANCH  19  20
ENDBRANCH  18  19
ENDBRANCH  17  18
ENDBRANCH  14  17
ENDBRANCH   1  13
BRANCH   1  27
HETATM   27  O   UNL     1      39.004 -12.869   4.863  1.00  0.00    -0.359 OA
HETATM   28  H   UNL     1      38.817 -13.802   4.661  1.00  0.00     0.213 HD
ENDBRANCH   1  27
BRANCH   2  29
HETATM   29  C   UNL     1      40.831 -13.733   2.888  1.00  0.00     0.042 A 
HETATM   30  C   UNL     1      40.851 -15.136   2.947  1.00  0.00     0.030 A 
HETATM   31  C   UNL     1      40.474 -15.917   1.848  1.00  0.00     0.002 A 
HETATM   32  C   UNL     1      40.059 -15.314   0.667  1.00  0.00     0.000 A 
HETATM   33  C   UNL     1      40.018 -13.928   0.586  1.00  0.00     0.002 A 
HETATM   34  C   UNL     1      40.400 -13.150   1.682  1.00  0.00     0.030 A 
ENDBRANCH   2  29
TORSDOF 10
ENDMDL
MODEL 4
REMARK VINA RESULT:      -6.9      2.502      5.609
REMARK  10 active torsions:
REMARK  status: ('A' for Active; 'I' for Inactive)
REMARK    1  A    between atoms: C_2  and  C_3 
REMARK    2  A    between atoms: C_3  and  C_4 
REMARK    3  A    between atoms: C_4  and  N_5 
REMARK    4  A    between atoms: N_5  and  C_7 
REMARK    5  A    between atoms: C_7  and  C_8 
REMARK    6  A    between atoms: C_8  and  C_9 
REMARK    7  A    between atoms: C_9  and  N_10 
REMARK       I    between atoms: N_10  and  C_11 
REMARK    8  A    between atoms: C_11  and  C_12 
REMARK    9  A    between atoms: C_12  and  O_13 
REMARK   10  A    between atoms: N_14  and  C_15 
ROOT
HETATM    1  C   UNL     1      42.172 -14.342   2.948  1.00  0.00     0.256 C 
HETATM    2  N   UNL     1      42.141 -15.466   3.904  1.00  0.00    -0.254 N 
HETATM    3  C   UNL     1      41.307 -15.356   5.012  1.00  0.00     0.330 C 
HETATM    4  O   UNL     1      40.783 -16.304   5.602  1.00  0.00    -0.246 OA
HETATM    5  N   UNL     1      40.993 -14.102   5.445  1.00  0.00    -0.308 N 
HETATM    6  C   UNL     1      41.434 -12.923   4.865  1.00  0.00     0.048 A 
HETATM    7  C   UNL     1      42.065 -12.988   3.628  1.00  0.00     0.034 A 
HETATM    8  C   UNL     1      41.223 -11.706   5.515  1.00  0.00     0.030 A 
HETATM    9  C   UNL     1      41.661 -10.524   4.924  1.00  0.00     0.002 A 
HETATM   10  C   UNL     1      42.296 -10.563   3.685  1.00  0.00     0.001 A 
HETATM   11  C   UNL     1      42.491 -11.785   3.038  1.00  0.00     0.015 A 
HETATM   12  H   UNL     1      40.501 -14.071   6.330  1.00  0.00     0.170 HD
ENDROOT
BRANCH   1  13
HETATM   13  C   UNL     1      40.978 -14.487   1.905  1.00  0.00     0.279 C 
HETATM   14  N   UNL     1      41.320 -14.501   0.556  1.00  0.00    -0.356 N 
HETATM   15  H   UNL     1      42.191 -14.016   0.349  1.00  0.00     0.162 HD
HETATM   16  O   UNL     1      39.808 -14.602   2.275  1.00  0.00    -0.268 OA
BRANCH  14  17
HETATM   17  C   UNL     1      40.287 -14.491  -0.457  1.00  0.00     0.124 C 
BRANCH  17  18
HETATM   18  C   UNL     1      40.188 -13.134  -1.149  1.00  0.00     0.047 C 
BRANCH  18  19
HETATM   19  C   UNL     1      40.076 -13.293  -2.663  1.00  0.00     0.236 C 
BRANCH  19  20
HETATM   20  N   UNL     1      38.637 -13.336  -3.150  1.00  0.00    -0.075 N 
HETATM   21  H   UNL     1      38.632 -12.789  -4.020  1.00  0.00     0.279 HD
HETATM   22  C   UNL     1      38.207 -14.719  -3.574  1.00  0.00     0.269 C 
BRANCH  20  23
HETATM   23  C   UNL     1      37.603 -12.694  -2.247  1.00  0.00     0.234 C 
BRANCH  23  24
HETATM   24  C   UNL     1      37.330 -11.231  -2.593  1.00  0.00     0.027 C 
BRANCH  24  25
HETATM   25  C   UNL     1      37.488 -10.280  -1.406  1.00  0.00    -0.003 C 
HETATM   26  C   UNL     1      37.272 -11.001  -0.083  1.00  0.00     0.005 C 
ENDBRANCH  24  25
ENDBRANCH  23  24
ENDBRANCH  20  23
ENDBRANCH  19  20
ENDBRANCH  18  19
ENDBRANCH  17  18
ENDBRANCH  14  17
ENDBRANCH   1  13
BRANCH   1  27
HETATM   27  O   UNL     1      43.419 -14.344   2.254  1.00  0.00    -0.359 OA
HETATM   28  H   UNL     1      43.220 -14.634   1.347  1.00  0.00     0.213 HD
ENDBRANCH   1  27
BRANCH   2  29
HETATM   29  C   UNL     1      42.740 -16.744   3.581  1.00  0.00     0.042 A 
HETATM   30  C   UNL     1      42.332 -17.525   2.489  1.00  0.00     0.030 A 
HETATM   31  C   UNL     1      42.935 -18.757   2.206  1.00  0.00     0.002 A 
HETATM   32  C   UNL     1      43.970 -19.231   3.004  1.00  0.00     0.000 A 
HETATM   33  C   UNL     1      44.402 -18.472   4.084  1.00  0.00     0.002 A 
HETATM   34  C   UNL     1      43.794 -17.245   4.367  1.00  0.00     0.030 A 
ENDBRANCH   2  29
TORSDOF 10
ENDMDL
MODEL 5
REMARK VINA RESULT:      -6.9      2.367      5.714
REMARK  10 active torsions:
REMARK  status: ('A' for Active; 'I' for Inactive)
REMARK    1  A    between atoms: C_2  and  C_3 
REMARK    2  A    between atoms: C_3  and  C_4 
REMARK    3  A    between atoms: C_4  and  N_5 
REMARK    4  A    between atoms: N_5  and  C_7 
REMARK    5  A    between atoms: C_7  and  C_8 
REMARK    6  A    between atoms: C_8  and  C_9 
REMARK    7  A    between atoms: C_9  and  N_10 
REMARK       I    between atoms: N_10  and  C_11 
REMARK    8  A    between atoms: C_11  and  C_12 
REMARK    9  A    between atoms: C_12  and  O_13 
REMARK   10  A    between atoms: N_14  and  C_15 
ROOT
HETATM    1  C   UNL     1      42.390 -14.653   2.932  1.00  0.00     0.256 C 
HETATM    2  N   UNL     1      42.414 -15.752   3.915  1.00  0.00    -0.254 N 
HETATM    3  C   UNL     1      41.700 -15.583   5.098  1.00  0.00     0.330 C 
HETATM    4  O   UNL     1      41.205 -16.497   5.763  1.00  0.00    -0.246 OA
HETATM    5  N   UNL     1      41.477 -14.309   5.526  1.00  0.00    -0.308 N 
HETATM    6  C   UNL     1      41.900 -13.162   4.873  1.00  0.00     0.048 A 
HETATM    7  C   UNL     1      42.401 -13.279   3.582  1.00  0.00     0.034 A 
HETATM    8  C   UNL     1      41.799 -11.922   5.508  1.00  0.00     0.030 A 
HETATM    9  C   UNL     1      42.219 -10.773   4.843  1.00  0.00     0.002 A 
HETATM   10  C   UNL     1      42.724 -10.865   3.550  1.00  0.00     0.001 A 
HETATM   11  C   UNL     1      42.809 -12.109   2.919  1.00  0.00     0.015 A 
HETATM   12  H   UNL     1      41.078 -14.237   6.454  1.00  0.00     0.170 HD
ENDROOT
BRANCH   1  13
HETATM   13  C   UNL     1      41.092 -14.775   2.016  1.00  0.00     0.279 C 
HETATM   14  N   UNL     1      41.267 -14.583   0.649  1.00  0.00    -0.356 N 
HETATM   15  H   UNL     1      42.065 -13.995   0.416  1.00  0.00     0.162 HD
HETATM   16  O   UNL     1      39.989 -15.048   2.494  1.00  0.00    -0.268 OA
BRANCH  14  17
HETATM   17  C   UNL     1      40.120 -14.542  -0.232  1.00  0.00     0.124 C 
BRANCH  17  18
HETATM   18  C   UNL     1      39.728 -13.109  -0.581  1.00  0.00     0.047 C 
BRANCH  18  19
HETATM   19  C   UNL     1      40.927 -12.168  -0.490  1.00  0.00     0.236 C 
BRANCH  19  20
HETATM   20  N   UNL     1      41.151 -11.368  -1.763  1.00  0.00    -0.075 N 
HETATM   21  H   UNL     1      42.107 -10.999  -1.681  1.00  0.00     0.279 HD
HETATM   22  C   UNL     1      41.186 -12.235  -2.997  1.00  0.00     0.269 C 
BRANCH  20  23
HETATM   23  C   UNL     1      40.254 -10.163  -1.964  1.00  0.00     0.234 C 
BRANCH  23  24
HETATM   24  C   UNL     1      40.901  -8.852  -1.521  1.00  0.00     0.027 C 
BRANCH  24  25
HETATM   25  C   UNL     1      42.404  -8.966  -1.263  1.00  0.00    -0.003 C 
HETATM   26  C   UNL     1      43.152  -7.746  -1.781  1.00  0.00     0.005 C 
ENDBRANCH  24  25
ENDBRANCH  23  24
ENDBRANCH  20  23
ENDBRANCH  19  20
ENDBRANCH  18  19
ENDBRANCH  17  18
ENDBRANCH  14  17
ENDBRANCH   1  13
BRANCH   1  27
HETATM   27  O   UNL     1      43.560 -14.719   2.117  1.00  0.00    -0.359 OA
HETATM   28  H   UNL     1      44.233 -15.177   2.651  1.00  0.00     0.213 HD
ENDBRANCH   1  27
BRANCH   2  29
HETATM   29  C   UNL     1      42.931 -17.060   3.570  1.00  0.00     0.042 A 
HETATM   30  C   UNL     1      42.467 -17.798   2.470  1.00  0.00     0.030 A 
HETATM   31  C   UNL     1      42.992 -19.060   2.165  1.00  0.00     0.002 A 
HETATM   32  C   UNL     1      44.002 -19.608   2.947  1.00  0.00     0.000 A 
HETATM   33  C   UNL     1      44.487 -18.893   4.034  1.00  0.00     0.002 A 
HETATM   34  C   UNL     1      43.958 -17.636   4.340  1.00  0.00     0.030 A 
ENDBRANCH   2  29
TORSDOF 10
ENDMDL
MODEL 6
REMARK VINA RESULT:      -6.6      2.208      4.810
REMARK  10 active torsions:
REMARK  status: ('A' for Active; 'I' for Inactive)
REMARK    1  A    between atoms: C_2  and  C_3 
REMARK    2  A    between atoms: C_3  and  C_4 
REMARK    3  A    between atoms: C_4  and  N_5 
REMARK    4  A    between atoms: N_5  and  C_7 
REMARK    5  A    between atoms: C_7  and  C_8 
REMARK    6  A    between atoms: C_8  and  C_9 
REMARK    7  A    between atoms: C_9  and  N_10 
REMARK       I    between atoms: N_10  and  C_11 
REMARK    8  A    between atoms: C_11  and  C_12 
REMARK    9  A    between atoms: C_12  and  O_13 
REMARK   10  A    between atoms: N_14  and  C_15 
ROOT
HETATM    1  C   UNL     1      42.842 -13.923   5.295  1.00  0.00     0.256 C 
HETATM    2  N   UNL     1      43.526 -12.650   5.002  1.00  0.00    -0.254 N 
HETATM    3  C   UNL     1      43.493 -12.179   3.693  1.00  0.00     0.330 C 
HETATM    4  O   UNL     1      43.547 -10.991   3.365  1.00  0.00    -0.246 OA
HETATM    5  N   UNL     1      43.328 -13.094   2.696  1.00  0.00    -0.308 N 
HETATM    6  C   UNL     1      43.184 -14.460   2.882  1.00  0.00     0.048 A 
HETATM    7  C   UNL     1      42.973 -14.936   4.170  1.00  0.00     0.034 A 
HETATM    8  C   UNL     1      43.233 -15.320   1.783  1.00  0.00     0.030 A 
HETATM    9  C   UNL     1      43.079 -16.691   1.975  1.00  0.00     0.002 A 
HETATM   10  C   UNL     1      42.868 -17.192   3.256  1.00  0.00     0.001 A 
HETATM   11  C   UNL     1      42.808 -16.320   4.347  1.00  0.00     0.015 A 
HETATM   12  H   UNL     1      43.448 -12.726   1.760  1.00  0.00     0.170 HD
ENDROOT
BRANCH   1  13
HETATM   13  C   UNL     1      41.295 -13.656   5.565  1.00  0.00     0.279 C 
HETATM   14  N   UNL     1      40.680 -12.681   4.786  1.00  0.00    -0.356 N 
HETATM   15  H   UNL     1      41.320 -11.969   4.438  1.00  0.00     0.162 HD
HETATM   16  O   UNL     1      40.668 -14.297   6.411  1.00  0.00    -0.268 OA
BRANCH  14  17
HETATM   17  C   UNL     1      39.316 -12.283   5.061  1.00  0.00     0.124 C 
BRANCH  17  18
HETATM   18  C   UNL     1      39.243 -10.858   5.602  1.00  0.00     0.047 C 
BRANCH  18  19
HETATM   19  C   UNL     1      39.210 -10.846   7.128  1.00  0.00     0.236 C 
BRANCH  19  20
HETATM   20  N   UNL     1      39.679  -9.527   7.721  1.00  0.00    -0.075 N 
HETATM   21  H   UNL     1      40.706  -9.581   7.713  1.00  0.00     0.279 HD
HETATM   22  C   UNL     1      39.358  -8.346   6.839  1.00  0.00     0.269 C 
BRANCH  20  23
HETATM   23  C   UNL     1      39.287  -9.260   9.160  1.00  0.00     0.234 C 
BRANCH  23  24
HETATM   24  C   UNL     1      40.443  -9.441  10.141  1.00  0.00     0.027 C 
BRANCH  24  25
HETATM   25  C   UNL     1      40.000  -9.891  11.534  1.00  0.00    -0.003 C 
HETATM   26  C   UNL     1      41.168  -9.910  12.510  1.00  0.00     0.005 C 
ENDBRANCH  24  25
ENDBRANCH  23  24
ENDBRANCH  20  23
ENDBRANCH  19  20
ENDBRANCH  18  19
ENDBRANCH  17  18
ENDBRANCH  14  17
ENDBRANCH   1  13
BRANCH   1  27
HETATM   27  O   UNL     1      43.433 -14.526   6.447  1.00  0.00    -0.359 OA
HETATM   28  H   UNL     1      42.694 -14.876   6.974  1.00  0.00     0.213 HD
ENDBRANCH   1  27
BRANCH   2  29
HETATM   29  C   UNL     1      43.987 -11.781   6.065  1.00  0.00     0.042 A 
HETATM   30  C   UNL     1      45.341 -11.659   6.417  1.00  0.00     0.030 A 
HETATM   31  C   UNL     1      45.751 -10.808   7.451  1.00  0.00     0.002 A 
HETATM   32  C   UNL     1      44.817 -10.050   8.149  1.00  0.00     0.000 A 
HETATM   33  C   UNL     1      43.474 -10.143   7.812  1.00  0.00     0.002 A 
HETATM   34  C   UNL     1      43.066 -10.998   6.784  1.00  0.00     0.030 A 
ENDBRANCH   2  29
TORSDOF 10
ENDMDL
MODEL 7
REMARK VINA RESULT:      -6.5      2.678      6.950
REMARK  10 active torsions:
REMARK  status: ('A' for Active; 'I' for Inactive)
REMARK    1  A    between atoms: C_2  and  C_3 
REMARK    2  A    between atoms: C_3  and  C_4 
REMARK    3  A    between atoms: C_4  and  N_5 
REMARK    4  A    between atoms: N_5  and  C_7 
REMARK    5  A    between atoms: C_7  and  C_8 
REMARK    6  A    between atoms: C_8  and  C_9 
REMARK    7  A    between atoms: C_9  and  N_10 
REMARK       I    between atoms: N_10  and  C_11 
REMARK    8  A    between atoms: C_11  and  C_12 
REMARK    9  A    between atoms: C_12  and  O_13 
REMARK   10  A    between atoms: N_14  and  C_15 
ROOT
HETATM    1  C   UNL     1      39.856 -12.878   3.118  1.00  0.00     0.256 C 
HETATM    2  N   UNL     1      40.189 -12.204   1.848  1.00  0.00    -0.254 N 
HETATM    3  C   UNL     1      41.179 -11.226   1.870  1.00  0.00     0.330 C 
HETATM    4  O   UNL     1      41.909 -10.936   0.920  1.00  0.00    -0.246 OA
HETATM    5  N   UNL     1      41.402 -10.579   3.049  1.00  0.00    -0.308 N 
HETATM    6  C   UNL     1      40.725 -10.821   4.234  1.00  0.00     0.048 A 
HETATM    7  C   UNL     1      39.906 -11.942   4.313  1.00  0.00     0.034 A 
HETATM    8  C   UNL     1      40.890  -9.958   5.318  1.00  0.00     0.030 A 
HETATM    9  C   UNL     1      40.213 -10.211   6.509  1.00  0.00     0.002 A 
HETATM   10  C   UNL     1      39.387 -11.327   6.613  1.00  0.00     0.001 A 
HETATM   11  C   UNL     1      39.239 -12.191   5.525  1.00  0.00     0.015 A 
HETATM   12  H   UNL     1      42.029  -9.786   2.985  1.00  0.00     0.170 HD
ENDROOT
BRANCH   1  13
HETATM   13  C   UNL     1      40.864 -14.085   3.370  1.00  0.00     0.279 C 
HETATM   14  N   UNL     1      40.338 -15.371   3.291  1.00  0.00    -0.356 N 
HETATM   15  H   UNL     1      39.342 -15.420   3.496  1.00  0.00     0.162 HD
HETATM   16  O   UNL     1      42.058 -13.889   3.604  1.00  0.00    -0.268 OA
BRANCH  14  17
HETATM   17  C   UNL     1      41.154 -16.513   3.641  1.00  0.00     0.124 C 
BRANCH  17  18
HETATM   18  C   UNL     1      41.985 -16.998   2.456  1.00  0.00     0.047 C 
BRANCH  18  19
HETATM   19  C   UNL     1      43.435 -17.245   2.861  1.00  0.00     0.236 C 
BRANCH  19  20
HETATM   20  N   UNL     1      43.569 -17.834   4.257  1.00  0.00    -0.075 N 
HETATM   21  H   UNL     1      42.604 -17.952   4.590  1.00  0.00     0.279 HD
HETATM   22  C   UNL     1      44.137 -19.232   4.246  1.00  0.00     0.269 C 
BRANCH  20  23
HETATM   23  C   UNL     1      44.264 -16.968   5.287  1.00  0.00     0.234 C 
BRANCH  23  24
HETATM   24  C   UNL     1      43.752 -17.196   6.708  1.00  0.00     0.027 C 
BRANCH  24  25
HETATM   25  C   UNL     1      43.242 -15.925   7.388  1.00  0.00    -0.003 C 
HETATM   26  C   UNL     1      41.783 -15.659   7.048  1.00  0.00     0.005 C 
ENDBRANCH  24  25
ENDBRANCH  23  24
ENDBRANCH  20  23
ENDBRANCH  19  20
ENDBRANCH  18  19
ENDBRANCH  17  18
ENDBRANCH  14  17
ENDBRANCH   1  13
BRANCH   1  27
HETATM   27  O   UNL     1      38.519 -13.375   3.055  1.00  0.00    -0.359 OA
HETATM   28  H   UNL     1      38.544 -14.263   3.453  1.00  0.00     0.213 HD
ENDBRANCH   1  27
BRANCH   2  29
HETATM   29  C   UNL     1      39.708 -12.710   0.580  1.00  0.00     0.042 A 
HETATM   30  C   UNL     1      40.187 -13.895  -0.001  1.00  0.00     0.030 A 
HETATM   31  C   UNL     1      39.698 -14.355  -1.230  1.00  0.00     0.002 A 
HETATM   32  C   UNL     1      38.710 -13.645  -1.902  1.00  0.00     0.000 A 
HETATM   33  C   UNL     1      38.210 -12.476  -1.344  1.00  0.00     0.002 A 
HETATM   34  C   UNL     1      38.704 -12.016  -0.119  1.00  0.00     0.030 A 
ENDBRANCH   2  29
TORSDOF 10
ENDMDL
MODEL 8
REMARK VINA RESULT:      -6.5     16.458     18.609
REMARK  10 active torsions:
REMARK  status: ('A' for Active; 'I' for Inactive)
REMARK    1  A    between atoms: C_2  and  C_3 
REMARK    2  A    between atoms: C_3  and  C_4 
REMARK    3  A    between atoms: C_4  and  N_5 
REMARK    4  A    between atoms: N_5  and  C_7 
REMARK    5  A    between atoms: C_7  and  C_8 
REMARK    6  A    between atoms: C_8  and  C_9 
REMARK    7  A    between atoms: C_9  and  N_10 
REMARK       I    between atoms: N_10  and  C_11 
REMARK    8  A    between atoms: C_11  and  C_12 
REMARK    9  A    between atoms: C_12  and  O_13 
REMARK   10  A    between atoms: N_14  and  C_15 
ROOT
HETATM    1  C   UNL     1      46.472 -29.248   0.967  1.00  0.00     0.256 C 
HETATM    2  N   UNL     1      46.658 -29.850  -0.366  1.00  0.00    -0.254 N 
HETATM    3  C   UNL     1      47.412 -31.017  -0.455  1.00  0.00     0.330 C 
HETATM    4  O   UNL     1      47.268 -31.889  -1.314  1.00  0.00    -0.246 OA
HETATM    5  N   UNL     1      48.340 -31.245   0.517  1.00  0.00    -0.308 N 
HETATM    6  C   UNL     1      48.591 -30.409   1.593  1.00  0.00     0.048 A 
HETATM    7  C   UNL     1      47.706 -29.367   1.846  1.00  0.00     0.034 A 
HETATM    8  C   UNL     1      49.704 -30.636   2.406  1.00  0.00     0.030 A 
HETATM    9  C   UNL     1      49.947 -29.797   3.491  1.00  0.00     0.002 A 
HETATM   10  C   UNL     1      49.075 -28.747   3.763  1.00  0.00     0.001 A 
HETATM   11  C   UNL     1      47.958 -28.536   2.951  1.00  0.00     0.015 A 
HETATM   12  H   UNL     1      48.955 -32.029   0.338  1.00  0.00     0.170 HD
ENDROOT
BRANCH   1  13
HETATM   13  C   UNL     1      45.247 -29.944   1.709  1.00  0.00     0.279 C 
HETATM   14  N   UNL     1      44.123 -29.156   1.942  1.00  0.00    -0.356 N 
HETATM   15  H   UNL     1      44.327 -28.161   2.007  1.00  0.00     0.162 HD
HETATM   16  O   UNL     1      45.284 -31.130   2.043  1.00  0.00    -0.268 OA
BRANCH  14  17
HETATM   17  C   UNL     1      43.024 -29.671   2.729  1.00  0.00     0.124 C 
BRANCH  17  18
HETATM   18  C   UNL     1      41.824 -30.031   1.857  1.00  0.00     0.047 C 
BRANCH  18  19
HETATM   19  C   UNL     1      41.377 -31.470   2.096  1.00  0.00     0.236 C 
BRANCH  19  20
HETATM   20  N   UNL     1      42.418 -32.493   1.669  1.00  0.00    -0.075 N 
HETATM   21  H   UNL     1      43.278 -31.950   1.516  1.00  0.00     0.279 HD
HETATM   22  C   UNL     1      42.774 -33.458   2.774  1.00  0.00     0.269 C 
BRANCH  20  23
HETATM   23  C   UNL     1      42.148 -33.223   0.369  1.00  0.00     0.234 C 
BRANCH  23  24
HETATM   24  C   UNL     1      43.330 -33.188  -0.597  1.00  0.00     0.027 C 
BRANCH  24  25
HETATM   25  C   UNL     1      43.102 -33.994  -1.876  1.00  0.00    -0.003 C 
HETATM   26  C   UNL     1      43.784 -33.346  -3.072  1.00  0.00     0.005 C 
ENDBRANCH  24  25
ENDBRANCH  23  24
ENDBRANCH  20  23
ENDBRANCH  19  20
ENDBRANCH  18  19
ENDBRANCH  17  18
ENDBRANCH  14  17
ENDBRANCH   1  13
BRANCH   1  27
HETATM   27  O   UNL     1      46.216 -27.850   0.826  1.00  0.00    -0.359 OA
HETATM   28  H   UNL     1      46.479 -27.443   1.670  1.00  0.00     0.213 HD
ENDBRANCH   1  27
BRANCH   2  29
HETATM   29  C   UNL     1      45.878 -29.411  -1.505  1.00  0.00     0.042 A 
HETATM   30  C   UNL     1      46.340 -28.456  -2.424  1.00  0.00     0.030 A 
HETATM   31  C   UNL     1      45.559 -28.056  -3.515  1.00  0.00     0.002 A 
HETATM   32  C   UNL     1      44.301 -28.612  -3.719  1.00  0.00     0.000 A 
HETATM   33  C   UNL     1      43.826 -29.569  -2.832  1.00  0.00     0.002 A 
HETATM   34  C   UNL     1      44.605 -29.962  -1.740  1.00  0.00     0.030 A 
ENDBRANCH   2  29
TORSDOF 10
ENDMDL
MODEL 9
REMARK VINA RESULT:      -6.4      2.007      6.276
REMARK  10 active torsions:
REMARK  status: ('A' for Active; 'I' for Inactive)
REMARK    1  A    between atoms: C_2  and  C_3 
REMARK    2  A    between atoms: C_3  and  C_4 
REMARK    3  A    between atoms: C_4  and  N_5 
REMARK    4  A    between atoms: N_5  and  C_7 
REMARK    5  A    between atoms: C_7  and  C_8 
REMARK    6  A    between atoms: C_8  and  C_9 
REMARK    7  A    between atoms: C_9  and  N_10 
REMARK       I    between atoms: N_10  and  C_11 
REMARK    8  A    between atoms: C_11  and  C_12 
REMARK    9  A    between atoms: C_12  and  O_13 
REMARK   10  A    between atoms: N_14  and  C_15 
ROOT
HETATM    1  C   UNL     1      40.619 -13.125   2.824  1.00  0.00     0.256 C 
HETATM    2  N   UNL     1      41.405 -14.357   3.022  1.00  0.00    -0.254 N 
HETATM    3  C   UNL     1      42.174 -14.818   1.957  1.00  0.00     0.330 C 
HETATM    4  O   UNL     1      43.214 -15.472   2.065  1.00  0.00    -0.246 OA
HETATM    5  N   UNL     1      41.784 -14.469   0.699  1.00  0.00    -0.308 N 
HETATM    6  C   UNL     1      40.683 -13.685   0.392  1.00  0.00     0.048 A 
HETATM    7  C   UNL     1      40.037 -13.016   1.425  1.00  0.00     0.034 A 
HETATM    8  C   UNL     1      40.260 -13.568  -0.933  1.00  0.00     0.030 A 
HETATM    9  C   UNL     1      39.158 -12.772  -1.235  1.00  0.00     0.002 A 
HETATM   10  C   UNL     1      38.494 -12.092  -0.219  1.00  0.00     0.001 A 
HETATM   11  C   UNL     1      38.933 -12.207   1.102  1.00  0.00     0.015 A 
HETATM   12  H   UNL     1      42.288 -14.937  -0.045  1.00  0.00     0.170 HD
ENDROOT
BRANCH   1  13
HETATM   13  C   UNL     1      41.533 -11.851   3.099  1.00  0.00     0.279 C 
HETATM   14  N   UNL     1      41.332 -11.181   4.302  1.00  0.00    -0.356 N 
HETATM   15  H   UNL     1      40.393 -11.290   4.681  1.00  0.00     0.162 HD
HETATM   16  O   UNL     1      42.392 -11.487   2.294  1.00  0.00    -0.268 OA
BRANCH  14  17
HETATM   17  C   UNL     1      42.023  -9.938   4.567  1.00  0.00     0.124 C 
BRANCH  17  18
HETATM   18  C   UNL     1      42.449  -9.828   6.029  1.00  0.00     0.047 C 
BRANCH  18  19
HETATM   19  C   UNL     1      42.311 -11.168   6.748  1.00  0.00     0.236 C 
BRANCH  19  20
HETATM   20  N   UNL     1      43.583 -11.589   7.465  1.00  0.00    -0.075 N 
HETATM   21  H   UNL     1      43.383 -12.528   7.834  1.00  0.00     0.279 HD
HETATM   22  C   UNL     1      44.743 -11.795   6.522  1.00  0.00     0.269 C 
BRANCH  20  23
HETATM   23  C   UNL     1      43.990 -10.749   8.659  1.00  0.00     0.234 C 
BRANCH  23  24
HETATM   24  C   UNL     1      45.446 -10.293   8.605  1.00  0.00     0.027 C 
BRANCH  24  25
HETATM   25  C   UNL     1      45.610  -8.779   8.470  1.00  0.00    -0.003 C 
HETATM   26  C   UNL     1      44.316  -8.048   8.795  1.00  0.00     0.005 C 
ENDBRANCH  24  25
ENDBRANCH  23  24
ENDBRANCH  20  23
ENDBRANCH  19  20
ENDBRANCH  18  19
ENDBRANCH  17  18
ENDBRANCH  14  17
ENDBRANCH   1  13
BRANCH   1  27
HETATM   27  O   UNL     1      39.508 -13.122   3.720  1.00  0.00    -0.359 OA
HETATM   28  H   UNL     1      39.075 -13.987   3.614  1.00  0.00     0.213 HD
ENDBRANCH   1  27
BRANCH   2  29
HETATM   29  C   UNL     1      41.591 -14.928   4.340  1.00  0.00     0.042 A 
HETATM   30  C   UNL     1      42.580 -14.484   5.232  1.00  0.00     0.030 A 
HETATM   31  C   UNL     1      42.730 -15.058   6.500  1.00  0.00     0.002 A 
HETATM   32  C   UNL     1      41.886 -16.084   6.910  1.00  0.00     0.000 A 
HETATM   33  C   UNL     1      40.891 -16.533   6.052  1.00  0.00     0.002 A 
HETATM   34  C   UNL     1      40.747 -15.962   4.784  1.00  0.00     0.030 A 
ENDBRANCH   2  29
TORSDOF 10
ENDMDL
MODEL 10
REMARK VINA RESULT:      -6.4      4.060      7.663
REMARK  10 active torsions:
REMARK  status: ('A' for Active; 'I' for Inactive)
REMARK    1  A    between atoms: C_2  and  C_3 
REMARK    2  A    between atoms: C_3  and  C_4 
REMARK    3  A    between atoms: C_4  and  N_5 
REMARK    4  A    between atoms: N_5  and  C_7 
REMARK    5  A    between atoms: C_7  and  C_8 
REMARK    6  A    between atoms: C_8  and  C_9 
REMARK    7  A    between atoms: C_9  and  N_10 
REMARK       I    between atoms: N_10  and  C_11 
REMARK    8  A    between atoms: C_11  and  C_12 
REMARK    9  A    between atoms: C_12  and  O_13 
REMARK   10  A    between atoms: N_14  and  C_15 
ROOT
HETATM    1  C   UNL     1      42.868  -8.522   9.719  1.00  0.00     0.256 C 
HETATM    2  N   UNL     1      43.768  -9.676   9.903  1.00  0.00    -0.254 N 
HETATM    3  C   UNL     1      43.772 -10.307  11.143  1.00  0.00     0.330 C 
HETATM    4  O   UNL     1      44.035 -11.497  11.332  1.00  0.00    -0.246 OA
HETATM    5  N   UNL     1      43.398  -9.572  12.228  1.00  0.00    -0.308 N 
HETATM    6  C   UNL     1      43.007  -8.243  12.195  1.00  0.00     0.048 A 
HETATM    7  C   UNL     1      42.762  -7.653  10.961  1.00  0.00     0.034 A 
HETATM    8  C   UNL     1      42.849  -7.534  13.388  1.00  0.00     0.030 A 
HETATM    9  C   UNL     1      42.448  -6.201  13.349  1.00  0.00     0.002 A 
HETATM   10  C   UNL     1      42.197  -5.588  12.125  1.00  0.00     0.001 A 
HETATM   11  C   UNL     1      42.346  -6.311  10.938  1.00  0.00     0.015 A 
HETATM   12  H   UNL     1      43.548 -10.027  13.120  1.00  0.00     0.170 HD
ENDROOT
BRANCH   1  13
HETATM   13  C   UNL     1      41.411  -9.029   9.323  1.00  0.00     0.279 C 
HETATM   14  N   UNL     1      41.048  -8.916   7.984  1.00  0.00    -0.356 N 
HETATM   15  H   UNL     1      41.538  -8.174   7.488  1.00  0.00     0.162 HD
HETATM   16  O   UNL     1      40.650  -9.518  10.159  1.00  0.00    -0.268 OA
BRANCH  14  17
HETATM   17  C   UNL     1      39.698  -9.226   7.568  1.00  0.00     0.124 C 
BRANCH  17  18
HETATM   18  C   UNL     1      39.672  -9.931   6.215  1.00  0.00     0.047 C 
BRANCH  18  19
HETATM   19  C   UNL     1      40.658 -11.095   6.178  1.00  0.00     0.236 C 
BRANCH  19  20
HETATM   20  N   UNL     1      40.007 -12.412   5.785  1.00  0.00    -0.075 N 
HETATM   21  H   UNL     1      39.193 -12.503   6.406  1.00  0.00     0.279 HD
HETATM   22  C   UNL     1      39.419 -12.377   4.396  1.00  0.00     0.269 C 
BRANCH  20  23
HETATM   23  C   UNL     1      40.837 -13.661   5.998  1.00  0.00     0.234 C 
BRANCH  23  24
HETATM   24  C   UNL     1      41.333 -14.283   4.694  1.00  0.00     0.027 C 
BRANCH  24  25
HETATM   25  C   UNL     1      42.825 -14.066   4.439  1.00  0.00    -0.003 C 
HETATM   26  C   UNL     1      43.065 -12.870   3.529  1.00  0.00     0.005 C 
ENDBRANCH  24  25
ENDBRANCH  23  24
ENDBRANCH  20  23
ENDBRANCH  19  20
ENDBRANCH  18  19
ENDBRANCH  17  18
ENDBRANCH  14  17
ENDBRANCH   1  13
BRANCH   1  27
HETATM   27  O   UNL     1      43.381  -7.680   8.685  1.00  0.00    -0.359 OA
HETATM   28  H   UNL     1      42.640  -7.112   8.411  1.00  0.00     0.213 HD
ENDBRANCH   1  27
BRANCH   2  29
HETATM   29  C   UNL     1      44.426 -10.304   8.776  1.00  0.00     0.042 A 
HETATM   30  C   UNL     1      43.780 -11.213   7.924  1.00  0.00     0.030 A 
HETATM   31  C   UNL     1      44.449 -11.801   6.843  1.00  0.00     0.002 A 
HETATM   32  C   UNL     1      45.777 -11.484   6.582  1.00  0.00     0.000 A 
HETATM   33  C   UNL     1      46.435 -10.577   7.402  1.00  0.00     0.002 A 
HETATM   34  C   UNL     1      45.768  -9.996   8.485  1.00  0.00     0.030 A 
ENDBRANCH   2  29
TORSDOF 10
ENDMDL
