MODEL 1
REMARK VINA RESULT:      -8.8      0.000      0.000
REMARK  9 active torsions:
REMARK  status: ('A' for Active; 'I' for Inactive)
REMARK    1  A    between atoms: O_2  and  C_3 
REMARK    2  A    between atoms: C_6  and  C_7 
REMARK    3  A    between atoms: C_13  and  C_14 
REMARK       I    between atoms: C_14  and  N_15 
REMARK    4  A    between atoms: N_15  and  N_16 
REMARK    5  A    between atoms: N_16  and  C_17 
REMARK    6  A    between atoms: C_17  and  N_18 
REMARK    7  A    between atoms: N_18  and  C_19 
REMARK    8  A    between atoms: C_19  and  C_20 
REMARK    9  A    between atoms: C_27  and  C_28 
ROOT
HETATM    1  C   UNL     1      39.754 -15.282   2.185  1.00  0.00     0.118 C 
HETATM    2  N   UNL     1      39.861 -14.759   3.545  1.00  0.00    -0.365 N 
HETATM    3  C   UNL     1      41.063 -14.716   4.175  1.00  0.00     0.138 A 
HETATM    4  N   UNL     1      42.114 -15.474   3.725  1.00  0.00    -0.240 N 
HETATM    5  N   UNL     1      43.247 -15.274   4.415  1.00  0.00    -0.181 NA
HETATM    6  C   UNL     1      42.876 -14.409   5.365  1.00  0.00     0.160 A 
HETATM    7  C   UNL     1      41.526 -13.998   5.261  1.00  0.00     0.098 A 
HETATM    8  C   UNL     1      42.066 -16.298   2.530  1.00  0.00     0.221 C 
HETATM    9  C   UNL     1      40.602 -16.566   2.122  1.00  0.00     0.066 C 
HETATM   10  H   UNL     1      39.131 -14.100   3.829  1.00  0.00     0.161 HD
ENDROOT
BRANCH   7  11
HETATM   11  C   UNL     1      40.742 -13.077   6.064  1.00  0.00     0.275 C 
HETATM   12  N   UNL     1      41.357 -11.984   6.658  1.00  0.00    -0.263 N 
HETATM   13  H   UNL     1      40.668 -11.352   7.061  1.00  0.00     0.190 HD
HETATM   14  O   UNL     1      39.534 -13.236   6.250  1.00  0.00    -0.266 OA
BRANCH  12  15
HETATM   15  N   UNL     1      42.468 -11.333   6.084  1.00  0.00    -0.274 N 
HETATM   16  H   UNL     1      42.398 -11.095   5.098  1.00  0.00     0.189 HD
BRANCH  15  17
HETATM   17  C   UNL     1      43.664 -11.236   6.750  1.00  0.00     0.186 C 
HETATM   18  S   UNL     1      45.180 -11.390   6.060  1.00  0.00    -0.040 SA
BRANCH  17  19
HETATM   19  N   UNL     1      43.606 -10.978   8.086  1.00  0.00    -0.360 N 
HETATM   20  H   UNL     1      42.769 -11.328   8.538  1.00  0.00     0.162 HD
BRANCH  19  21
HETATM   21  C   UNL     1      44.642 -10.450   8.952  1.00  0.00     0.187 C 
BRANCH  21  22
HETATM   22  C   UNL     1      44.066 -10.112  10.272  1.00  0.00     0.070 A 
HETATM   23  O   UNL     1      43.712 -11.162  11.069  1.00  0.00    -0.325 OA
HETATM   24  C   UNL     1      43.211 -10.634  12.217  1.00  0.00     0.142 A 
HETATM   25  C   UNL     1      43.244  -9.260  12.170  1.00  0.00     0.027 A 
HETATM   26  C   UNL     1      43.794  -8.920  10.912  1.00  0.00     0.036 A 
ENDBRANCH  21  22
ENDBRANCH  19  21
ENDBRANCH  17  19
ENDBRANCH  15  17
ENDBRANCH  12  15
ENDBRANCH   7  11
BRANCH   1  27
HETATM   27  C   UNL     1      40.111 -14.256   1.113  1.00  0.00    -0.035 A 
HETATM   28  C   UNL     1      40.585 -12.971   1.419  1.00  0.00     0.012 A 
HETATM   29  C   UNL     1      40.917 -12.064   0.409  1.00  0.00     0.037 A 
HETATM   30  C   UNL     1      40.783 -12.411  -0.934  1.00  0.00     0.068 A 
HETATM   31  C   UNL     1      40.275 -13.665  -1.258  1.00  0.00     0.037 A 
HETATM   32  C   UNL     1      39.934 -14.573  -0.246  1.00  0.00     0.012 A 
BRANCH  30  33
HETATM   33  O   UNL     1      41.161 -11.442  -1.820  1.00  0.00    -0.356 OA
HETATM   34  C   UNL     1      41.044 -11.763  -3.201  1.00  0.00     0.210 C 
ENDBRANCH  30  33
ENDBRANCH   1  27
BRANCH   8  35
HETATM   35  C   UNL     1      42.784 -17.616   2.722  1.00  0.00     0.409 C 
HETATM   36  F   UNL     1      42.209 -18.629   2.036  1.00  0.00    -0.169 F 
HETATM   37  F   UNL     1      44.058 -17.510   2.249  1.00  0.00    -0.169 F 
HETATM   38  F   UNL     1      42.900 -17.988   4.013  1.00  0.00    -0.169 F 
ENDBRANCH   8  35
TORSDOF 9
ENDMDL
MODEL 2
REMARK VINA RESULT:      -8.7      4.008      8.471
REMARK  9 active torsions:
REMARK  status: ('A' for Active; 'I' for Inactive)
REMARK    1  A    between atoms: O_2  and  C_3 
REMARK    2  A    between atoms: C_6  and  C_7 
REMARK    3  A    between atoms: C_13  and  C_14 
REMARK       I    between atoms: C_14  and  N_15 
REMARK    4  A    between atoms: N_15  and  N_16 
REMARK    5  A    between atoms: N_16  and  C_17 
REMARK    6  A    between atoms: C_17  and  N_18 
REMARK    7  A    between atoms: N_18  and  C_19 
REMARK    8  A    between atoms: C_19  and  C_20 
REMARK    9  A    between atoms: C_27  and  C_28 
ROOT
HETATM    1  C   UNL     1      42.522 -14.193   6.920  1.00  0.00     0.118 C 
HETATM    2  N   UNL     1      41.446 -13.360   6.387  1.00  0.00    -0.365 N 
HETATM    3  C   UNL     1      41.709 -12.402   5.463  1.00  0.00     0.138 A 
HETATM    4  N   UNL     1      42.988 -11.942   5.276  1.00  0.00    -0.240 N 
HETATM    5  N   UNL     1      43.092 -11.043   4.287  1.00  0.00    -0.181 NA
HETATM    6  C   UNL     1      41.826 -10.890   3.881  1.00  0.00     0.160 A 
HETATM    7  C   UNL     1      40.909 -11.728   4.558  1.00  0.00     0.098 A 
HETATM    8  C   UNL     1      44.149 -12.476   5.968  1.00  0.00     0.221 C 
HETATM    9  C   UNL     1      43.712 -13.262   7.222  1.00  0.00     0.066 C 
HETATM   10  H   UNL     1      40.507 -13.767   6.425  1.00  0.00     0.161 HD
ENDROOT
BRANCH   7  11
HETATM   11  C   UNL     1      39.473 -11.886   4.416  1.00  0.00     0.275 C 
HETATM   12  N   UNL     1      38.966 -12.792   3.494  1.00  0.00    -0.263 N 
HETATM   13  H   UNL     1      37.961 -12.903   3.608  1.00  0.00     0.190 HD
HETATM   14  O   UNL     1      38.673 -11.231   5.087  1.00  0.00    -0.266 OA
BRANCH  12  15
HETATM   15  N   UNL     1      39.643 -13.979   3.146  1.00  0.00    -0.274 N 
HETATM   16  H   UNL     1      40.209 -14.410   3.871  1.00  0.00     0.189 HD
BRANCH  15  17
HETATM   17  C   UNL     1      39.722 -14.402   1.843  1.00  0.00     0.186 C 
HETATM   18  S   UNL     1      40.222 -15.917   1.338  1.00  0.00    -0.040 SA
BRANCH  17  19
HETATM   19  N   UNL     1      39.346 -13.513   0.883  1.00  0.00    -0.360 N 
HETATM   20  H   UNL     1      38.563 -12.925   1.147  1.00  0.00     0.162 HD
BRANCH  19  21
HETATM   21  C   UNL     1      40.021 -13.181  -0.357  1.00  0.00     0.187 C 
BRANCH  21  22
HETATM   22  C   UNL     1      39.186 -13.595  -1.506  1.00  0.00     0.070 A 
HETATM   23  O   UNL     1      37.983 -12.964  -1.645  1.00  0.00    -0.325 OA
HETATM   24  C   UNL     1      37.388 -13.489  -2.748  1.00  0.00     0.142 A 
HETATM   25  C   UNL     1      38.193 -14.444  -3.322  1.00  0.00     0.027 A 
HETATM   26  C   UNL     1      39.356 -14.516  -2.520  1.00  0.00     0.036 A 
ENDBRANCH  21  22
ENDBRANCH  19  21
ENDBRANCH  17  19
ENDBRANCH  15  17
ENDBRANCH  12  15
ENDBRANCH   7  11
BRANCH   1  27
HETATM   27  C   UNL     1      42.878 -15.371   6.018  1.00  0.00    -0.035 A 
HETATM   28  C   UNL     1      42.015 -15.851   5.019  1.00  0.00     0.012 A 
HETATM   29  C   UNL     1      42.383 -16.924   4.202  1.00  0.00     0.037 A 
HETATM   30  C   UNL     1      43.618 -17.549   4.359  1.00  0.00     0.068 A 
HETATM   31  C   UNL     1      44.470 -17.117   5.370  1.00  0.00     0.037 A 
HETATM   32  C   UNL     1      44.099 -16.046   6.196  1.00  0.00     0.012 A 
BRANCH  30  33
HETATM   33  O   UNL     1      43.862 -18.569   3.483  1.00  0.00    -0.356 OA
HETATM   34  C   UNL     1      43.107 -18.568   2.278  1.00  0.00     0.210 C 
ENDBRANCH  30  33
ENDBRANCH   1  27
BRANCH   8  35
HETATM   35  C   UNL     1      45.119 -11.387   6.369  1.00  0.00     0.409 C 
HETATM   36  F   UNL     1      45.991 -11.075   5.384  1.00  0.00    -0.169 F 
HETATM   37  F   UNL     1      44.429 -10.245   6.645  1.00  0.00    -0.169 F 
HETATM   38  F   UNL     1      45.822 -11.670   7.486  1.00  0.00    -0.169 F 
ENDBRANCH   8  35
TORSDOF 9
ENDMDL
MODEL 3
REMARK VINA RESULT:      -8.6      4.385      8.004
REMARK  9 active torsions:
REMARK  status: ('A' for Active; 'I' for Inactive)
REMARK    1  A    between atoms: O_2  and  C_3 
REMARK    2  A    between atoms: C_6  and  C_7 
REMARK    3  A    between atoms: C_13  and  C_14 
REMARK       I    between atoms: C_14  and  N_15 
REMARK    4  A    between atoms: N_15  and  N_16 
REMARK    5  A    between atoms: N_16  and  C_17 
REMARK    6  A    between atoms: C_17  and  N_18 
REMARK    7  A    between atoms: N_18  and  C_19 
REMARK    8  A    between atoms: C_19  and  C_20 
REMARK    9  A    between atoms: C_27  and  C_28 
ROOT
HETATM    1  C   UNL     1      41.613 -14.828   5.315  1.00  0.00     0.118 C 
HETATM    2  N   UNL     1      40.723 -14.048   4.459  1.00  0.00    -0.365 N 
HETATM    3  C   UNL     1      41.219 -13.076   3.650  1.00  0.00     0.138 A 
HETATM    4  N   UNL     1      42.469 -12.555   3.871  1.00  0.00    -0.240 N 
HETATM    5  N   UNL     1      42.838 -11.650   2.952  1.00  0.00    -0.181 NA
HETATM    6  C   UNL     1      41.760 -11.559   2.166  1.00  0.00     0.160 A 
HETATM    7  C   UNL     1      40.716 -12.441   2.530  1.00  0.00     0.098 A 
HETATM    8  C   UNL     1      43.375 -13.033   4.900  1.00  0.00     0.221 C 
HETATM    9  C   UNL     1      42.602 -13.841   5.964  1.00  0.00     0.066 C 
HETATM   10  H   UNL     1      39.840 -14.499   4.204  1.00  0.00     0.161 HD
ENDROOT
BRANCH   7  11
HETATM   11  C   UNL     1      39.406 -12.668   1.945  1.00  0.00     0.275 C 
HETATM   12  N   UNL     1      39.293 -12.917   0.584  1.00  0.00    -0.263 N 
HETATM   13  H   UNL     1      38.346 -13.202   0.344  1.00  0.00     0.190 HD
HETATM   14  O   UNL     1      38.374 -12.639   2.618  1.00  0.00    -0.266 OA
BRANCH  12  15
HETATM   15  N   UNL     1      40.298 -13.577  -0.153  1.00  0.00    -0.274 N 
HETATM   16  H   UNL     1      41.157 -13.798   0.343  1.00  0.00     0.189 HD
BRANCH  15  17
HETATM   17  C   UNL     1      40.218 -13.705  -1.517  1.00  0.00     0.186 C 
HETATM   18  S   UNL     1      39.098 -14.632  -2.344  1.00  0.00    -0.040 SA
BRANCH  17  19
HETATM   19  N   UNL     1      41.122 -13.004  -2.256  1.00  0.00    -0.360 N 
HETATM   20  H   UNL     1      41.960 -13.526  -2.486  1.00  0.00     0.162 HD
BRANCH  19  21
HETATM   21  C   UNL     1      40.962 -11.712  -2.895  1.00  0.00     0.187 C 
BRANCH  21  22
HETATM   22  C   UNL     1      40.968 -10.645  -1.870  1.00  0.00     0.070 A 
HETATM   23  O   UNL     1      39.812 -10.472  -1.164  1.00  0.00    -0.325 OA
HETATM   24  C   UNL     1      40.035  -9.456  -0.289  1.00  0.00     0.142 A 
HETATM   25  C   UNL     1      41.317  -8.978  -0.420  1.00  0.00     0.027 A 
HETATM   26  C   UNL     1      41.923  -9.744  -1.444  1.00  0.00     0.036 A 
ENDBRANCH  21  22
ENDBRANCH  19  21
ENDBRANCH  17  19
ENDBRANCH  15  17
ENDBRANCH  12  15
ENDBRANCH   7  11
BRANCH   1  27
HETATM   27  C   UNL     1      42.289 -15.986   4.587  1.00  0.00    -0.035 A 
HETATM   28  C   UNL     1      41.872 -16.439   3.326  1.00  0.00     0.012 A 
HETATM   29  C   UNL     1      42.527 -17.494   2.684  1.00  0.00     0.037 A 
HETATM   30  C   UNL     1      43.614 -18.128   3.282  1.00  0.00     0.068 A 
HETATM   31  C   UNL     1      44.016 -17.723   4.551  1.00  0.00     0.037 A 
HETATM   32  C   UNL     1      43.356 -16.670   5.200  1.00  0.00     0.012 A 
BRANCH  30  33
HETATM   33  O   UNL     1      44.176 -19.129   2.541  1.00  0.00    -0.356 OA
HETATM   34  C   UNL     1      43.314 -20.187   2.142  1.00  0.00     0.210 C 
ENDBRANCH  30  33
ENDBRANCH   1  27
BRANCH   8  35
HETATM   35  C   UNL     1      44.118 -11.899   5.572  1.00  0.00     0.409 C 
HETATM   36  F   UNL     1      43.302 -10.886   5.942  1.00  0.00    -0.169 F 
HETATM   37  F   UNL     1      44.703 -12.355   6.715  1.00  0.00    -0.169 F 
HETATM   38  F   UNL     1      45.119 -11.388   4.826  1.00  0.00    -0.169 F 
ENDBRANCH   8  35
TORSDOF 9
ENDMDL
MODEL 4
REMARK VINA RESULT:      -8.6      4.177      8.673
REMARK  9 active torsions:
REMARK  status: ('A' for Active; 'I' for Inactive)
REMARK    1  A    between atoms: O_2  and  C_3 
REMARK    2  A    between atoms: C_6  and  C_7 
REMARK    3  A    between atoms: C_13  and  C_14 
REMARK       I    between atoms: C_14  and  N_15 
REMARK    4  A    between atoms: N_15  and  N_16 
REMARK    5  A    between atoms: N_16  and  C_17 
REMARK    6  A    between atoms: C_17  and  N_18 
REMARK    7  A    between atoms: N_18  and  C_19 
REMARK    8  A    between atoms: C_19  and  C_20 
REMARK    9  A    between atoms: C_27  and  C_28 
ROOT
HETATM    1  C   UNL     1      42.090 -14.317   6.022  1.00  0.00     0.118 C 
HETATM    2  N   UNL     1      41.254 -13.468   5.176  1.00  0.00    -0.365 N 
HETATM    3  C   UNL     1      41.816 -12.539   4.360  1.00  0.00     0.138 A 
HETATM    4  N   UNL     1      43.107 -12.120   4.564  1.00  0.00    -0.240 N 
HETATM    5  N   UNL     1      43.535 -11.248   3.640  1.00  0.00    -0.181 NA
HETATM    6  C   UNL     1      42.458 -11.070   2.868  1.00  0.00     0.160 A 
HETATM    7  C   UNL     1      41.351 -11.866   3.246  1.00  0.00     0.098 A 
HETATM    8  C   UNL     1      43.985 -12.669   5.583  1.00  0.00     0.221 C 
HETATM    9  C   UNL     1      43.163 -13.413   6.657  1.00  0.00     0.066 C 
HETATM   10  H   UNL     1      40.334 -13.846   4.933  1.00  0.00     0.161 HD
ENDROOT
BRANCH   7  11
HETATM   11  C   UNL     1      40.020 -11.987   2.678  1.00  0.00     0.275 C 
HETATM   12  N   UNL     1      39.848 -11.912   1.303  1.00  0.00    -0.263 N 
HETATM   13  H   UNL     1      38.896 -12.159   1.041  1.00  0.00     0.190 HD
HETATM   14  O   UNL     1      39.021 -12.147   3.381  1.00  0.00    -0.266 OA
BRANCH  12  15
HETATM   15  N   UNL     1      40.830 -12.350   0.390  1.00  0.00    -0.274 N 
HETATM   16  H   UNL     1      41.357 -13.179   0.650  1.00  0.00     0.189 HD
BRANCH  15  17
HETATM   17  C   UNL     1      41.215 -11.574  -0.674  1.00  0.00     0.186 C 
HETATM   18  S   UNL     1      41.369  -9.908  -0.661  1.00  0.00    -0.040 SA
BRANCH  17  19
HETATM   19  N   UNL     1      41.508 -12.222  -1.835  1.00  0.00    -0.360 N 
HETATM   20  H   UNL     1      42.210 -12.947  -1.737  1.00  0.00     0.162 HD
BRANCH  19  21
HETATM   21  C   UNL     1      40.830 -12.140  -3.114  1.00  0.00     0.187 C 
BRANCH  21  22
HETATM   22  C   UNL     1      39.504 -12.788  -3.019  1.00  0.00     0.070 A 
HETATM   23  O   UNL     1      39.437 -14.097  -3.400  1.00  0.00    -0.325 OA
HETATM   24  C   UNL     1      38.146 -14.490  -3.235  1.00  0.00     0.142 A 
HETATM   25  C   UNL     1      37.385 -13.453  -2.748  1.00  0.00     0.027 A 
HETATM   26  C   UNL     1      38.260 -12.351  -2.609  1.00  0.00     0.036 A 
ENDBRANCH  21  22
ENDBRANCH  19  21
ENDBRANCH  17  19
ENDBRANCH  15  17
ENDBRANCH  12  15
ENDBRANCH   7  11
BRANCH   1  27
HETATM   27  C   UNL     1      42.661 -15.526   5.287  1.00  0.00    -0.035 A 
HETATM   28  C   UNL     1      42.108 -16.023   4.097  1.00  0.00     0.012 A 
HETATM   29  C   UNL     1      42.669 -17.124   3.444  1.00  0.00     0.037 A 
HETATM   30  C   UNL     1      43.795 -17.762   3.961  1.00  0.00     0.068 A 
HETATM   31  C   UNL     1      44.334 -17.311   5.162  1.00  0.00     0.037 A 
HETATM   32  C   UNL     1      43.767 -16.211   5.822  1.00  0.00     0.012 A 
BRANCH  30  33
HETATM   33  O   UNL     1      44.256 -18.811   3.216  1.00  0.00    -0.356 OA
HETATM   34  C   UNL     1      43.355 -19.358   2.262  1.00  0.00     0.210 C 
ENDBRANCH  30  33
ENDBRANCH   1  27
BRANCH   8  35
HETATM   35  C   UNL     1      44.825 -11.599   6.244  1.00  0.00     0.409 C 
HETATM   36  F   UNL     1      45.867 -11.205   5.478  1.00  0.00    -0.169 F 
HETATM   37  F   UNL     1      44.062 -10.489   6.451  1.00  0.00    -0.169 F 
HETATM   38  F   UNL     1      45.298 -11.951   7.457  1.00  0.00    -0.169 F 
ENDBRANCH   8  35
TORSDOF 9
ENDMDL
MODEL 5
REMARK VINA RESULT:      -8.1      4.390      8.603
REMARK  9 active torsions:
REMARK  status: ('A' for Active; 'I' for Inactive)
REMARK    1  A    between atoms: O_2  and  C_3 
REMARK    2  A    between atoms: C_6  and  C_7 
REMARK    3  A    between atoms: C_13  and  C_14 
REMARK       I    between atoms: C_14  and  N_15 
REMARK    4  A    between atoms: N_15  and  N_16 
REMARK    5  A    between atoms: N_16  and  C_17 
REMARK    6  A    between atoms: C_17  and  N_18 
REMARK    7  A    between atoms: N_18  and  C_19 
REMARK    8  A    between atoms: C_19  and  C_20 
REMARK    9  A    between atoms: C_27  and  C_28 
ROOT
HETATM    1  C   UNL     1      41.371 -15.143   5.662  1.00  0.00     0.118 C 
HETATM    2  N   UNL     1      40.733 -14.575   4.476  1.00  0.00    -0.365 N 
HETATM    3  C   UNL     1      41.405 -13.702   3.682  1.00  0.00     0.138 A 
HETATM    4  N   UNL     1      42.524 -13.057   4.144  1.00  0.00    -0.240 N 
HETATM    5  N   UNL     1      43.107 -12.277   3.221  1.00  0.00    -0.181 NA
HETATM    6  C   UNL     1      42.291 -12.391   2.168  1.00  0.00     0.160 A 
HETATM    7  C   UNL     1      41.217 -13.287   2.377  1.00  0.00     0.098 A 
HETATM    8  C   UNL     1      43.119 -13.299   5.447  1.00  0.00     0.221 C 
HETATM    9  C   UNL     1      42.104 -13.994   6.380  1.00  0.00     0.066 C 
HETATM   10  H   UNL     1      39.973 -15.128   4.071  1.00  0.00     0.161 HD
ENDROOT
BRANCH   7  11
HETATM   11  C   UNL     1      40.133 -13.704   1.504  1.00  0.00     0.275 C 
HETATM   12  N   UNL     1      38.949 -12.981   1.482  1.00  0.00    -0.263 N 
HETATM   13  H   UNL     1      38.344 -13.295   0.726  1.00  0.00     0.190 HD
HETATM   14  O   UNL     1      40.222 -14.696   0.778  1.00  0.00    -0.266 OA
BRANCH  12  15
HETATM   15  N   UNL     1      38.904 -11.591   1.717  1.00  0.00    -0.274 N 
HETATM   16  H   UNL     1      39.103 -11.281   2.664  1.00  0.00     0.189 HD
BRANCH  15  17
HETATM   17  C   UNL     1      38.395 -10.723   0.783  1.00  0.00     0.186 C 
HETATM   18  S   UNL     1      36.916  -9.946   0.878  1.00  0.00    -0.040 SA
BRANCH  17  19
HETATM   19  N   UNL     1      39.171 -10.466  -0.306  1.00  0.00    -0.360 N 
HETATM   20  H   UNL     1      40.119 -10.189  -0.082  1.00  0.00     0.162 HD
BRANCH  19  21
HETATM   21  C   UNL     1      38.877 -10.713  -1.705  1.00  0.00     0.187 C 
BRANCH  21  22
HETATM   22  C   UNL     1      39.198 -12.117  -2.042  1.00  0.00     0.070 A 
HETATM   23  O   UNL     1      38.249 -13.050  -1.734  1.00  0.00    -0.325 OA
HETATM   24  C   UNL     1      38.742 -14.256  -2.122  1.00  0.00     0.142 A 
HETATM   25  C   UNL     1      39.991 -14.110  -2.680  1.00  0.00     0.027 A 
HETATM   26  C   UNL     1      40.289 -12.728  -2.627  1.00  0.00     0.036 A 
ENDBRANCH  21  22
ENDBRANCH  19  21
ENDBRANCH  17  19
ENDBRANCH  15  17
ENDBRANCH  12  15
ENDBRANCH   7  11
BRANCH   1  27
HETATM   27  C   UNL     1      42.263 -16.342   5.352  1.00  0.00    -0.035 A 
HETATM   28  C   UNL     1      42.846 -17.134   6.354  1.00  0.00     0.012 A 
HETATM   29  C   UNL     1      43.644 -18.235   6.030  1.00  0.00     0.037 A 
HETATM   30  C   UNL     1      43.887 -18.574   4.701  1.00  0.00     0.068 A 
HETATM   31  C   UNL     1      43.354 -17.776   3.693  1.00  0.00     0.037 A 
HETATM   32  C   UNL     1      42.559 -16.667   4.016  1.00  0.00     0.012 A 
BRANCH  30  33
HETATM   33  O   UNL     1      44.666 -19.682   4.522  1.00  0.00    -0.356 OA
HETATM   34  C   UNL     1      44.309 -20.838   5.271  1.00  0.00     0.210 C 
ENDBRANCH  30  33
ENDBRANCH   1  27
BRANCH   8  35
HETATM   35  C   UNL     1      43.604 -12.021   6.094  1.00  0.00     0.409 C 
HETATM   36  F   UNL     1      42.706 -11.014   6.002  1.00  0.00    -0.169 F 
HETATM   37  F   UNL     1      43.803 -12.235   7.425  1.00  0.00    -0.169 F 
HETATM   38  F   UNL     1      44.785 -11.582   5.612  1.00  0.00    -0.169 F 
ENDBRANCH   8  35
TORSDOF 9
ENDMDL
MODEL 6
REMARK VINA RESULT:      -8.0      3.225      4.883
REMARK  9 active torsions:
REMARK  status: ('A' for Active; 'I' for Inactive)
REMARK    1  A    between atoms: O_2  and  C_3 
REMARK    2  A    between atoms: C_6  and  C_7 
REMARK    3  A    between atoms: C_13  and  C_14 
REMARK       I    between atoms: C_14  and  N_15 
REMARK    4  A    between atoms: N_15  and  N_16 
REMARK    5  A    between atoms: N_16  and  C_17 
REMARK    6  A    between atoms: C_17  and  N_18 
REMARK    7  A    between atoms: N_18  and  C_19 
REMARK    8  A    between atoms: C_19  and  C_20 
REMARK    9  A    between atoms: C_27  and  C_28 
ROOT
HETATM    1  C   UNL     1      43.332 -14.495   2.575  1.00  0.00     0.118 C 
HETATM    2  N   UNL     1      43.400 -13.632   3.751  1.00  0.00    -0.365 N 
HETATM    3  C   UNL     1      42.290 -13.390   4.494  1.00  0.00     0.138 A 
HETATM    4  N   UNL     1      41.040 -13.629   3.982  1.00  0.00    -0.240 N 
HETATM    5  N   UNL     1      40.052 -13.399   4.859  1.00  0.00    -0.181 NA
HETATM    6  C   UNL     1      40.702 -12.942   5.935  1.00  0.00     0.160 A 
HETATM    7  C   UNL     1      42.109 -12.932   5.786  1.00  0.00     0.098 A 
HETATM    8  C   UNL     1      40.800 -14.218   2.676  1.00  0.00     0.221 C 
HETATM    9  C   UNL     1      42.063 -14.105   1.795  1.00  0.00     0.066 C 
HETATM   10  H   UNL     1      44.319 -13.555   4.196  1.00  0.00     0.161 HD
ENDROOT
BRANCH   7  11
HETATM   11  C   UNL     1      43.165 -12.535   6.700  1.00  0.00     0.275 C 
HETATM   12  N   UNL     1      43.176 -11.251   7.226  1.00  0.00    -0.263 N 
HETATM   13  H   UNL     1      43.879 -11.162   7.956  1.00  0.00     0.190 HD
HETATM   14  O   UNL     1      44.073 -13.303   7.024  1.00  0.00    -0.266 OA
BRANCH  12  15
HETATM   15  N   UNL     1      41.993 -10.522   7.472  1.00  0.00    -0.274 N 
HETATM   16  H   UNL     1      41.204 -11.045   7.840  1.00  0.00     0.189 HD
BRANCH  15  17
HETATM   17  C   UNL     1      41.841  -9.234   7.024  1.00  0.00     0.186 C 
HETATM   18  S   UNL     1      41.327  -8.788   5.495  1.00  0.00    -0.040 SA
BRANCH  17  19
HETATM   19  N   UNL     1      42.119  -8.237   7.909  1.00  0.00    -0.360 N 
HETATM   20  H   UNL     1      41.303  -7.728   8.227  1.00  0.00     0.162 HD
BRANCH  19  21
HETATM   21  C   UNL     1      43.373  -7.944   8.577  1.00  0.00     0.187 C 
BRANCH  21  22
HETATM   22  C   UNL     1      43.372  -8.549   9.927  1.00  0.00     0.070 A 
HETATM   23  O   UNL     1      43.550  -9.901   9.988  1.00  0.00    -0.325 OA
HETATM   24  C   UNL     1      43.517 -10.243  11.304  1.00  0.00     0.142 A 
HETATM   25  C   UNL     1      43.325  -9.129  12.087  1.00  0.00     0.027 A 
HETATM   26  C   UNL     1      43.230  -8.032  11.199  1.00  0.00     0.036 A 
ENDBRANCH  21  22
ENDBRANCH  19  21
ENDBRANCH  17  19
ENDBRANCH  15  17
ENDBRANCH  12  15
ENDBRANCH   7  11
BRANCH   1  27
HETATM   27  C   UNL     1      43.415 -15.982   2.910  1.00  0.00    -0.035 A 
HETATM   28  C   UNL     1      43.713 -16.455   4.198  1.00  0.00     0.012 A 
HETATM   29  C   UNL     1      43.764 -17.825   4.470  1.00  0.00     0.037 A 
HETATM   30  C   UNL     1      43.523 -18.761   3.466  1.00  0.00     0.068 A 
HETATM   31  C   UNL     1      43.268 -18.313   2.174  1.00  0.00     0.037 A 
HETATM   32  C   UNL     1      43.223 -16.940   1.898  1.00  0.00     0.012 A 
BRANCH  30  33
HETATM   33  O   UNL     1      43.583 -20.066   3.869  1.00  0.00    -0.356 OA
HETATM   34  C   UNL     1      44.270 -20.324   5.087  1.00  0.00     0.210 C 
ENDBRANCH  30  33
ENDBRANCH   1  27
BRANCH   8  35
HETATM   35  C   UNL     1      39.632 -13.569   1.967  1.00  0.00     0.409 C 
HETATM   36  F   UNL     1      39.745 -12.223   1.900  1.00  0.00    -0.169 F 
HETATM   37  F   UNL     1      39.580 -14.013   0.680  1.00  0.00    -0.169 F 
HETATM   38  F   UNL     1      38.433 -13.869   2.509  1.00  0.00    -0.169 F 
ENDBRANCH   8  35
TORSDOF 9
ENDMDL
MODEL 7
REMARK VINA RESULT:      -8.0     16.964     18.931
REMARK  9 active torsions:
REMARK  status: ('A' for Active; 'I' for Inactive)
REMARK    1  A    between atoms: O_2  and  C_3 
REMARK    2  A    between atoms: C_6  and  C_7 
REMARK    3  A    between atoms: C_13  and  C_14 
REMARK       I    between atoms: C_14  and  N_15 
REMARK    4  A    between atoms: N_15  and  N_16 
REMARK    5  A    between atoms: N_16  and  C_17 
REMARK    6  A    between atoms: C_17  and  N_18 
REMARK    7  A    between atoms: N_18  and  C_19 
REMARK    8  A    between atoms: C_19  and  C_20 
REMARK    9  A    between atoms: C_27  and  C_28 
ROOT
HETATM    1  C   UNL     1      45.994 -32.174  -2.262  1.00  0.00     0.118 C 
HETATM    2  N   UNL     1      47.271 -31.503  -2.029  1.00  0.00    -0.365 N 
HETATM    3  C   UNL     1      47.318 -30.161  -1.830  1.00  0.00     0.138 A 
HETATM    4  N   UNL     1      46.264 -29.363  -2.196  1.00  0.00    -0.240 N 
HETATM    5  N   UNL     1      46.438 -28.071  -1.877  1.00  0.00    -0.181 NA
HETATM    6  C   UNL     1      47.667 -28.052  -1.350  1.00  0.00     0.160 A 
HETATM    7  C   UNL     1      48.269 -29.330  -1.267  1.00  0.00     0.098 A 
HETATM    8  C   UNL     1      45.014 -29.869  -2.735  1.00  0.00     0.221 C 
HETATM    9  C   UNL     1      45.199 -31.309  -3.258  1.00  0.00     0.066 C 
HETATM   10  H   UNL     1      48.018 -32.086  -1.643  1.00  0.00     0.161 HD
ENDROOT
BRANCH   7  11
HETATM   11  C   UNL     1      49.562 -29.747  -0.756  1.00  0.00     0.275 C 
HETATM   12  N   UNL     1      49.739 -29.929   0.609  1.00  0.00    -0.263 N 
HETATM   13  H   UNL     1      50.639 -30.360   0.805  1.00  0.00     0.190 HD
HETATM   14  O   UNL     1      50.528 -29.940  -1.498  1.00  0.00    -0.266 OA
BRANCH  12  15
HETATM   15  N   UNL     1      48.697 -30.356   1.458  1.00  0.00    -0.274 N 
HETATM   16  H   UNL     1      48.261 -31.246   1.233  1.00  0.00     0.189 HD
BRANCH  15  17
HETATM   17  C   UNL     1      48.146 -29.516   2.393  1.00  0.00     0.186 C 
HETATM   18  S   UNL     1      48.947 -28.859   3.706  1.00  0.00    -0.040 SA
BRANCH  17  19
HETATM   19  N   UNL     1      46.837 -29.181   2.224  1.00  0.00    -0.360 N 
HETATM   20  H   UNL     1      46.640 -28.712   1.348  1.00  0.00     0.162 HD
BRANCH  19  21
HETATM   21  C   UNL     1      45.693 -29.567   3.028  1.00  0.00     0.187 C 
BRANCH  21  22
HETATM   22  C   UNL     1      44.460 -29.480   2.216  1.00  0.00     0.070 A 
HETATM   23  O   UNL     1      44.626 -29.284   0.875  1.00  0.00    -0.325 OA
HETATM   24  C   UNL     1      43.383 -29.235   0.328  1.00  0.00     0.142 A 
HETATM   25  C   UNL     1      42.422 -29.401   1.297  1.00  0.00     0.027 A 
HETATM   26  C   UNL     1      43.115 -29.557   2.519  1.00  0.00     0.036 A 
ENDBRANCH  21  22
ENDBRANCH  19  21
ENDBRANCH  17  19
ENDBRANCH  15  17
ENDBRANCH  12  15
ENDBRANCH   7  11
BRANCH   1  27
HETATM   27  C   UNL     1      45.233 -32.489  -0.977  1.00  0.00    -0.035 A 
HETATM   28  C   UNL     1      45.866 -32.613   0.270  1.00  0.00     0.012 A 
HETATM   29  C   UNL     1      45.133 -32.887   1.428  1.00  0.00     0.037 A 
HETATM   30  C   UNL     1      43.750 -33.047   1.375  1.00  0.00     0.068 A 
HETATM   31  C   UNL     1      43.108 -32.969   0.142  1.00  0.00     0.037 A 
HETATM   32  C   UNL     1      43.844 -32.702  -1.021  1.00  0.00     0.012 A 
BRANCH  30  33
HETATM   33  O   UNL     1      43.151 -33.290   2.579  1.00  0.00    -0.356 OA
HETATM   34  C   UNL     1      41.745 -33.083   2.644  1.00  0.00     0.210 C 
ENDBRANCH  30  33
ENDBRANCH   1  27
BRANCH   8  35
HETATM   35  C   UNL     1      44.481 -28.994  -3.848  1.00  0.00     0.409 C 
HETATM   36  F   UNL     1      45.005 -29.306  -5.054  1.00  0.00    -0.169 F 
HETATM   37  F   UNL     1      43.135 -29.173  -3.959  1.00  0.00    -0.169 F 
HETATM   38  F   UNL     1      44.660 -27.674  -3.634  1.00  0.00    -0.169 F 
ENDBRANCH   8  35
TORSDOF 9
ENDMDL
MODEL 8
REMARK VINA RESULT:      -8.0      4.055      7.913
REMARK  9 active torsions:
REMARK  status: ('A' for Active; 'I' for Inactive)
REMARK    1  A    between atoms: O_2  and  C_3 
REMARK    2  A    between atoms: C_6  and  C_7 
REMARK    3  A    between atoms: C_13  and  C_14 
REMARK       I    between atoms: C_14  and  N_15 
REMARK    4  A    between atoms: N_15  and  N_16 
REMARK    5  A    between atoms: N_16  and  C_17 
REMARK    6  A    between atoms: C_17  and  N_18 
REMARK    7  A    between atoms: N_18  and  C_19 
REMARK    8  A    between atoms: C_19  and  C_20 
REMARK    9  A    between atoms: C_27  and  C_28 
ROOT
HETATM    1  C   UNL     1      42.190 -14.130   6.596  1.00  0.00     0.118 C 
HETATM    2  N   UNL     1      41.150 -13.122   6.406  1.00  0.00    -0.365 N 
HETATM    3  C   UNL     1      41.392 -12.013   5.661  1.00  0.00     0.138 A 
HETATM    4  N   UNL     1      42.678 -11.626   5.380  1.00  0.00    -0.240 N 
HETATM    5  N   UNL     1      42.748 -10.549   4.584  1.00  0.00    -0.181 NA
HETATM    6  C   UNL     1      41.465 -10.216   4.411  1.00  0.00     0.160 A 
HETATM    7  C   UNL     1      40.559 -11.103   5.037  1.00  0.00     0.098 A 
HETATM    8  C   UNL     1      43.854 -12.383   5.771  1.00  0.00     0.221 C 
HETATM    9  C   UNL     1      43.502 -13.381   6.895  1.00  0.00     0.066 C 
HETATM   10  H   UNL     1      40.186 -13.452   6.503  1.00  0.00     0.161 HD
ENDROOT
BRANCH   7  11
HETATM   11  C   UNL     1      39.107 -11.114   5.083  1.00  0.00     0.275 C 
HETATM   12  N   UNL     1      38.379 -10.595   4.022  1.00  0.00    -0.263 N 
HETATM   13  H   UNL     1      37.388 -10.802   4.123  1.00  0.00     0.190 HD
HETATM   14  O   UNL     1      38.486 -11.565   6.048  1.00  0.00    -0.266 OA
BRANCH  12  15
HETATM   15  N   UNL     1      38.844 -10.638   2.691  1.00  0.00    -0.274 N 
HETATM   16  H   UNL     1      39.585  -9.988   2.445  1.00  0.00     0.189 HD
BRANCH  15  17
HETATM   17  C   UNL     1      38.179 -11.348   1.723  1.00  0.00     0.186 C 
HETATM   18  S   UNL     1      36.847 -10.813   0.863  1.00  0.00    -0.040 SA
BRANCH  17  19
HETATM   19  N   UNL     1      38.657 -12.590   1.432  1.00  0.00    -0.360 N 
HETATM   20  H   UNL     1      37.938 -13.299   1.346  1.00  0.00     0.162 HD
BRANCH  19  21
HETATM   21  C   UNL     1      40.003 -12.976   1.056  1.00  0.00     0.187 C 
BRANCH  21  22
HETATM   22  C   UNL     1      40.075 -13.173  -0.408  1.00  0.00     0.070 A 
HETATM   23  O   UNL     1      39.384 -14.237  -0.914  1.00  0.00    -0.325 OA
HETATM   24  C   UNL     1      39.584 -14.232  -2.258  1.00  0.00     0.142 A 
HETATM   25  C   UNL     1      40.389 -13.179  -2.623  1.00  0.00     0.027 A 
HETATM   26  C   UNL     1      40.710 -12.493  -1.428  1.00  0.00     0.036 A 
ENDBRANCH  21  22
ENDBRANCH  19  21
ENDBRANCH  17  19
ENDBRANCH  15  17
ENDBRANCH  12  15
ENDBRANCH   7  11
BRANCH   1  27
HETATM   27  C   UNL     1      42.296 -15.115   5.436  1.00  0.00    -0.035 A 
HETATM   28  C   UNL     1      41.303 -15.239   4.451  1.00  0.00     0.012 A 
HETATM   29  C   UNL     1      41.444 -16.143   3.394  1.00  0.00     0.037 A 
HETATM   30  C   UNL     1      42.575 -16.950   3.290  1.00  0.00     0.068 A 
HETATM   31  C   UNL     1      43.552 -16.872   4.279  1.00  0.00     0.037 A 
HETATM   32  C   UNL     1      43.409 -15.971   5.344  1.00  0.00     0.012 A 
BRANCH  30  33
HETATM   33  O   UNL     1      42.599 -17.773   2.200  1.00  0.00    -0.356 OA
HETATM   34  C   UNL     1      43.275 -19.014   2.355  1.00  0.00     0.210 C 
ENDBRANCH  30  33
ENDBRANCH   1  27
BRANCH   8  35
HETATM   35  C   UNL     1      44.980 -11.484   6.230  1.00  0.00     0.409 C 
HETATM   36  F   UNL     1      45.763 -12.063   7.168  1.00  0.00    -0.169 F 
HETATM   37  F   UNL     1      45.794 -11.202   5.174  1.00  0.00    -0.169 F 
HETATM   38  F   UNL     1      44.564 -10.291   6.703  1.00  0.00    -0.169 F 
ENDBRANCH   8  35
TORSDOF 9
ENDMDL
MODEL 9
REMARK VINA RESULT:      -7.9     16.934     18.979
REMARK  9 active torsions:
REMARK  status: ('A' for Active; 'I' for Inactive)
REMARK    1  A    between atoms: O_2  and  C_3 
REMARK    2  A    between atoms: C_6  and  C_7 
REMARK    3  A    between atoms: C_13  and  C_14 
REMARK       I    between atoms: C_14  and  N_15 
REMARK    4  A    between atoms: N_15  and  N_16 
REMARK    5  A    between atoms: N_16  and  C_17 
REMARK    6  A    between atoms: C_17  and  N_18 
REMARK    7  A    between atoms: N_18  and  C_19 
REMARK    8  A    between atoms: C_19  and  C_20 
REMARK    9  A    between atoms: C_27  and  C_28 
ROOT
HETATM    1  C   UNL     1      44.825 -32.125  -0.594  1.00  0.00     0.118 C 
HETATM    2  N   UNL     1      45.806 -31.113  -0.208  1.00  0.00    -0.365 N 
HETATM    3  C   UNL     1      45.719 -29.848  -0.693  1.00  0.00     0.138 A 
HETATM    4  N   UNL     1      44.965 -29.577  -1.806  1.00  0.00    -0.240 N 
HETATM    5  N   UNL     1      44.931 -28.273  -2.121  1.00  0.00    -0.181 NA
HETATM    6  C   UNL     1      45.740 -27.720  -1.212  1.00  0.00     0.160 A 
HETATM    7  C   UNL     1      46.251 -28.644  -0.270  1.00  0.00     0.098 A 
HETATM    8  C   UNL     1      44.154 -30.565  -2.495  1.00  0.00     0.221 C 
HETATM    9  C   UNL     1      44.605 -31.991  -2.112  1.00  0.00     0.066 C 
HETATM   10  H   UNL     1      46.279 -31.268   0.686  1.00  0.00     0.161 HD
ENDROOT
BRANCH   7  11
HETATM   11  C   UNL     1      47.134 -28.462   0.868  1.00  0.00     0.275 C 
HETATM   12  N   UNL     1      48.424 -28.974   0.830  1.00  0.00    -0.263 N 
HETATM   13  H   UNL     1      48.969 -28.646   1.624  1.00  0.00     0.190 HD
HETATM   14  O   UNL     1      46.774 -27.869   1.887  1.00  0.00    -0.266 OA
BRANCH  12  15
HETATM   15  N   UNL     1      49.159 -29.088  -0.368  1.00  0.00    -0.274 N 
HETATM   16  H   UNL     1      49.004 -28.369  -1.069  1.00  0.00     0.189 HD
BRANCH  15  17
HETATM   17  C   UNL     1      49.865 -30.226  -0.669  1.00  0.00     0.186 C 
HETATM   18  S   UNL     1      50.812 -30.455  -2.029  1.00  0.00    -0.040 SA
BRANCH  17  19
HETATM   19  N   UNL     1      49.797 -31.248   0.228  1.00  0.00    -0.360 N 
HETATM   20  H   UNL     1      48.995 -31.855   0.102  1.00  0.00     0.162 HD
BRANCH  19  21
HETATM   21  C   UNL     1      50.793 -31.676   1.191  1.00  0.00     0.187 C 
BRANCH  21  22
HETATM   22  C   UNL     1      50.446 -31.158   2.532  1.00  0.00     0.070 A 
HETATM   23  O   UNL     1      49.118 -31.128   2.849  1.00  0.00    -0.325 OA
HETATM   24  C   UNL     1      49.025 -30.624   4.108  1.00  0.00     0.142 A 
HETATM   25  C   UNL     1      50.273 -30.335   4.606  1.00  0.00     0.027 A 
HETATM   26  C   UNL     1      51.194 -30.677   3.588  1.00  0.00     0.036 A 
ENDBRANCH  21  22
ENDBRANCH  19  21
ENDBRANCH  17  19
ENDBRANCH  15  17
ENDBRANCH  12  15
ENDBRANCH   7  11
BRANCH   1  27
HETATM   27  C   UNL     1      43.538 -32.060   0.222  1.00  0.00    -0.035 A 
HETATM   28  C   UNL     1      43.282 -31.047   1.160  1.00  0.00     0.012 A 
HETATM   29  C   UNL     1      42.083 -31.013   1.877  1.00  0.00     0.037 A 
HETATM   30  C   UNL     1      41.107 -31.989   1.683  1.00  0.00     0.068 A 
HETATM   31  C   UNL     1      41.359 -33.025   0.790  1.00  0.00     0.037 A 
HETATM   32  C   UNL     1      42.564 -33.065   0.075  1.00  0.00     0.012 A 
BRANCH  30  33
HETATM   33  O   UNL     1      39.975 -31.828   2.431  1.00  0.00    -0.356 OA
HETATM   34  C   UNL     1      40.103 -32.034   3.832  1.00  0.00     0.210 C 
ENDBRANCH  30  33
ENDBRANCH   1  27
BRANCH   8  35
HETATM   35  C   UNL     1      44.219 -30.404  -3.997  1.00  0.00     0.409 C 
HETATM   36  F   UNL     1      43.900 -31.538  -4.660  1.00  0.00    -0.169 F 
HETATM   37  F   UNL     1      43.314 -29.464  -4.391  1.00  0.00    -0.169 F 
HETATM   38  F   UNL     1      45.416 -29.972  -4.446  1.00  0.00    -0.169 F 
ENDBRANCH   8  35
TORSDOF 9
ENDMDL
MODEL 10
REMARK VINA RESULT:      -7.8     17.122     18.935
REMARK  9 active torsions:
REMARK  status: ('A' for Active; 'I' for Inactive)
REMARK    1  A    between atoms: O_2  and  C_3 
REMARK    2  A    between atoms: C_6  and  C_7 
REMARK    3  A    between atoms: C_13  and  C_14 
REMARK       I    between atoms: C_14  and  N_15 
REMARK    4  A    between atoms: N_15  and  N_16 
REMARK    5  A    between atoms: N_16  and  C_17 
REMARK    6  A    between atoms: C_17  and  N_18 
REMARK    7  A    between atoms: N_18  and  C_19 
REMARK    8  A    between atoms: C_19  and  C_20 
REMARK    9  A    between atoms: C_27  and  C_28 
ROOT
HETATM    1  C   UNL     1      46.359 -28.064  -0.980  1.00  0.00     0.118 C 
HETATM    2  N   UNL     1      45.397 -28.419   0.060  1.00  0.00    -0.365 N 
HETATM    3  C   UNL     1      44.634 -29.537  -0.057  1.00  0.00     0.138 A 
HETATM    4  N   UNL     1      44.472 -30.147  -1.275  1.00  0.00    -0.240 N 
HETATM    5  N   UNL     1      43.743 -31.271  -1.215  1.00  0.00    -0.181 NA
HETATM    6  C   UNL     1      43.387 -31.333   0.072  1.00  0.00     0.160 A 
HETATM    7  C   UNL     1      43.929 -30.291   0.862  1.00  0.00     0.098 A 
HETATM    8  C   UNL     1      45.142 -29.718  -2.491  1.00  0.00     0.221 C 
HETATM    9  C   UNL     1      45.661 -28.272  -2.337  1.00  0.00     0.066 C 
HETATM   10  H   UNL     1      45.595 -28.053   0.995  1.00  0.00     0.161 HD
ENDROOT
BRANCH   7  11
HETATM   11  C   UNL     1      43.807 -30.001   2.279  1.00  0.00     0.275 C 
HETATM   12  N   UNL     1      44.647 -30.631   3.187  1.00  0.00    -0.263 N 
HETATM   13  H   UNL     1      44.550 -30.226   4.115  1.00  0.00     0.190 HD
HETATM   14  O   UNL     1      42.966 -29.213   2.716  1.00  0.00    -0.266 OA
BRANCH  12  15
HETATM   15  N   UNL     1      45.964 -31.016   2.861  1.00  0.00    -0.274 N 
HETATM   16  H   UNL     1      46.619 -30.268   2.650  1.00  0.00     0.189 HD
BRANCH  15  17
HETATM   17  C   UNL     1      46.286 -32.327   2.614  1.00  0.00     0.186 C 
HETATM   18  S   UNL     1      45.227 -33.621   2.683  1.00  0.00    -0.040 SA
BRANCH  17  19
HETATM   19  N   UNL     1      47.577 -32.590   2.270  1.00  0.00    -0.360 N 
HETATM   20  H   UNL     1      47.853 -32.204   1.374  1.00  0.00     0.162 HD
BRANCH  19  21
HETATM   21  C   UNL     1      48.629 -33.172   3.081  1.00  0.00     0.187 C 
BRANCH  21  22
HETATM   22  C   UNL     1      49.497 -32.100   3.616  1.00  0.00     0.070 A 
HETATM   23  O   UNL     1      48.908 -30.886   3.825  1.00  0.00    -0.325 OA
HETATM   24  C   UNL     1      49.871 -30.060   4.312  1.00  0.00     0.142 A 
HETATM   25  C   UNL     1      51.067 -30.727   4.425  1.00  0.00     0.027 A 
HETATM   26  C   UNL     1      50.830 -32.046   3.974  1.00  0.00     0.036 A 
ENDBRANCH  21  22
ENDBRANCH  19  21
ENDBRANCH  17  19
ENDBRANCH  15  17
ENDBRANCH  12  15
ENDBRANCH   7  11
BRANCH   1  27
HETATM   27  C   UNL     1      47.687 -28.803  -0.853  1.00  0.00    -0.035 A 
HETATM   28  C   UNL     1      48.484 -29.131  -1.961  1.00  0.00     0.012 A 
HETATM   29  C   UNL     1      49.703 -29.796  -1.802  1.00  0.00     0.037 A 
HETATM   30  C   UNL     1      50.161 -30.155  -0.536  1.00  0.00     0.068 A 
HETATM   31  C   UNL     1      49.366 -29.877   0.572  1.00  0.00     0.037 A 
HETATM   32  C   UNL     1      48.139 -29.217   0.414  1.00  0.00     0.012 A 
BRANCH  30  33
HETATM   33  O   UNL     1      51.376 -30.780  -0.518  1.00  0.00    -0.356 OA
HETATM   34  C   UNL     1      51.473 -31.958   0.272  1.00  0.00     0.210 C 
ENDBRANCH  30  33
ENDBRANCH   1  27
BRANCH   8  35
HETATM   35  C   UNL     1      44.233 -29.800  -3.697  1.00  0.00     0.409 C 
HETATM   36  F   UNL     1      43.034 -29.211  -3.491  1.00  0.00    -0.169 F 
HETATM   37  F   UNL     1      44.808 -29.141  -4.743  1.00  0.00    -0.169 F 
HETATM   38  F   UNL     1      44.019 -31.060  -4.131  1.00  0.00    -0.169 F 
ENDBRANCH   8  35
TORSDOF 9
ENDMDL
