MODEL 1
REMARK VINA RESULT:      -9.4      0.000      0.000
REMARK  3 active torsions:
REMARK  status: ('A' for Active; 'I' for Inactive)
REMARK    1  A    between atoms: C_2  and  C_3 
REMARK    2  A    between atoms: C_5  and  N_6 
REMARK       I    between atoms: N_6  and  C_7 
REMARK    3  A    between atoms: C_7  and  C_8 
ROOT
HETATM    1  C   UNL     1      43.366 -14.732   5.538  1.00  0.00     0.155 A 
HETATM    2  N   UNL     1      42.906 -14.241   4.360  1.00  0.00    -0.168 NA
HETATM    3  N   UNL     1      42.859 -15.324   3.550  1.00  0.00    -0.276 N 
HETATM    4  H   UNL     1      42.541 -15.200   2.595  1.00  0.00     0.189 HD
HETATM    5  C   UNL     1      43.267 -16.466   4.160  1.00  0.00     0.074 A 
HETATM    6  C   UNL     1      43.589 -16.125   5.445  1.00  0.00     0.031 A 
HETATM    7  C   UNL     1      44.083 -17.125   6.416  1.00  0.00     0.219 A 
HETATM    8  O   UNL     1      44.119 -18.500   5.935  1.00  0.00    -0.346 OA
HETATM    9  C   UNL     1      43.825 -18.772   4.616  1.00  0.00     0.081 A 
HETATM   10  C   UNL     1      43.392 -17.816   3.675  1.00  0.00     0.026 A 
HETATM   11  C   UNL     1      43.975 -20.104   4.229  1.00  0.00     0.038 A 
HETATM   12  C   UNL     1      43.702 -20.486   2.915  1.00  0.00     0.003 A 
HETATM   13  C   UNL     1      43.277 -19.537   1.983  1.00  0.00     0.001 A 
HETATM   14  C   UNL     1      43.119 -18.201   2.360  1.00  0.00     0.016 A 
ENDROOT
BRANCH   1  15
HETATM   15  C   UNL     1      43.593 -13.866   6.710  1.00  0.00     0.277 C 
HETATM   16  N   UNL     1      44.162 -12.662   6.352  1.00  0.00    -0.322 N 
HETATM   17  H   UNL     1      44.310 -12.571   5.349  1.00  0.00     0.169 HD
HETATM   18  O   UNL     1      43.296 -14.237   7.840  1.00  0.00    -0.266 OA
BRANCH  16  19
HETATM   19  C   UNL     1      44.559 -11.598   7.178  1.00  0.00     0.035 A 
HETATM   20  C   UNL     1      43.735 -11.010   8.141  1.00  0.00     0.036 A 
HETATM   21  C   UNL     1      44.202  -9.954   8.943  1.00  0.00    -0.056 A 
HETATM   22  C   UNL     1      45.507  -9.482   8.761  1.00  0.00     0.007 A 
HETATM   23  C   UNL     1      46.334 -10.062   7.803  1.00  0.00     0.003 A 
HETATM   24  C   UNL     1      45.863 -11.115   7.017  1.00  0.00     0.029 A 
BRANCH  21  25
HETATM   25  C   UNL     1      43.295  -9.326   9.971  1.00  0.00     0.034 C 
HETATM   26  C   UNL     1      44.044  -8.978  11.249  1.00  0.00     0.010 C 
ENDBRANCH  21  25
ENDBRANCH  16  19
ENDBRANCH   1  15
TORSDOF 3
ENDMDL
MODEL 2
REMARK VINA RESULT:      -8.7      2.197      8.696
REMARK  3 active torsions:
REMARK  status: ('A' for Active; 'I' for Inactive)
REMARK    1  A    between atoms: C_2  and  C_3 
REMARK    2  A    between atoms: C_5  and  N_6 
REMARK       I    between atoms: N_6  and  C_7 
REMARK    3  A    between atoms: C_7  and  C_8 
ROOT
HETATM    1  C   UNL     1      42.952 -11.290   5.419  1.00  0.00     0.155 A 
HETATM    2  N   UNL     1      41.835 -10.522   5.369  1.00  0.00    -0.168 NA
HETATM    3  N   UNL     1      41.829  -9.874   6.556  1.00  0.00    -0.276 N 
HETATM    4  H   UNL     1      41.070  -9.232   6.752  1.00  0.00     0.189 HD
HETATM    5  C   UNL     1      42.884 -10.198   7.348  1.00  0.00     0.074 A 
HETATM    6  C   UNL     1      43.635 -11.097   6.642  1.00  0.00     0.031 A 
HETATM    7  C   UNL     1      44.875 -11.681   7.198  1.00  0.00     0.219 A 
HETATM    8  O   UNL     1      45.279 -11.169   8.500  1.00  0.00    -0.346 OA
HETATM    9  C   UNL     1      44.455 -10.298   9.180  1.00  0.00     0.081 A 
HETATM   10  C   UNL     1      43.252  -9.768   8.672  1.00  0.00     0.026 A 
HETATM   11  C   UNL     1      44.886  -9.935  10.456  1.00  0.00     0.038 A 
HETATM   12  C   UNL     1      44.125  -9.056  11.228  1.00  0.00     0.003 A 
HETATM   13  C   UNL     1      42.931  -8.535  10.725  1.00  0.00     0.001 A 
HETATM   14  C   UNL     1      42.492  -8.888   9.446  1.00  0.00     0.016 A 
ENDROOT
BRANCH   1  15
HETATM   15  C   UNL     1      43.332 -12.191   4.315  1.00  0.00     0.277 C 
HETATM   16  N   UNL     1      42.766 -13.441   4.460  1.00  0.00    -0.322 N 
HETATM   17  H   UNL     1      42.176 -13.520   5.286  1.00  0.00     0.169 HD
HETATM   18  O   UNL     1      44.072 -11.814   3.413  1.00  0.00    -0.266 OA
BRANCH  16  19
HETATM   19  C   UNL     1      42.917 -14.573   3.644  1.00  0.00     0.035 A 
HETATM   20  C   UNL     1      43.252 -15.841   4.126  1.00  0.00     0.036 A 
HETATM   21  C   UNL     1      43.375 -16.936   3.253  1.00  0.00    -0.056 A 
HETATM   22  C   UNL     1      43.171 -16.744   1.881  1.00  0.00     0.007 A 
HETATM   23  C   UNL     1      42.838 -15.483   1.393  1.00  0.00     0.003 A 
HETATM   24  C   UNL     1      42.710 -14.404   2.270  1.00  0.00     0.029 A 
BRANCH  21  25
HETATM   25  C   UNL     1      43.747 -18.295   3.789  1.00  0.00     0.034 C 
HETATM   26  C   UNL     1      43.723 -19.359   2.703  1.00  0.00     0.010 C 
ENDBRANCH  21  25
ENDBRANCH  16  19
ENDBRANCH   1  15
TORSDOF 3
ENDMDL
MODEL 3
REMARK VINA RESULT:      -8.7      1.736      2.460
REMARK  3 active torsions:
REMARK  status: ('A' for Active; 'I' for Inactive)
REMARK    1  A    between atoms: C_2  and  C_3 
REMARK    2  A    between atoms: C_5  and  N_6 
REMARK       I    between atoms: N_6  and  C_7 
REMARK    3  A    between atoms: C_7  and  C_8 
ROOT
HETATM    1  C   UNL     1      43.041 -14.688   3.044  1.00  0.00     0.155 A 
HETATM    2  N   UNL     1      42.626 -14.909   1.772  1.00  0.00    -0.168 NA
HETATM    3  N   UNL     1      42.706 -16.252   1.630  1.00  0.00    -0.276 N 
HETATM    4  H   UNL     1      42.443 -16.660   0.740  1.00  0.00     0.189 HD
HETATM    5  C   UNL     1      43.152 -16.882   2.747  1.00  0.00     0.074 A 
HETATM    6  C   UNL     1      43.366 -15.907   3.682  1.00  0.00     0.031 A 
HETATM    7  C   UNL     1      43.864 -16.225   5.038  1.00  0.00     0.219 A 
HETATM    8  O   UNL     1      44.025 -17.643   5.329  1.00  0.00    -0.346 OA
HETATM    9  C   UNL     1      43.837 -18.574   4.330  1.00  0.00     0.081 A 
HETATM   10  C   UNL     1      43.401 -18.274   3.024  1.00  0.00     0.026 A 
HETATM   11  C   UNL     1      44.103 -19.896   4.683  1.00  0.00     0.038 A 
HETATM   12  C   UNL     1      43.943 -20.917   3.744  1.00  0.00     0.003 A 
HETATM   13  C   UNL     1      43.514 -20.617   2.450  1.00  0.00     0.001 A 
HETATM   14  C   UNL     1      43.240 -19.296   2.086  1.00  0.00     0.016 A 
ENDROOT
BRANCH   1  15
HETATM   15  C   UNL     1      43.133 -13.330   3.612  1.00  0.00     0.277 C 
HETATM   16  N   UNL     1      43.218 -13.358   4.988  1.00  0.00    -0.322 N 
HETATM   17  H   UNL     1      43.221 -14.302   5.371  1.00  0.00     0.169 HD
HETATM   18  O   UNL     1      43.121 -12.338   2.892  1.00  0.00    -0.266 OA
BRANCH  16  19
HETATM   19  C   UNL     1      43.283 -12.281   5.887  1.00  0.00     0.035 A 
HETATM   20  C   UNL     1      44.418 -11.958   6.635  1.00  0.00     0.036 A 
HETATM   21  C   UNL     1      44.417 -10.856   7.508  1.00  0.00    -0.056 A 
HETATM   22  C   UNL     1      43.256 -10.085   7.635  1.00  0.00     0.007 A 
HETATM   23  C   UNL     1      42.121 -10.401   6.894  1.00  0.00     0.003 A 
HETATM   24  C   UNL     1      42.134 -11.492   6.023  1.00  0.00     0.029 A 
BRANCH  21  25
HETATM   25  C   UNL     1      45.648 -10.528   8.315  1.00  0.00     0.034 C 
HETATM   26  C   UNL     1      45.869  -9.027   8.426  1.00  0.00     0.010 C 
ENDBRANCH  21  25
ENDBRANCH  16  19
ENDBRANCH   1  15
TORSDOF 3
ENDMDL
MODEL 4
REMARK VINA RESULT:      -8.5      5.492      8.775
REMARK  3 active torsions:
REMARK  status: ('A' for Active; 'I' for Inactive)
REMARK    1  A    between atoms: C_2  and  C_3 
REMARK    2  A    between atoms: C_5  and  N_6 
REMARK       I    between atoms: N_6  and  C_7 
REMARK    3  A    between atoms: C_7  and  C_8 
ROOT
HETATM    1  C   UNL     1      41.359 -13.954   1.920  1.00  0.00     0.155 A 
HETATM    2  N   UNL     1      41.939 -12.812   2.367  1.00  0.00    -0.168 NA
HETATM    3  N   UNL     1      41.669 -11.907   1.398  1.00  0.00    -0.276 N 
HETATM    4  H   UNL     1      42.012 -10.960   1.513  1.00  0.00     0.189 HD
HETATM    5  C   UNL     1      40.951 -12.423   0.368  1.00  0.00     0.074 A 
HETATM    6  C   UNL     1      40.723 -13.736   0.676  1.00  0.00     0.031 A 
HETATM    7  C   UNL     1      39.965 -14.628  -0.229  1.00  0.00     0.219 A 
HETATM    8  O   UNL     1      39.413 -13.991  -1.417  1.00  0.00    -0.346 OA
HETATM    9  C   UNL     1      39.718 -12.676  -1.694  1.00  0.00     0.081 A 
HETATM   10  C   UNL     1      40.473 -11.832  -0.854  1.00  0.00     0.026 A 
HETATM   11  C   UNL     1      39.217 -12.183  -2.899  1.00  0.00     0.038 A 
HETATM   12  C   UNL     1      39.468 -10.862  -3.273  1.00  0.00     0.003 A 
HETATM   13  C   UNL     1      40.218 -10.029  -2.442  1.00  0.00     0.001 A 
HETATM   14  C   UNL     1      40.722 -10.510  -1.231  1.00  0.00     0.016 A 
ENDROOT
BRANCH   1  15
HETATM   15  C   UNL     1      41.435 -15.218   2.676  1.00  0.00     0.277 C 
HETATM   16  N   UNL     1      42.741 -15.613   2.878  1.00  0.00    -0.322 N 
HETATM   17  H   UNL     1      43.421 -14.963   2.489  1.00  0.00     0.169 HD
HETATM   18  O   UNL     1      40.421 -15.799   3.045  1.00  0.00    -0.266 OA
BRANCH  16  19
HETATM   19  C   UNL     1      43.221 -16.768   3.515  1.00  0.00     0.035 A 
HETATM   20  C   UNL     1      43.322 -18.016   2.893  1.00  0.00     0.036 A 
HETATM   21  C   UNL     1      43.824 -19.130   3.588  1.00  0.00    -0.056 A 
HETATM   22  C   UNL     1      44.213 -18.984   4.924  1.00  0.00     0.007 A 
HETATM   23  C   UNL     1      44.115 -17.745   5.551  1.00  0.00     0.003 A 
HETATM   24  C   UNL     1      43.623 -16.643   4.850  1.00  0.00     0.029 A 
BRANCH  21  25
HETATM   25  C   UNL     1      43.917 -20.471   2.903  1.00  0.00     0.034 C 
HETATM   26  C   UNL     1      43.323 -20.435   1.504  1.00  0.00     0.010 C 
ENDBRANCH  21  25
ENDBRANCH  16  19
ENDBRANCH   1  15
TORSDOF 3
ENDMDL
MODEL 5
REMARK VINA RESULT:      -8.4      4.863      7.250
REMARK  3 active torsions:
REMARK  status: ('A' for Active; 'I' for Inactive)
REMARK    1  A    between atoms: C_2  and  C_3 
REMARK    2  A    between atoms: C_5  and  N_6 
REMARK       I    between atoms: N_6  and  C_7 
REMARK    3  A    between atoms: C_7  and  C_8 
ROOT
HETATM    1  C   UNL     1      42.601 -15.132   3.430  1.00  0.00     0.155 A 
HETATM    2  N   UNL     1      42.846 -14.889   4.741  1.00  0.00    -0.168 NA
HETATM    3  N   UNL     1      43.229 -16.089   5.232  1.00  0.00    -0.276 N 
HETATM    4  H   UNL     1      43.465 -16.156   6.215  1.00  0.00     0.189 HD
HETATM    5  C   UNL     1      43.234 -17.072   4.296  1.00  0.00     0.074 A 
HETATM    6  C   UNL     1      42.848 -16.489   3.120  1.00  0.00     0.031 A 
HETATM    7  C   UNL     1      42.734 -17.265   1.866  1.00  0.00     0.219 A 
HETATM    8  O   UNL     1      43.141 -18.661   1.955  1.00  0.00    -0.346 OA
HETATM    9  C   UNL     1      43.477 -19.201   3.178  1.00  0.00     0.081 A 
HETATM   10  C   UNL     1      43.550 -18.475   4.384  1.00  0.00     0.026 A 
HETATM   11  C   UNL     1      43.766 -20.565   3.174  1.00  0.00     0.038 A 
HETATM   12  C   UNL     1      44.118 -21.209   4.362  1.00  0.00     0.003 A 
HETATM   13  C   UNL     1      44.186 -20.489   5.556  1.00  0.00     0.001 A 
HETATM   14  C   UNL     1      43.903 -19.121   5.571  1.00  0.00     0.016 A 
ENDROOT
BRANCH   1  15
HETATM   15  C   UNL     1      42.129 -14.077   2.513  1.00  0.00     0.277 C 
HETATM   16  N   UNL     1      40.912 -14.400   1.950  1.00  0.00    -0.322 N 
HETATM   17  H   UNL     1      40.544 -15.293   2.273  1.00  0.00     0.169 HD
HETATM   18  O   UNL     1      42.791 -13.065   2.315  1.00  0.00    -0.266 OA
BRANCH  16  19
HETATM   19  C   UNL     1      40.161 -13.677   1.009  1.00  0.00     0.035 A 
HETATM   20  C   UNL     1      40.086 -14.007  -0.347  1.00  0.00     0.036 A 
HETATM   21  C   UNL     1      39.304 -13.246  -1.233  1.00  0.00    -0.056 A 
HETATM   22  C   UNL     1      38.603 -12.137  -0.747  1.00  0.00     0.007 A 
HETATM   23  C   UNL     1      38.673 -11.801   0.603  1.00  0.00     0.003 A 
HETATM   24  C   UNL     1      39.446 -12.568   1.476  1.00  0.00     0.029 A 
BRANCH  21  25
HETATM   25  C   UNL     1      39.243 -13.612  -2.695  1.00  0.00     0.034 C 
HETATM   26  C   UNL     1      38.682 -15.010  -2.906  1.00  0.00     0.010 C 
ENDBRANCH  21  25
ENDBRANCH  16  19
ENDBRANCH   1  15
TORSDOF 3
ENDMDL
MODEL 6
REMARK VINA RESULT:      -8.4      1.711      2.085
REMARK  3 active torsions:
REMARK  status: ('A' for Active; 'I' for Inactive)
REMARK    1  A    between atoms: C_2  and  C_3 
REMARK    2  A    between atoms: C_5  and  N_6 
REMARK       I    between atoms: N_6  and  C_7 
REMARK    3  A    between atoms: C_7  and  C_8 
ROOT
HETATM    1  C   UNL     1      43.653 -14.759   6.290  1.00  0.00     0.155 A 
HETATM    2  N   UNL     1      44.098 -15.585   7.269  1.00  0.00    -0.168 NA
HETATM    3  N   UNL     1      44.172 -16.795   6.669  1.00  0.00    -0.276 N 
HETATM    4  H   UNL     1      44.485 -17.588   7.218  1.00  0.00     0.189 HD
HETATM    5  C   UNL     1      43.795 -16.769   5.365  1.00  0.00     0.074 A 
HETATM    6  C   UNL     1      43.467 -15.472   5.083  1.00  0.00     0.031 A 
HETATM    7  C   UNL     1      43.001 -15.061   3.741  1.00  0.00     0.219 A 
HETATM    8  O   UNL     1      43.000 -16.110   2.730  1.00  0.00    -0.346 OA
HETATM    9  C   UNL     1      43.298 -17.407   3.088  1.00  0.00     0.081 A 
HETATM   10  C   UNL     1      43.705 -17.812   4.376  1.00  0.00     0.026 A 
HETATM   11  C   UNL     1      43.183 -18.353   2.070  1.00  0.00     0.038 A 
HETATM   12  C   UNL     1      43.463 -19.696   2.328  1.00  0.00     0.003 A 
HETATM   13  C   UNL     1      43.862 -20.096   3.605  1.00  0.00     0.001 A 
HETATM   14  C   UNL     1      43.985 -19.156   4.631  1.00  0.00     0.016 A 
ENDROOT
BRANCH   1  15
HETATM   15  C   UNL     1      43.405 -13.325   6.528  1.00  0.00     0.277 C 
HETATM   16  N   UNL     1      44.506 -12.702   7.078  1.00  0.00    -0.322 N 
HETATM   17  H   UNL     1      45.298 -13.328   7.209  1.00  0.00     0.169 HD
HETATM   18  O   UNL     1      42.326 -12.813   6.254  1.00  0.00    -0.266 OA
BRANCH  16  19
HETATM   19  C   UNL     1      44.649 -11.364   7.479  1.00  0.00     0.035 A 
HETATM   20  C   UNL     1      43.575 -10.526   7.793  1.00  0.00     0.036 A 
HETATM   21  C   UNL     1      43.791  -9.198   8.199  1.00  0.00    -0.056 A 
HETATM   22  C   UNL     1      45.101  -8.710   8.277  1.00  0.00     0.007 A 
HETATM   23  C   UNL     1      46.176  -9.539   7.965  1.00  0.00     0.003 A 
HETATM   24  C   UNL     1      45.951 -10.858   7.570  1.00  0.00     0.029 A 
BRANCH  21  25
HETATM   25  C   UNL     1      42.620  -8.305   8.524  1.00  0.00     0.034 C 
HETATM   26  C   UNL     1      43.035  -7.115   9.377  1.00  0.00     0.010 C 
ENDBRANCH  21  25
ENDBRANCH  16  19
ENDBRANCH   1  15
TORSDOF 3
ENDMDL
MODEL 7
REMARK VINA RESULT:      -8.4      6.068      9.386
REMARK  3 active torsions:
REMARK  status: ('A' for Active; 'I' for Inactive)
REMARK    1  A    between atoms: C_2  and  C_3 
REMARK    2  A    between atoms: C_5  and  N_6 
REMARK       I    between atoms: N_6  and  C_7 
REMARK    3  A    between atoms: C_7  and  C_8 
ROOT
HETATM    1  C   UNL     1      40.737 -13.895   0.117  1.00  0.00     0.155 A 
HETATM    2  N   UNL     1      40.203 -14.210  -1.089  1.00  0.00    -0.168 NA
HETATM    3  N   UNL     1      40.228 -13.044  -1.774  1.00  0.00    -0.276 N 
HETATM    4  H   UNL     1      39.869 -13.032  -2.721  1.00  0.00     0.189 HD
HETATM    5  C   UNL     1      40.749 -12.014  -1.058  1.00  0.00     0.074 A 
HETATM    6  C   UNL     1      41.099 -12.528   0.161  1.00  0.00     0.031 A 
HETATM    7  C   UNL     1      41.703 -11.687   1.217  1.00  0.00     0.219 A 
HETATM    8  O   UNL     1      41.973 -10.306   0.839  1.00  0.00    -0.346 OA
HETATM    9  C   UNL     1      41.555  -9.837  -0.388  1.00  0.00     0.081 A 
HETATM   10  C   UNL     1      40.943 -10.625  -1.384  1.00  0.00     0.026 A 
HETATM   11  C   UNL     1      41.779  -8.480  -0.621  1.00  0.00     0.038 A 
HETATM   12  C   UNL     1      41.394  -7.905  -1.833  1.00  0.00     0.003 A 
HETATM   13  C   UNL     1      40.785  -8.687  -2.817  1.00  0.00     0.001 A 
HETATM   14  C   UNL     1      40.559 -10.048  -2.596  1.00  0.00     0.016 A 
ENDROOT
BRANCH   1  15
HETATM   15  C   UNL     1      40.876 -14.891   1.196  1.00  0.00     0.277 C 
HETATM   16  N   UNL     1      42.174 -15.342   1.310  1.00  0.00    -0.322 N 
HETATM   17  H   UNL     1      42.811 -14.902   0.647  1.00  0.00     0.169 HD
HETATM   18  O   UNL     1      39.911 -15.237   1.868  1.00  0.00    -0.266 OA
BRANCH  16  19
HETATM   19  C   UNL     1      42.695 -16.309   2.184  1.00  0.00     0.035 A 
HETATM   20  C   UNL     1      42.885 -17.650   1.838  1.00  0.00     0.036 A 
HETATM   21  C   UNL     1      43.424 -18.563   2.761  1.00  0.00    -0.056 A 
HETATM   22  C   UNL     1      43.759 -18.121   4.046  1.00  0.00     0.007 A 
HETATM   23  C   UNL     1      43.572 -16.787   4.398  1.00  0.00     0.003 A 
HETATM   24  C   UNL     1      43.044 -15.886   3.472  1.00  0.00     0.029 A 
BRANCH  21  25
HETATM   25  C   UNL     1      43.613 -20.008   2.374  1.00  0.00     0.034 C 
HETATM   26  C   UNL     1      43.835 -20.896   3.589  1.00  0.00     0.010 C 
ENDBRANCH  21  25
ENDBRANCH  16  19
ENDBRANCH   1  15
TORSDOF 3
ENDMDL
MODEL 8
REMARK VINA RESULT:      -8.1      2.170      3.280
REMARK  3 active torsions:
REMARK  status: ('A' for Active; 'I' for Inactive)
REMARK    1  A    between atoms: C_2  and  C_3 
REMARK    2  A    between atoms: C_5  and  N_6 
REMARK       I    between atoms: N_6  and  C_7 
REMARK    3  A    between atoms: C_7  and  C_8 
ROOT
HETATM    1  C   UNL     1      43.752 -11.752   5.806  1.00  0.00     0.155 A 
HETATM    2  N   UNL     1      43.738 -11.053   4.644  1.00  0.00    -0.168 NA
HETATM    3  N   UNL     1      43.465 -11.986   3.703  1.00  0.00    -0.276 N 
HETATM    4  H   UNL     1      43.406 -11.692   2.735  1.00  0.00     0.189 HD
HETATM    5  C   UNL     1      43.309 -13.233   4.217  1.00  0.00     0.074 A 
HETATM    6  C   UNL     1      43.474 -13.118   5.569  1.00  0.00     0.031 A 
HETATM    7  C   UNL     1      43.377 -14.288   6.468  1.00  0.00     0.219 A 
HETATM    8  O   UNL     1      43.011 -15.543   5.825  1.00  0.00    -0.346 OA
HETATM    9  C   UNL     1      42.902 -15.603   4.452  1.00  0.00     0.081 A 
HETATM   10  C   UNL     1      43.033 -14.498   3.586  1.00  0.00     0.026 A 
HETATM   11  C   UNL     1      42.637 -16.866   3.924  1.00  0.00     0.038 A 
HETATM   12  C   UNL     1      42.507 -17.036   2.545  1.00  0.00     0.003 A 
HETATM   13  C   UNL     1      42.641 -15.941   1.689  1.00  0.00     0.001 A 
HETATM   14  C   UNL     1      42.903 -14.670   2.206  1.00  0.00     0.016 A 
ENDROOT
BRANCH   1  15
HETATM   15  C   UNL     1      44.042 -11.110   7.102  1.00  0.00     0.277 C 
HETATM   16  N   UNL     1      43.156 -10.087   7.373  1.00  0.00    -0.322 N 
HETATM   17  H   UNL     1      42.452  -9.963   6.648  1.00  0.00     0.169 HD
HETATM   18  O   UNL     1      44.976 -11.484   7.801  1.00  0.00    -0.266 OA
BRANCH  16  19
HETATM   19  C   UNL     1      43.125  -9.223   8.479  1.00  0.00     0.035 A 
HETATM   20  C   UNL     1      43.055  -9.657   9.806  1.00  0.00     0.036 A 
HETATM   21  C   UNL     1      43.040  -8.736  10.867  1.00  0.00    -0.056 A 
HETATM   22  C   UNL     1      43.082  -7.366  10.584  1.00  0.00     0.007 A 
HETATM   23  C   UNL     1      43.151  -6.925   9.265  1.00  0.00     0.003 A 
HETATM   24  C   UNL     1      43.174  -7.848   8.218  1.00  0.00     0.029 A 
BRANCH  21  25
HETATM   25  C   UNL     1      42.954  -9.222  12.292  1.00  0.00     0.034 C 
HETATM   26  C   UNL     1      43.048  -8.077  13.288  1.00  0.00     0.010 C 
ENDBRANCH  21  25
ENDBRANCH  16  19
ENDBRANCH   1  15
TORSDOF 3
ENDMDL
MODEL 9
REMARK VINA RESULT:      -8.0      4.195      5.763
REMARK  3 active torsions:
REMARK  status: ('A' for Active; 'I' for Inactive)
REMARK    1  A    between atoms: C_2  and  C_3 
REMARK    2  A    between atoms: C_5  and  N_6 
REMARK       I    between atoms: N_6  and  C_7 
REMARK    3  A    between atoms: C_7  and  C_8 
ROOT
HETATM    1  C   UNL     1      42.729 -14.812   4.240  1.00  0.00     0.155 A 
HETATM    2  N   UNL     1      43.105 -14.904   5.540  1.00  0.00    -0.168 NA
HETATM    3  N   UNL     1      43.480 -16.195   5.683  1.00  0.00    -0.276 N 
HETATM    4  H   UNL     1      43.804 -16.506   6.592  1.00  0.00     0.189 HD
HETATM    5  C   UNL     1      43.356 -16.918   4.540  1.00  0.00     0.074 A 
HETATM    6  C   UNL     1      42.887 -16.056   3.587  1.00  0.00     0.031 A 
HETATM    7  C   UNL     1      42.624 -16.498   2.200  1.00  0.00     0.219 A 
HETATM    8  O   UNL     1      42.978 -17.880   1.905  1.00  0.00    -0.346 OA
HETATM    9  C   UNL     1      43.403 -18.710   2.920  1.00  0.00     0.081 A 
HETATM   10  C   UNL     1      43.618 -18.305   4.253  1.00  0.00     0.026 A 
HETATM   11  C   UNL     1      43.632 -20.037   2.556  1.00  0.00     0.038 A 
HETATM   12  C   UNL     1      44.065 -20.959   3.509  1.00  0.00     0.003 A 
HETATM   13  C   UNL     1      44.275 -20.557   4.830  1.00  0.00     0.001 A 
HETATM   14  C   UNL     1      44.053 -19.229   5.205  1.00  0.00     0.016 A 
ENDROOT
BRANCH   1  15
HETATM   15  C   UNL     1      42.218 -13.556   3.659  1.00  0.00     0.277 C 
HETATM   16  N   UNL     1      40.881 -13.372   3.939  1.00  0.00    -0.322 N 
HETATM   17  H   UNL     1      40.483 -14.118   4.507  1.00  0.00     0.169 HD
HETATM   18  O   UNL     1      42.947 -12.814   3.011  1.00  0.00    -0.266 OA
BRANCH  16  19
HETATM   19  C   UNL     1      40.034 -12.327   3.535  1.00  0.00     0.035 A 
HETATM   20  C   UNL     1      39.304 -12.334   2.343  1.00  0.00     0.036 A 
HETATM   21  C   UNL     1      38.465 -11.258   2.006  1.00  0.00    -0.056 A 
HETATM   22  C   UNL     1      38.374 -10.163   2.873  1.00  0.00     0.007 A 
HETATM   23  C   UNL     1      39.099 -10.149   4.061  1.00  0.00     0.003 A 
HETATM   24  C   UNL     1      39.923 -11.226   4.391  1.00  0.00     0.029 A 
BRANCH  21  25
HETATM   25  C   UNL     1      37.691 -11.278   0.711  1.00  0.00     0.034 C 
HETATM   26  C   UNL     1      38.451 -11.998  -0.392  1.00  0.00     0.010 C 
ENDBRANCH  21  25
ENDBRANCH  16  19
ENDBRANCH   1  15
TORSDOF 3
ENDMDL
MODEL 10
REMARK VINA RESULT:      -8.0      2.603      9.638
REMARK  3 active torsions:
REMARK  status: ('A' for Active; 'I' for Inactive)
REMARK    1  A    between atoms: C_2  and  C_3 
REMARK    2  A    between atoms: C_5  and  N_6 
REMARK       I    between atoms: N_6  and  C_7 
REMARK    3  A    between atoms: C_7  and  C_8 
ROOT
HETATM    1  C   UNL     1      44.357 -10.680   8.825  1.00  0.00     0.155 A 
HETATM    2  N   UNL     1      45.379 -10.811   9.706  1.00  0.00    -0.168 NA
HETATM    3  N   UNL     1      45.009 -10.042  10.755  1.00  0.00    -0.276 N 
HETATM    4  H   UNL     1      45.631  -9.980  11.553  1.00  0.00     0.189 HD
HETATM    5  C   UNL     1      43.808  -9.435  10.575  1.00  0.00     0.074 A 
HETATM    6  C   UNL     1      43.354  -9.833   9.348  1.00  0.00     0.031 A 
HETATM    7  C   UNL     1      42.060  -9.362   8.806  1.00  0.00     0.219 A 
HETATM    8  O   UNL     1      41.276  -8.522   9.700  1.00  0.00    -0.346 OA
HETATM    9  C   UNL     1      41.809  -8.118  10.906  1.00  0.00     0.081 A 
HETATM   10  C   UNL     1      43.058  -8.532  11.411  1.00  0.00     0.026 A 
HETATM   11  C   UNL     1      41.018  -7.243  11.651  1.00  0.00     0.038 A 
HETATM   12  C   UNL     1      41.466  -6.775  12.887  1.00  0.00     0.003 A 
HETATM   13  C   UNL     1      42.706  -7.184  13.384  1.00  0.00     0.001 A 
HETATM   14  C   UNL     1      43.504  -8.064  12.648  1.00  0.00     0.016 A 
ENDROOT
BRANCH   1  15
HETATM   15  C   UNL     1      44.367 -11.348   7.510  1.00  0.00     0.277 C 
HETATM   16  N   UNL     1      43.557 -12.464   7.499  1.00  0.00    -0.322 N 
HETATM   17  H   UNL     1      43.084 -12.625   8.386  1.00  0.00     0.169 HD
HETATM   18  O   UNL     1      45.042 -10.915   6.583  1.00  0.00    -0.266 OA
BRANCH  16  19
HETATM   19  C   UNL     1      43.333 -13.377   6.455  1.00  0.00     0.035 A 
HETATM   20  C   UNL     1      43.790 -14.698   6.465  1.00  0.00     0.036 A 
HETATM   21  C   UNL     1      43.519 -15.563   5.391  1.00  0.00    -0.056 A 
HETATM   22  C   UNL     1      42.793 -15.084   4.294  1.00  0.00     0.007 A 
HETATM   23  C   UNL     1      42.335 -13.769   4.276  1.00  0.00     0.003 A 
HETATM   24  C   UNL     1      42.603 -12.921   5.352  1.00  0.00     0.029 A 
BRANCH  21  25
HETATM   25  C   UNL     1      44.027 -16.982   5.414  1.00  0.00     0.034 C 
HETATM   26  C   UNL     1      43.746 -17.706   4.106  1.00  0.00     0.010 C 
ENDBRANCH  21  25
ENDBRANCH  16  19
ENDBRANCH   1  15
TORSDOF 3
ENDMDL
