MODEL 1
REMARK VINA RESULT:     -10.1      0.000      0.000
REMARK  4 active torsions:
REMARK  status: ('A' for Active; 'I' for Inactive)
REMARK    1  A    between atoms: C_2  and  C_3 
REMARK       I    between atoms: C_3  and  N_4 
REMARK    2  A    between atoms: N_4  and  N_5 
REMARK    3  A    between atoms: N_5  and  C_6 
REMARK    4  A    between atoms: N_7  and  C_8 
ROOT
HETATM    1  C   UNL     1      42.918 -13.756   5.941  1.00  0.00     0.208 A 
HETATM    2  N   UNL     1      42.171 -13.037   5.010  1.00  0.00    -0.251 N 
HETATM    3  C   UNL     1      41.917 -13.571   3.747  1.00  0.00     0.264 A 
HETATM    4  O   UNL     1      41.301 -12.973   2.866  1.00  0.00    -0.267 OA
HETATM    5  C   UNL     1      42.372 -14.973   3.498  1.00  0.00     0.049 A 
HETATM    6  C   UNL     1      42.996 -15.579   4.528  1.00  0.00     0.083 A 
HETATM    7  C   UNL     1      43.378 -17.012   4.399  1.00  0.00    -0.000 A 
HETATM    8  C   UNL     1      43.455 -17.608   3.131  1.00  0.00    -0.044 A 
HETATM    9  C   UNL     1      43.834 -18.952   2.997  1.00  0.00     0.008 A 
HETATM   10  C   UNL     1      44.114 -19.716   4.128  1.00  0.00     0.001 A 
HETATM   11  C   UNL     1      44.029 -19.141   5.392  1.00  0.00     0.001 A 
HETATM   12  C   UNL     1      43.666 -17.798   5.526  1.00  0.00     0.014 A 
HETATM   13  C   UNL     1      43.183 -16.764   1.919  1.00  0.00     0.054 C 
HETATM   14  C   UNL     1      42.078 -15.702   2.171  1.00  0.00    -0.002 C 
HETATM   15  C   UNL     1      40.684 -16.376   2.222  1.00  0.00     0.015 C 
HETATM   16  C   UNL     1      39.724 -15.346   1.650  1.00  0.00     0.001 C 
HETATM   17  C   UNL     1      40.511 -14.688   0.528  1.00  0.00     0.001 C 
HETATM   18  C   UNL     1      41.994 -14.827   0.890  1.00  0.00     0.015 C 
HETATM   19  N   UNL     1      43.310 -14.979   5.714  1.00  0.00    -0.217 NA
ENDROOT
BRANCH   1  20
HETATM   20  N   UNL     1      43.313 -13.162   7.133  1.00  0.00    -0.171 NA
HETATM   21  H   UNL     1      42.612 -12.584   7.609  1.00  0.00     0.156 HD
BRANCH  20  22
HETATM   22  N   UNL     1      44.580 -12.539   7.108  1.00  0.00    -0.284 N 
HETATM   23  C   UNL     1      44.631 -11.255   7.620  1.00  0.00     0.231 C 
HETATM   24  O   UNL     1      43.688 -10.746   8.220  1.00  0.00    -0.272 OA
HETATM   25  H   UNL     1      45.164 -12.824   6.321  1.00  0.00     0.184 HD
BRANCH  23  26
HETATM   26  C   UNL     1      45.946 -10.559   7.342  1.00  0.00     0.100 C 
HETATM   27  C   UNL     1      46.100  -9.285   8.156  1.00  0.00     0.014 C 
ENDBRANCH  23  26
ENDBRANCH  20  22
ENDBRANCH   1  20
BRANCH   2  28
HETATM   28  C   UNL     1      41.615 -11.749   5.340  1.00  0.00     0.045 A 
HETATM   29  C   UNL     1      40.400 -11.649   6.038  1.00  0.00     0.030 A 
HETATM   30  C   UNL     1      39.865 -10.403   6.377  1.00  0.00     0.002 A 
HETATM   31  C   UNL     1      40.531  -9.237   6.015  1.00  0.00     0.000 A 
HETATM   32  C   UNL     1      41.728  -9.316   5.306  1.00  0.00     0.002 A 
HETATM   33  C   UNL     1      42.263 -10.562   4.968  1.00  0.00     0.030 A 
ENDBRANCH   2  28
TORSDOF 4
ENDMDL
MODEL 2
REMARK VINA RESULT:      -9.3      1.923      4.918
REMARK  4 active torsions:
REMARK  status: ('A' for Active; 'I' for Inactive)
REMARK    1  A    between atoms: C_2  and  C_3 
REMARK       I    between atoms: C_3  and  N_4 
REMARK    2  A    between atoms: N_4  and  N_5 
REMARK    3  A    between atoms: N_5  and  C_6 
REMARK    4  A    between atoms: N_7  and  C_8 
ROOT
HETATM    1  C   UNL     1      42.732 -11.498   4.461  1.00  0.00     0.208 A 
HETATM    2  N   UNL     1      43.267 -12.201   5.539  1.00  0.00    -0.251 N 
HETATM    3  C   UNL     1      42.998 -13.560   5.696  1.00  0.00     0.264 A 
HETATM    4  O   UNL     1      43.405 -14.230   6.644  1.00  0.00    -0.267 OA
HETATM    5  C   UNL     1      42.228 -14.231   4.604  1.00  0.00     0.049 A 
HETATM    6  C   UNL     1      41.860 -13.442   3.575  1.00  0.00     0.083 A 
HETATM    7  C   UNL     1      41.189 -14.057   2.397  1.00  0.00    -0.000 A 
HETATM    8  C   UNL     1      40.600 -15.325   2.506  1.00  0.00    -0.044 A 
HETATM    9  C   UNL     1      39.948 -15.904   1.408  1.00  0.00     0.008 A 
HETATM   10  C   UNL     1      39.901 -15.233   0.187  1.00  0.00     0.001 A 
HETATM   11  C   UNL     1      40.492 -13.980   0.062  1.00  0.00     0.001 A 
HETATM   12  C   UNL     1      41.129 -13.395   1.161  1.00  0.00     0.014 A 
HETATM   13  C   UNL     1      40.629 -16.023   3.836  1.00  0.00     0.054 C 
HETATM   14  C   UNL     1      41.939 -15.746   4.623  1.00  0.00    -0.002 C 
HETATM   15  C   UNL     1      43.120 -16.529   3.997  1.00  0.00     0.015 C 
HETATM   16  C   UNL     1      44.026 -16.880   5.165  1.00  0.00     0.001 C 
HETATM   17  C   UNL     1      43.065 -17.196   6.300  1.00  0.00     0.001 C 
HETATM   18  C   UNL     1      41.777 -16.415   6.016  1.00  0.00     0.015 C 
HETATM   19  N   UNL     1      42.061 -12.093   3.515  1.00  0.00    -0.217 NA
ENDROOT
BRANCH   1  20
HETATM   20  N   UNL     1      42.858 -10.116   4.394  1.00  0.00    -0.171 NA
HETATM   21  H   UNL     1      43.269  -9.655   5.212  1.00  0.00     0.156 HD
BRANCH  20  22
HETATM   22  N   UNL     1      41.723  -9.427   3.916  1.00  0.00    -0.284 N 
HETATM   23  C   UNL     1      40.874  -8.918   4.882  1.00  0.00     0.231 C 
HETATM   24  O   UNL     1      41.167  -8.904   6.076  1.00  0.00    -0.272 OA
HETATM   25  H   UNL     1      41.367  -9.783   3.027  1.00  0.00     0.184 HD
BRANCH  23  26
HETATM   26  C   UNL     1      39.565  -8.412   4.316  1.00  0.00     0.100 C 
HETATM   27  C   UNL     1      38.368  -9.129   4.917  1.00  0.00     0.014 C 
ENDBRANCH  23  26
ENDBRANCH  20  22
ENDBRANCH   1  20
BRANCH   2  28
HETATM   28  C   UNL     1      44.135 -11.554   6.490  1.00  0.00     0.045 A 
HETATM   29  C   UNL     1      43.616 -10.991   7.669  1.00  0.00     0.030 A 
HETATM   30  C   UNL     1      44.455 -10.379   8.604  1.00  0.00     0.002 A 
HETATM   31  C   UNL     1      45.825 -10.311   8.372  1.00  0.00     0.000 A 
HETATM   32  C   UNL     1      46.355 -10.848   7.201  1.00  0.00     0.002 A 
HETATM   33  C   UNL     1      45.516 -11.460   6.266  1.00  0.00     0.030 A 
ENDBRANCH   2  28
TORSDOF 4
ENDMDL
MODEL 3
REMARK VINA RESULT:      -9.1      1.203      1.637
REMARK  4 active torsions:
REMARK  status: ('A' for Active; 'I' for Inactive)
REMARK    1  A    between atoms: C_2  and  C_3 
REMARK       I    between atoms: C_3  and  N_4 
REMARK    2  A    between atoms: N_4  and  N_5 
REMARK    3  A    between atoms: N_5  and  C_6 
REMARK    4  A    between atoms: N_7  and  C_8 
ROOT
HETATM    1  C   UNL     1      42.125 -12.489   5.971  1.00  0.00     0.208 A 
HETATM    2  N   UNL     1      41.573 -12.048   4.770  1.00  0.00    -0.251 N 
HETATM    3  C   UNL     1      41.583 -12.875   3.646  1.00  0.00     0.264 A 
HETATM    4  O   UNL     1      41.151 -12.534   2.546  1.00  0.00    -0.267 OA
HETATM    5  C   UNL     1      42.090 -14.269   3.833  1.00  0.00     0.049 A 
HETATM    6  C   UNL     1      42.500 -14.583   5.078  1.00  0.00     0.083 A 
HETATM    7  C   UNL     1      42.912 -15.983   5.372  1.00  0.00    -0.000 A 
HETATM    8  C   UNL     1      43.247 -16.852   4.322  1.00  0.00    -0.044 A 
HETATM    9  C   UNL     1      43.656 -18.167   4.590  1.00  0.00     0.008 A 
HETATM   10  C   UNL     1      43.710 -18.630   5.903  1.00  0.00     0.001 A 
HETATM   11  C   UNL     1      43.368 -17.782   6.952  1.00  0.00     0.001 A 
HETATM   12  C   UNL     1      42.975 -16.467   6.687  1.00  0.00     0.014 A 
HETATM   13  C   UNL     1      43.216 -16.330   2.914  1.00  0.00     0.054 C 
HETATM   14  C   UNL     1      42.074 -15.302   2.687  1.00  0.00    -0.002 C 
HETATM   15  C   UNL     1      40.704 -16.023   2.629  1.00  0.00     0.015 C 
HETATM   16  C   UNL     1      39.870 -15.210   1.653  1.00  0.00     0.001 C 
HETATM   17  C   UNL     1      40.860 -14.787   0.579  1.00  0.00     0.001 C 
HETATM   18  C   UNL     1      42.241 -14.755   1.243  1.00  0.00     0.015 C 
HETATM   19  N   UNL     1      42.565 -13.707   6.123  1.00  0.00    -0.217 NA
ENDROOT
BRANCH   1  20
HETATM   20  N   UNL     1      42.268 -11.612   7.039  1.00  0.00    -0.171 NA
HETATM   21  H   UNL     1      41.917 -10.659   6.898  1.00  0.00     0.156 HD
BRANCH  20  22
HETATM   22  N   UNL     1      43.535 -11.619   7.662  1.00  0.00    -0.284 N 
HETATM   23  C   UNL     1      43.948 -10.415   8.203  1.00  0.00     0.231 C 
HETATM   24  O   UNL     1      43.201  -9.443   8.299  1.00  0.00    -0.272 OA
HETATM   25  H   UNL     1      44.198 -12.271   7.242  1.00  0.00     0.184 HD
BRANCH  23  26
HETATM   26  C   UNL     1      45.399 -10.424   8.632  1.00  0.00     0.100 C 
HETATM   27  C   UNL     1      46.185  -9.281   8.013  1.00  0.00     0.014 C 
ENDBRANCH  23  26
ENDBRANCH  20  22
ENDBRANCH   1  20
BRANCH   2  28
HETATM   28  C   UNL     1      40.952 -10.752   4.668  1.00  0.00     0.045 A 
HETATM   29  C   UNL     1      41.705  -9.622   4.304  1.00  0.00     0.030 A 
HETATM   30  C   UNL     1      41.105  -8.366   4.185  1.00  0.00     0.002 A 
HETATM   31  C   UNL     1      39.745  -8.217   4.439  1.00  0.00     0.000 A 
HETATM   32  C   UNL     1      38.987  -9.322   4.818  1.00  0.00     0.002 A 
HETATM   33  C   UNL     1      39.587 -10.578   4.936  1.00  0.00     0.030 A 
ENDBRANCH   2  28
TORSDOF 4
ENDMDL
MODEL 4
REMARK VINA RESULT:      -9.0      3.044      6.052
REMARK  4 active torsions:
REMARK  status: ('A' for Active; 'I' for Inactive)
REMARK    1  A    between atoms: C_2  and  C_3 
REMARK       I    between atoms: C_3  and  N_4 
REMARK    2  A    between atoms: N_4  and  N_5 
REMARK    3  A    between atoms: N_5  and  C_6 
REMARK    4  A    between atoms: N_7  and  C_8 
ROOT
HETATM    1  C   UNL     1      40.353 -14.803   1.483  1.00  0.00     0.208 A 
HETATM    2  N   UNL     1      40.247 -13.648   2.256  1.00  0.00    -0.251 N 
HETATM    3  C   UNL     1      40.796 -13.605   3.537  1.00  0.00     0.264 A 
HETATM    4  O   UNL     1      40.703 -12.633   4.286  1.00  0.00    -0.267 OA
HETATM    5  C   UNL     1      41.591 -14.793   3.976  1.00  0.00     0.049 A 
HETATM    6  C   UNL     1      41.688 -15.797   3.082  1.00  0.00     0.083 A 
HETATM    7  C   UNL     1      42.556 -16.964   3.398  1.00  0.00    -0.000 A 
HETATM    8  C   UNL     1      42.943 -17.214   4.723  1.00  0.00    -0.044 A 
HETATM    9  C   UNL     1      43.743 -18.323   5.034  1.00  0.00     0.008 A 
HETATM   10  C   UNL     1      44.183 -19.176   4.023  1.00  0.00     0.001 A 
HETATM   11  C   UNL     1      43.816 -18.932   2.703  1.00  0.00     0.001 A 
HETATM   12  C   UNL     1      43.006 -17.836   2.394  1.00  0.00     0.014 A 
HETATM   13  C   UNL     1      42.435 -16.307   5.807  1.00  0.00     0.054 C 
HETATM   14  C   UNL     1      42.314 -14.831   5.338  1.00  0.00    -0.002 C 
HETATM   15  C   UNL     1      43.719 -14.186   5.222  1.00  0.00     0.015 C 
HETATM   16  C   UNL     1      43.513 -12.725   5.586  1.00  0.00     0.001 C 
HETATM   17  C   UNL     1      42.483 -12.760   6.703  1.00  0.00     0.001 C 
HETATM   18  C   UNL     1      41.663 -14.039   6.505  1.00  0.00     0.015 C 
HETATM   19  N   UNL     1      41.049 -15.833   1.876  1.00  0.00    -0.217 NA
ENDROOT
BRANCH   1  20
HETATM   20  N   UNL     1      39.667 -14.906   0.280  1.00  0.00    -0.171 NA
HETATM   21  H   UNL     1      39.210 -15.805   0.091  1.00  0.00     0.156 HD
BRANCH  20  22
HETATM   22  N   UNL     1      40.354 -14.417  -0.853  1.00  0.00    -0.284 N 
HETATM   23  C   UNL     1      39.590 -13.712  -1.764  1.00  0.00     0.231 C 
HETATM   24  O   UNL     1      38.431 -13.373  -1.532  1.00  0.00    -0.272 OA
HETATM   25  H   UNL     1      41.131 -15.008  -1.152  1.00  0.00     0.184 HD
BRANCH  23  26
HETATM   26  C   UNL     1      40.320 -13.431  -3.059  1.00  0.00     0.100 C 
HETATM   27  C   UNL     1      41.190 -12.189  -2.966  1.00  0.00     0.014 C 
ENDBRANCH  23  26
ENDBRANCH  20  22
ENDBRANCH   1  20
BRANCH   2  28
HETATM   28  C   UNL     1      39.606 -12.465   1.739  1.00  0.00     0.045 A 
HETATM   29  C   UNL     1      40.342 -11.500   1.031  1.00  0.00     0.030 A 
HETATM   30  C   UNL     1      39.723 -10.361   0.512  1.00  0.00     0.002 A 
HETATM   31  C   UNL     1      38.359 -10.161   0.701  1.00  0.00     0.000 A 
HETATM   32  C   UNL     1      37.616 -11.098   1.416  1.00  0.00     0.002 A 
HETATM   33  C   UNL     1      38.236 -12.238   1.935  1.00  0.00     0.030 A 
ENDBRANCH   2  28
TORSDOF 4
ENDMDL
MODEL 5
REMARK VINA RESULT:      -8.8      3.417      6.637
REMARK  4 active torsions:
REMARK  status: ('A' for Active; 'I' for Inactive)
REMARK    1  A    between atoms: C_2  and  C_3 
REMARK       I    between atoms: C_3  and  N_4 
REMARK    2  A    between atoms: N_4  and  N_5 
REMARK    3  A    between atoms: N_5  and  C_6 
REMARK    4  A    between atoms: N_7  and  C_8 
ROOT
HETATM    1  C   UNL     1      41.000 -13.936   0.652  1.00  0.00     0.208 A 
HETATM    2  N   UNL     1      40.452 -12.829   1.299  1.00  0.00    -0.251 N 
HETATM    3  C   UNL     1      40.355 -12.804   2.690  1.00  0.00     0.264 A 
HETATM    4  O   UNL     1      39.846 -11.879   3.321  1.00  0.00    -0.267 OA
HETATM    5  C   UNL     1      40.969 -13.945   3.435  1.00  0.00     0.049 A 
HETATM    6  C   UNL     1      41.551 -14.896   2.678  1.00  0.00     0.083 A 
HETATM    7  C   UNL     1      42.283 -16.006   3.346  1.00  0.00    -0.000 A 
HETATM    8  C   UNL     1      42.049 -16.287   4.701  1.00  0.00    -0.044 A 
HETATM    9  C   UNL     1      42.719 -17.343   5.335  1.00  0.00     0.008 A 
HETATM   10  C   UNL     1      43.644 -18.111   4.630  1.00  0.00     0.001 A 
HETATM   11  C   UNL     1      43.894 -17.835   3.289  1.00  0.00     0.001 A 
HETATM   12  C   UNL     1      43.216 -16.792   2.652  1.00  0.00     0.014 A 
HETATM   13  C   UNL     1      41.027 -15.473   5.441  1.00  0.00     0.054 C 
HETATM   14  C   UNL     1      40.998 -13.991   4.977  1.00  0.00    -0.002 C 
HETATM   15  C   UNL     1      42.238 -13.233   5.517  1.00  0.00     0.015 C 
HETATM   16  C   UNL     1      41.759 -11.811   5.756  1.00  0.00     0.001 C 
HETATM   17  C   UNL     1      40.343 -11.979   6.283  1.00  0.00     0.001 C 
HETATM   18  C   UNL     1      39.820 -13.307   5.725  1.00  0.00     0.015 C 
HETATM   19  N   UNL     1      41.533 -14.926   1.312  1.00  0.00    -0.217 NA
ENDROOT
BRANCH   1  20
HETATM   20  N   UNL     1      40.945 -14.036  -0.732  1.00  0.00    -0.171 NA
HETATM   21  H   UNL     1      41.340 -13.253  -1.262  1.00  0.00     0.156 HD
BRANCH  20  22
HETATM   22  N   UNL     1      39.706 -14.458  -1.260  1.00  0.00    -0.284 N 
HETATM   23  C   UNL     1      39.513 -14.222  -2.609  1.00  0.00     0.231 C 
HETATM   24  O   UNL     1      40.416 -13.836  -3.347  1.00  0.00    -0.272 OA
HETATM   25  H   UNL     1      38.934 -14.406  -0.593  1.00  0.00     0.184 HD
BRANCH  23  26
HETATM   26  C   UNL     1      38.088 -14.468  -3.056  1.00  0.00     0.100 C 
HETATM   27  C   UNL     1      37.184 -13.284  -2.756  1.00  0.00     0.014 C 
ENDBRANCH  23  26
ENDBRANCH  20  22
ENDBRANCH   1  20
BRANCH   2  28
HETATM   28  C   UNL     1      40.010 -11.678   0.555  1.00  0.00     0.045 A 
HETATM   29  C   UNL     1      38.659 -11.531   0.194  1.00  0.00     0.030 A 
HETATM   30  C   UNL     1      38.221 -10.408  -0.511  1.00  0.00     0.002 A 
HETATM   31  C   UNL     1      39.127  -9.417  -0.877  1.00  0.00     0.000 A 
HETATM   32  C   UNL     1      40.472  -9.553  -0.544  1.00  0.00     0.002 A 
HETATM   33  C   UNL     1      40.911 -10.677   0.162  1.00  0.00     0.030 A 
ENDBRANCH   2  28
TORSDOF 4
ENDMDL
MODEL 6
REMARK VINA RESULT:      -8.6      2.260      5.269
REMARK  4 active torsions:
REMARK  status: ('A' for Active; 'I' for Inactive)
REMARK    1  A    between atoms: C_2  and  C_3 
REMARK       I    between atoms: C_3  and  N_4 
REMARK    2  A    between atoms: N_4  and  N_5 
REMARK    3  A    between atoms: N_5  and  C_6 
REMARK    4  A    between atoms: N_7  and  C_8 
ROOT
HETATM    1  C   UNL     1      42.306 -11.244   3.264  1.00  0.00     0.208 A 
HETATM    2  N   UNL     1      42.794 -12.226   4.124  1.00  0.00    -0.251 N 
HETATM    3  C   UNL     1      42.528 -13.572   3.878  1.00  0.00     0.264 A 
HETATM    4  O   UNL     1      42.894 -14.486   4.618  1.00  0.00    -0.267 OA
HETATM    5  C   UNL     1      41.815 -13.904   2.607  1.00  0.00     0.049 A 
HETATM    6  C   UNL     1      41.490 -12.854   1.825  1.00  0.00     0.083 A 
HETATM    7  C   UNL     1      40.880 -13.107   0.491  1.00  0.00    -0.000 A 
HETATM    8  C   UNL     1      40.296 -14.351   0.210  1.00  0.00    -0.044 A 
HETATM    9  C   UNL     1      39.701 -14.593  -1.037  1.00  0.00     0.008 A 
HETATM   10  C   UNL     1      39.707 -13.605  -2.019  1.00  0.00     0.001 A 
HETATM   11  C   UNL     1      40.295 -12.371  -1.758  1.00  0.00     0.001 A 
HETATM   12  C   UNL     1      40.874 -12.124  -0.510  1.00  0.00     0.014 A 
HETATM   13  C   UNL     1      40.267 -15.396   1.289  1.00  0.00     0.054 C 
HETATM   14  C   UNL     1      41.536 -15.361   2.184  1.00  0.00    -0.002 C 
HETATM   15  C   UNL     1      42.751 -15.943   1.419  1.00  0.00     0.015 C 
HETATM   16  C   UNL     1      43.603 -16.615   2.483  1.00  0.00     0.001 C 
HETATM   17  C   UNL     1      42.592 -17.231   3.435  1.00  0.00     0.001 C 
HETATM   18  C   UNL     1      41.313 -16.394   3.322  1.00  0.00     0.015 C 
HETATM   19  N   UNL     1      41.684 -11.544   2.157  1.00  0.00    -0.217 NA
ENDROOT
BRANCH   1  20
HETATM   20  N   UNL     1      42.425  -9.900   3.595  1.00  0.00    -0.171 NA
HETATM   21  H   UNL     1      43.331  -9.602   3.970  1.00  0.00     0.156 HD
BRANCH  20  22
HETATM   22  N   UNL     1      41.347  -9.359   4.329  1.00  0.00    -0.284 N 
HETATM   23  C   UNL     1      40.577  -8.421   3.667  1.00  0.00     0.231 C 
HETATM   24  O   UNL     1      40.701  -8.193   2.465  1.00  0.00    -0.272 OA
HETATM   25  H   UNL     1      41.522  -9.294   5.332  1.00  0.00     0.184 HD
BRANCH  23  26
HETATM   26  C   UNL     1      39.601  -7.706   4.576  1.00  0.00     0.100 C 
HETATM   27  C   UNL     1      40.282  -7.141   5.812  1.00  0.00     0.014 C 
ENDBRANCH  23  26
ENDBRANCH  20  22
ENDBRANCH   1  20
BRANCH   2  28
HETATM   28  C   UNL     1      43.611 -11.879   5.259  1.00  0.00     0.045 A 
HETATM   29  C   UNL     1      43.051 -11.783   6.544  1.00  0.00     0.030 A 
HETATM   30  C   UNL     1      43.841 -11.466   7.652  1.00  0.00     0.002 A 
HETATM   31  C   UNL     1      45.203 -11.230   7.492  1.00  0.00     0.000 A 
HETATM   32  C   UNL     1      45.773 -11.303   6.223  1.00  0.00     0.002 A 
HETATM   33  C   UNL     1      44.982 -11.620   5.115  1.00  0.00     0.030 A 
ENDBRANCH   2  28
TORSDOF 4
ENDMDL
MODEL 7
REMARK VINA RESULT:      -8.6     16.153     18.213
REMARK  4 active torsions:
REMARK  status: ('A' for Active; 'I' for Inactive)
REMARK    1  A    between atoms: C_2  and  C_3 
REMARK       I    between atoms: C_3  and  N_4 
REMARK    2  A    between atoms: N_4  and  N_5 
REMARK    3  A    between atoms: N_5  and  C_6 
REMARK    4  A    between atoms: N_7  and  C_8 
ROOT
HETATM    1  C   UNL     1      46.336 -29.191   0.554  1.00  0.00     0.208 A 
HETATM    2  N   UNL     1      46.711 -29.513  -0.749  1.00  0.00    -0.251 N 
HETATM    3  C   UNL     1      47.989 -30.005  -1.013  1.00  0.00     0.264 A 
HETATM    4  O   UNL     1      48.398 -30.270  -2.143  1.00  0.00    -0.267 OA
HETATM    5  C   UNL     1      48.868 -30.280   0.165  1.00  0.00     0.049 A 
HETATM    6  C   UNL     1      48.333 -30.011   1.372  1.00  0.00     0.083 A 
HETATM    7  C   UNL     1      49.100 -30.362   2.598  1.00  0.00    -0.000 A 
HETATM    8  C   UNL     1      50.482 -30.594   2.520  1.00  0.00    -0.044 A 
HETATM    9  C   UNL     1      51.218 -30.906   3.673  1.00  0.00     0.008 A 
HETATM   10  C   UNL     1      50.577 -31.013   4.906  1.00  0.00     0.001 A 
HETATM   11  C   UNL     1      49.205 -30.799   4.994  1.00  0.00     0.001 A 
HETATM   12  C   UNL     1      48.473 -30.473   3.849  1.00  0.00     0.014 A 
HETATM   13  C   UNL     1      51.166 -30.442   1.192  1.00  0.00     0.054 C 
HETATM   14  C   UNL     1      50.271 -30.902   0.008  1.00  0.00    -0.002 C 
HETATM   15  C   UNL     1      50.176 -32.448  -0.027  1.00  0.00     0.015 C 
HETATM   16  C   UNL     1      50.061 -32.803  -1.500  1.00  0.00     0.001 C 
HETATM   17  C   UNL     1      50.977 -31.810  -2.196  1.00  0.00     0.001 C 
HETATM   18  C   UNL     1      51.046 -30.571  -1.297  1.00  0.00     0.015 C 
HETATM   19  N   UNL     1      47.111 -29.435   1.574  1.00  0.00    -0.217 NA
ENDROOT
BRANCH   1  20
HETATM   20  N   UNL     1      45.130 -28.547   0.797  1.00  0.00    -0.171 NA
HETATM   21  H   UNL     1      45.179 -27.537   0.969  1.00  0.00     0.156 HD
BRANCH  20  22
HETATM   22  N   UNL     1      44.271 -29.195   1.711  1.00  0.00    -0.284 N 
HETATM   23  C   UNL     1      42.955 -29.334   1.307  1.00  0.00     0.231 C 
HETATM   24  O   UNL     1      42.585 -29.076   0.164  1.00  0.00    -0.272 OA
HETATM   25  H   UNL     1      44.515 -29.039   2.690  1.00  0.00     0.184 HD
BRANCH  23  26
HETATM   26  C   UNL     1      42.042 -29.808   2.417  1.00  0.00     0.100 C 
HETATM   27  C   UNL     1      41.206 -31.005   1.996  1.00  0.00     0.014 C 
ENDBRANCH  23  26
ENDBRANCH  20  22
ENDBRANCH   1  20
BRANCH   2  28
HETATM   28  C   UNL     1      45.783 -29.381  -1.843  1.00  0.00     0.045 A 
HETATM   29  C   UNL     1      45.761 -28.216  -2.629  1.00  0.00     0.030 A 
HETATM   30  C   UNL     1      44.876 -28.089  -3.703  1.00  0.00     0.002 A 
HETATM   31  C   UNL     1      43.991 -29.120  -4.002  1.00  0.00     0.000 A 
HETATM   32  C   UNL     1      43.986 -30.275  -3.224  1.00  0.00     0.002 A 
HETATM   33  C   UNL     1      44.872 -30.402  -2.150  1.00  0.00     0.030 A 
ENDBRANCH   2  28
TORSDOF 4
ENDMDL
MODEL 8
REMARK VINA RESULT:      -8.4      2.975      6.558
REMARK  4 active torsions:
REMARK  status: ('A' for Active; 'I' for Inactive)
REMARK    1  A    between atoms: C_2  and  C_3 
REMARK       I    between atoms: C_3  and  N_4 
REMARK    2  A    between atoms: N_4  and  N_5 
REMARK    3  A    between atoms: N_5  and  C_6 
REMARK    4  A    between atoms: N_7  and  C_8 
ROOT
HETATM    1  C   UNL     1      42.477 -13.606   2.124  1.00  0.00     0.208 A 
HETATM    2  N   UNL     1      42.328 -12.521   2.987  1.00  0.00    -0.251 N 
HETATM    3  C   UNL     1      41.446 -11.488   2.673  1.00  0.00     0.264 A 
HETATM    4  O   UNL     1      41.296 -10.484   3.369  1.00  0.00    -0.267 OA
HETATM    5  C   UNL     1      40.597 -11.665   1.455  1.00  0.00     0.049 A 
HETATM    6  C   UNL     1      40.782 -12.812   0.772  1.00  0.00     0.083 A 
HETATM    7  C   UNL     1      39.898 -13.115  -0.386  1.00  0.00    -0.000 A 
HETATM    8  C   UNL     1      39.167 -12.086  -1.000  1.00  0.00    -0.044 A 
HETATM    9  C   UNL     1      38.346 -12.357  -2.105  1.00  0.00     0.008 A 
HETATM   10  C   UNL     1      38.231 -13.659  -2.589  1.00  0.00     0.001 A 
HETATM   11  C   UNL     1      38.941 -14.690  -1.982  1.00  0.00     0.001 A 
HETATM   12  C   UNL     1      39.771 -14.418  -0.890  1.00  0.00     0.014 A 
HETATM   13  C   UNL     1      39.325 -10.683  -0.488  1.00  0.00     0.054 C 
HETATM   14  C   UNL     1      39.526 -10.631   1.051  1.00  0.00    -0.002 C 
HETATM   15  C   UNL     1      38.189 -10.925   1.779  1.00  0.00     0.015 C 
HETATM   16  C   UNL     1      38.240 -10.093   3.050  1.00  0.00     0.001 C 
HETATM   17  C   UNL     1      38.921  -8.803   2.624  1.00  0.00     0.001 C 
HETATM   18  C   UNL     1      39.804  -9.148   1.419  1.00  0.00     0.015 C 
HETATM   19  N   UNL     1      41.731 -13.750   1.063  1.00  0.00    -0.217 NA
ENDROOT
BRANCH   1  20
HETATM   20  N   UNL     1      43.472 -14.548   2.347  1.00  0.00    -0.171 NA
HETATM   21  H   UNL     1      44.430 -14.264   2.115  1.00  0.00     0.156 HD
BRANCH  20  22
HETATM   22  N   UNL     1      43.185 -15.852   1.889  1.00  0.00    -0.284 N 
HETATM   23  C   UNL     1      43.087 -16.827   2.866  1.00  0.00     0.231 C 
HETATM   24  O   UNL     1      43.073 -16.560   4.066  1.00  0.00    -0.272 OA
HETATM   25  H   UNL     1      43.566 -16.059   0.965  1.00  0.00     0.184 HD
BRANCH  23  26
HETATM   26  C   UNL     1      43.024 -18.229   2.300  1.00  0.00     0.100 C 
HETATM   27  C   UNL     1      44.002 -19.166   2.988  1.00  0.00     0.014 C 
ENDBRANCH  23  26
ENDBRANCH  20  22
ENDBRANCH   1  20
BRANCH   2  28
HETATM   28  C   UNL     1      43.051 -12.459   4.232  1.00  0.00     0.045 A 
HETATM   29  C   UNL     1      44.155 -11.602   4.379  1.00  0.00     0.030 A 
HETATM   30  C   UNL     1      44.848 -11.523   5.589  1.00  0.00     0.002 A 
HETATM   31  C   UNL     1      44.455 -12.307   6.670  1.00  0.00     0.000 A 
HETATM   32  C   UNL     1      43.374 -13.175   6.537  1.00  0.00     0.002 A 
HETATM   33  C   UNL     1      42.681 -13.253   5.326  1.00  0.00     0.030 A 
ENDBRANCH   2  28
TORSDOF 4
ENDMDL
MODEL 9
REMARK VINA RESULT:      -8.2      4.035      7.099
REMARK  4 active torsions:
REMARK  status: ('A' for Active; 'I' for Inactive)
REMARK    1  A    between atoms: C_2  and  C_3 
REMARK       I    between atoms: C_3  and  N_4 
REMARK    2  A    between atoms: N_4  and  N_5 
REMARK    3  A    between atoms: N_5  and  C_6 
REMARK    4  A    between atoms: N_7  and  C_8 
ROOT
HETATM    1  C   UNL     1      42.073 -11.182   1.737  1.00  0.00     0.208 A 
HETATM    2  N   UNL     1      41.413 -12.407   1.666  1.00  0.00    -0.251 N 
HETATM    3  C   UNL     1      40.577 -12.695   0.588  1.00  0.00     0.264 A 
HETATM    4  O   UNL     1      39.934 -13.740   0.484  1.00  0.00    -0.267 OA
HETATM    5  C   UNL     1      40.528 -11.694  -0.521  1.00  0.00     0.049 A 
HETATM    6  C   UNL     1      41.297 -10.599  -0.358  1.00  0.00     0.083 A 
HETATM    7  C   UNL     1      41.392  -9.610  -1.466  1.00  0.00    -0.000 A 
HETATM    8  C   UNL     1      40.423  -9.596  -2.480  1.00  0.00    -0.044 A 
HETATM    9  C   UNL     1      40.491  -8.655  -3.518  1.00  0.00     0.008 A 
HETATM   10  C   UNL     1      41.540  -7.739  -3.564  1.00  0.00     0.001 A 
HETATM   11  C   UNL     1      42.514  -7.750  -2.571  1.00  0.00     0.001 A 
HETATM   12  C   UNL     1      42.439  -8.677  -1.529  1.00  0.00     0.014 A 
HETATM   13  C   UNL     1      39.280 -10.568  -2.401  1.00  0.00     0.054 C 
HETATM   14  C   UNL     1      39.705 -11.937  -1.803  1.00  0.00    -0.002 C 
HETATM   15  C   UNL     1      40.538 -12.740  -2.835  1.00  0.00     0.015 C 
HETATM   16  C   UNL     1      40.198 -14.197  -2.568  1.00  0.00     0.001 C 
HETATM   17  C   UNL     1      38.717 -14.179  -2.228  1.00  0.00     0.001 C 
HETATM   18  C   UNL     1      38.413 -12.788  -1.661  1.00  0.00     0.015 C 
HETATM   19  N   UNL     1      42.023 -10.315   0.763  1.00  0.00    -0.217 NA
ENDROOT
BRANCH   1  20
HETATM   20  N   UNL     1      42.769 -10.826   2.885  1.00  0.00    -0.171 NA
HETATM   21  H   UNL     1      43.291 -11.574   3.353  1.00  0.00     0.156 HD
BRANCH  20  22
HETATM   22  N   UNL     1      42.053 -10.029   3.804  1.00  0.00    -0.284 N 
HETATM   23  C   UNL     1      42.138 -10.413   5.130  1.00  0.00     0.231 C 
HETATM   24  O   UNL     1      42.920 -11.279   5.518  1.00  0.00    -0.272 OA
HETATM   25  H   UNL     1      41.200  -9.621   3.420  1.00  0.00     0.184 HD
BRANCH  23  26
HETATM   26  C   UNL     1      41.163  -9.679   6.024  1.00  0.00     0.100 C 
HETATM   27  C   UNL     1      39.949 -10.527   6.364  1.00  0.00     0.014 C 
ENDBRANCH  23  26
ENDBRANCH  20  22
ENDBRANCH   1  20
BRANCH   2  28
HETATM   28  C   UNL     1      41.605 -13.413   2.680  1.00  0.00     0.045 A 
HETATM   29  C   UNL     1      40.730 -13.504   3.776  1.00  0.00     0.030 A 
HETATM   30  C   UNL     1      40.900 -14.489   4.752  1.00  0.00     0.002 A 
HETATM   31  C   UNL     1      41.953 -15.394   4.654  1.00  0.00     0.000 A 
HETATM   32  C   UNL     1      42.840 -15.308   3.584  1.00  0.00     0.002 A 
HETATM   33  C   UNL     1      42.670 -14.322   2.607  1.00  0.00     0.030 A 
ENDBRANCH   2  28
TORSDOF 4
ENDMDL
MODEL 10
REMARK VINA RESULT:      -8.1     16.605     18.616
REMARK  4 active torsions:
REMARK  status: ('A' for Active; 'I' for Inactive)
REMARK    1  A    between atoms: C_2  and  C_3 
REMARK       I    between atoms: C_3  and  N_4 
REMARK    2  A    between atoms: N_4  and  N_5 
REMARK    3  A    between atoms: N_5  and  C_6 
REMARK    4  A    between atoms: N_7  and  C_8 
ROOT
HETATM    1  C   UNL     1      48.699 -29.809   0.225  1.00  0.00     0.208 A 
HETATM    2  N   UNL     1      48.232 -30.162   1.490  1.00  0.00    -0.251 N 
HETATM    3  C   UNL     1      46.862 -30.200   1.749  1.00  0.00     0.264 A 
HETATM    4  O   UNL     1      46.384 -30.463   2.852  1.00  0.00    -0.267 OA
HETATM    5  C   UNL     1      45.944 -29.970   0.592  1.00  0.00     0.049 A 
HETATM    6  C   UNL     1      46.542 -29.737  -0.594  1.00  0.00     0.083 A 
HETATM    7  C   UNL     1      45.701 -29.611  -1.815  1.00  0.00    -0.000 A 
HETATM    8  C   UNL     1      44.328 -29.345  -1.699  1.00  0.00    -0.044 A 
HETATM    9  C   UNL     1      43.530 -29.205  -2.844  1.00  0.00     0.008 A 
HETATM   10  C   UNL     1      44.091 -29.354  -4.111  1.00  0.00     0.001 A 
HETATM   11  C   UNL     1      45.449 -29.630  -4.240  1.00  0.00     0.001 A 
HETATM   12  C   UNL     1      46.248 -29.755  -3.100  1.00  0.00     0.014 A 
HETATM   13  C   UNL     1      43.743 -29.155  -0.329  1.00  0.00     0.054 C 
HETATM   14  C   UNL     1      44.411 -30.069   0.734  1.00  0.00    -0.002 C 
HETATM   15  C   UNL     1      43.945 -31.535   0.555  1.00  0.00     0.015 C 
HETATM   16  C   UNL     1      43.923 -32.118   1.958  1.00  0.00     0.001 C 
HETATM   17  C   UNL     1      43.424 -30.976   2.828  1.00  0.00     0.001 C 
HETATM   18  C   UNL     1      43.805 -29.677   2.110  1.00  0.00     0.015 C 
HETATM   19  N   UNL     1      47.889 -29.611  -0.778  1.00  0.00    -0.217 NA
ENDROOT
BRANCH   1  20
HETATM   20  N   UNL     1      50.056 -29.608   0.010  1.00  0.00    -0.171 NA
HETATM   21  H   UNL     1      50.428 -28.688   0.272  1.00  0.00     0.156 HD
BRANCH  20  22
HETATM   22  N   UNL     1      50.540 -30.032  -1.246  1.00  0.00    -0.284 N 
HETATM   23  C   UNL     1      51.449 -31.074  -1.222  1.00  0.00     0.231 C 
HETATM   24  O   UNL     1      51.694 -31.714  -0.201  1.00  0.00    -0.272 OA
HETATM   25  H   UNL     1      50.603 -29.285  -1.938  1.00  0.00     0.184 HD
BRANCH  23  26
HETATM   26  C   UNL     1      52.109 -31.316  -2.562  1.00  0.00     0.100 C 
HETATM   27  C   UNL     1      51.378 -32.370  -3.377  1.00  0.00     0.014 C 
ENDBRANCH  23  26
ENDBRANCH  20  22
ENDBRANCH   1  20
BRANCH   2  28
HETATM   28  C   UNL     1      49.144 -30.528   2.543  1.00  0.00     0.045 A 
HETATM   29  C   UNL     1      49.651 -31.836   2.631  1.00  0.00     0.030 A 
HETATM   30  C   UNL     1      50.551 -32.193   3.638  1.00  0.00     0.002 A 
HETATM   31  C   UNL     1      50.951 -31.251   4.581  1.00  0.00     0.000 A 
HETATM   32  C   UNL     1      50.445 -29.955   4.521  1.00  0.00     0.002 A 
HETATM   33  C   UNL     1      49.545 -29.598   3.513  1.00  0.00     0.030 A 
ENDBRANCH   2  28
TORSDOF 4
ENDMDL
