MODEL 1
REMARK VINA RESULT:      -9.7      0.000      0.000
REMARK  9 active torsions:
REMARK  status: ('A' for Active; 'I' for Inactive)
REMARK    1  A    between atoms: C_4  and  S_5 
REMARK    2  A    between atoms: S_5  and  C_6 
REMARK    3  A    between atoms: C_6  and  C_7 
REMARK       I    between atoms: C_7  and  N_8 
REMARK    4  A    between atoms: N_8  and  C_9 
REMARK    5  A    between atoms: C_9  and  C_10 
REMARK    6  A    between atoms: C_20  and  C_21 
REMARK    7  A    between atoms: C_26  and  C_27 
REMARK       I    between atoms: C_27  and  N_28 
REMARK    8  A    between atoms: N_28  and  C_29 
REMARK    9  A    between atoms: C_31  and  C_32 
ROOT
HETATM    1  C   UNL     1      40.016 -14.925   0.604  1.00  0.00     0.069 C 
HETATM    2  C   UNL     1      39.832 -13.879   1.681  1.00  0.00     0.019 C 
HETATM    3  N   UNL     1      39.160 -12.737   1.285  1.00  0.00    -0.353 N 
HETATM    4  C   UNL     1      38.730 -11.715   2.112  1.00  0.00     0.087 C 
HETATM    5  C   UNL     1      39.178 -11.709   3.390  1.00  0.00     0.057 C 
HETATM    6  C   UNL     1      38.928 -10.578   4.374  1.00  0.00     0.019 C 
HETATM    7  N   UNL     1      38.719  -9.640   5.192  1.00  0.00    -0.096 N 
HETATM    8  C   UNL     1      40.149 -12.789   3.893  1.00  0.00     0.129 C 
HETATM    9  C   UNL     1      40.283 -13.987   2.955  1.00  0.00     0.048 C 
HETATM   10  H   UNL     1      38.936 -12.655   0.298  1.00  0.00     0.166 HD
ENDROOT
BRANCH   4  11
HETATM   11  S   UNL     1      37.692 -10.424   1.510  1.00  0.00    -0.102 SA
BRANCH  11  12
HETATM   12  C   UNL     1      38.930  -9.260   0.859  1.00  0.00     0.183 C 
BRANCH  12  13
HETATM   13  C   UNL     1      39.700  -9.786  -0.337  1.00  0.00     0.227 C 
HETATM   14  N   UNL     1      39.059  -9.768  -1.551  1.00  0.00    -0.356 N 
HETATM   15  H   UNL     1      38.100  -9.445  -1.609  1.00  0.00     0.162 HD
HETATM   16  O   UNL     1      40.815 -10.288  -0.190  1.00  0.00    -0.273 OA
BRANCH  14  17
HETATM   17  C   UNL     1      39.655 -10.417  -2.698  1.00  0.00     0.161 C 
BRANCH  17  18
HETATM   18  C   UNL     1      39.323 -11.882  -2.787  1.00  0.00    -0.041 A 
HETATM   19  C   UNL     1      40.329 -12.844  -2.965  1.00  0.00     0.009 A 
HETATM   20  C   UNL     1      40.016 -14.204  -2.979  1.00  0.00     0.001 A 
HETATM   21  C   UNL     1      38.698 -14.620  -2.802  1.00  0.00     0.000 A 
HETATM   22  C   UNL     1      37.690 -13.676  -2.612  1.00  0.00     0.001 A 
HETATM   23  C   UNL     1      38.001 -12.315  -2.602  1.00  0.00     0.009 A 
ENDBRANCH  17  18
ENDBRANCH  14  17
ENDBRANCH  12  13
ENDBRANCH  11  12
ENDBRANCH   4  11
BRANCH   8  24
HETATM   24  C   UNL     1      41.495 -12.180   4.219  1.00  0.00     0.066 A 
HETATM   25  O   UNL     1      42.410 -12.165   3.205  1.00  0.00    -0.326 OA
HETATM   26  C   UNL     1      43.537 -11.591   3.698  1.00  0.00     0.142 A 
HETATM   27  C   UNL     1      43.353 -11.212   5.007  1.00  0.00     0.027 A 
HETATM   28  C   UNL     1      42.030 -11.588   5.345  1.00  0.00     0.035 A 
ENDBRANCH   8  24
BRANCH   9  29
HETATM   29  C   UNL     1      40.824 -15.302   3.462  1.00  0.00     0.255 C 
HETATM   30  N   UNL     1      42.170 -15.521   3.266  1.00  0.00    -0.323 N 
HETATM   31  H   UNL     1      42.733 -14.788   2.856  1.00  0.00     0.169 HD
HETATM   32  O   UNL     1      40.081 -16.069   4.068  1.00  0.00    -0.268 OA
BRANCH  30  33
HETATM   33  C   UNL     1      42.899 -16.694   3.571  1.00  0.00     0.035 A 
HETATM   34  C   UNL     1      42.848 -17.869   2.819  1.00  0.00     0.045 A 
HETATM   35  C   UNL     1      43.631 -18.986   3.166  1.00  0.00     0.050 A 
HETATM   36  C   UNL     1      44.450 -18.919   4.303  1.00  0.00     0.016 A 
HETATM   37  C   UNL     1      44.506 -17.752   5.059  1.00  0.00     0.003 A 
HETATM   38  C   UNL     1      43.743 -16.644   4.689  1.00  0.00     0.029 A 
BRANCH  35  39
HETATM   39  C   UNL     1      43.570 -20.247   2.341  1.00  0.00     0.417 C 
HETATM   40  F   UNL     1      44.363 -20.210   1.233  1.00  0.00    -0.166 F 
HETATM   41  F   UNL     1      43.963 -21.353   3.035  1.00  0.00    -0.166 F 
HETATM   42  F   UNL     1      42.312 -20.517   1.895  1.00  0.00    -0.166 F 
ENDBRANCH  35  39
ENDBRANCH  30  33
ENDBRANCH   9  29
TORSDOF 9
ENDMDL
MODEL 2
REMARK VINA RESULT:      -9.2      1.584      2.752
REMARK  9 active torsions:
REMARK  status: ('A' for Active; 'I' for Inactive)
REMARK    1  A    between atoms: C_4  and  S_5 
REMARK    2  A    between atoms: S_5  and  C_6 
REMARK    3  A    between atoms: C_6  and  C_7 
REMARK       I    between atoms: C_7  and  N_8 
REMARK    4  A    between atoms: N_8  and  C_9 
REMARK    5  A    between atoms: C_9  and  C_10 
REMARK    6  A    between atoms: C_20  and  C_21 
REMARK    7  A    between atoms: C_26  and  C_27 
REMARK       I    between atoms: C_27  and  N_28 
REMARK    8  A    between atoms: N_28  and  C_29 
REMARK    9  A    between atoms: C_31  and  C_32 
ROOT
HETATM    1  C   UNL     1      40.126 -15.109   0.295  1.00  0.00     0.069 C 
HETATM    2  C   UNL     1      39.892 -14.012   1.308  1.00  0.00     0.019 C 
HETATM    3  N   UNL     1      39.231 -12.896   0.827  1.00  0.00    -0.353 N 
HETATM    4  C   UNL     1      38.762 -11.836   1.583  1.00  0.00     0.087 C 
HETATM    5  C   UNL     1      39.156 -11.763   2.877  1.00  0.00     0.057 C 
HETATM    6  C   UNL     1      38.859 -10.585   3.791  1.00  0.00     0.019 C 
HETATM    7  N   UNL     1      38.611  -9.609   4.550  1.00  0.00    -0.096 N 
HETATM    8  C   UNL     1      40.110 -12.809   3.474  1.00  0.00     0.129 C 
HETATM    9  C   UNL     1      40.289 -14.052   2.603  1.00  0.00     0.048 C 
HETATM   10  H   UNL     1      39.048 -12.865  -0.171  1.00  0.00     0.166 HD
ENDROOT
BRANCH   4  11
HETATM   11  S   UNL     1      37.744 -10.585   0.874  1.00  0.00    -0.102 SA
BRANCH  11  12
HETATM   12  C   UNL     1      37.388 -11.312  -0.757  1.00  0.00     0.183 C 
BRANCH  12  13
HETATM   13  C   UNL     1      38.587 -11.356  -1.685  1.00  0.00     0.227 C 
HETATM   14  N   UNL     1      39.089 -10.153  -2.116  1.00  0.00    -0.356 N 
HETATM   15  H   UNL     1      38.636  -9.291  -1.838  1.00  0.00     0.162 HD
HETATM   16  O   UNL     1      39.017 -12.434  -2.096  1.00  0.00    -0.273 OA
BRANCH  14  17
HETATM   17  C   UNL     1      40.109 -10.116  -3.140  1.00  0.00     0.161 C 
BRANCH  17  18
HETATM   18  C   UNL     1      41.212  -9.137  -2.841  1.00  0.00    -0.041 A 
HETATM   19  C   UNL     1      41.601  -8.173  -3.782  1.00  0.00     0.009 A 
HETATM   20  C   UNL     1      42.579  -7.228  -3.468  1.00  0.00     0.001 A 
HETATM   21  C   UNL     1      43.171  -7.228  -2.206  1.00  0.00     0.000 A 
HETATM   22  C   UNL     1      42.786  -8.173  -1.258  1.00  0.00     0.001 A 
HETATM   23  C   UNL     1      41.811  -9.121  -1.572  1.00  0.00     0.009 A 
ENDBRANCH  17  18
ENDBRANCH  14  17
ENDBRANCH  12  13
ENDBRANCH  11  12
ENDBRANCH   4  11
BRANCH   8  24
HETATM   24  C   UNL     1      41.438 -12.175   3.824  1.00  0.00     0.066 A 
HETATM   25  O   UNL     1      42.405 -12.231   2.861  1.00  0.00    -0.326 OA
HETATM   26  C   UNL     1      43.506 -11.620   3.368  1.00  0.00     0.142 A 
HETATM   27  C   UNL     1      43.254 -11.147   4.634  1.00  0.00     0.027 A 
HETATM   28  C   UNL     1      41.915 -11.500   4.929  1.00  0.00     0.035 A 
ENDBRANCH   8  24
BRANCH   9  29
HETATM   29  C   UNL     1      40.816 -15.335   3.199  1.00  0.00     0.255 C 
HETATM   30  N   UNL     1      42.168 -15.560   3.061  1.00  0.00    -0.323 N 
HETATM   31  H   UNL     1      42.743 -14.848   2.631  1.00  0.00     0.169 HD
HETATM   32  O   UNL     1      40.054 -16.071   3.820  1.00  0.00    -0.268 OA
BRANCH  30  33
HETATM   33  C   UNL     1      42.888 -16.712   3.453  1.00  0.00     0.035 A 
HETATM   34  C   UNL     1      42.869 -17.925   2.761  1.00  0.00     0.045 A 
HETATM   35  C   UNL     1      43.642 -19.018   3.194  1.00  0.00     0.050 A 
HETATM   36  C   UNL     1      44.417 -18.889   4.356  1.00  0.00     0.016 A 
HETATM   37  C   UNL     1      44.441 -17.684   5.053  1.00  0.00     0.003 A 
HETATM   38  C   UNL     1      43.689 -16.600   4.598  1.00  0.00     0.029 A 
BRANCH  35  39
HETATM   39  C   UNL     1      43.616 -20.320   2.433  1.00  0.00     0.417 C 
HETATM   40  F   UNL     1      43.884 -21.408   3.209  1.00  0.00    -0.166 F 
HETATM   41  F   UNL     1      42.405 -20.572   1.857  1.00  0.00    -0.166 F 
HETATM   42  F   UNL     1      44.523 -20.349   1.418  1.00  0.00    -0.166 F 
ENDBRANCH  35  39
ENDBRANCH  30  33
ENDBRANCH   9  29
TORSDOF 9
ENDMDL
MODEL 3
REMARK VINA RESULT:      -8.7      1.700      2.062
REMARK  9 active torsions:
REMARK  status: ('A' for Active; 'I' for Inactive)
REMARK    1  A    between atoms: C_4  and  S_5 
REMARK    2  A    between atoms: S_5  and  C_6 
REMARK    3  A    between atoms: C_6  and  C_7 
REMARK       I    between atoms: C_7  and  N_8 
REMARK    4  A    between atoms: N_8  and  C_9 
REMARK    5  A    between atoms: C_9  and  C_10 
REMARK    6  A    between atoms: C_20  and  C_21 
REMARK    7  A    between atoms: C_26  and  C_27 
REMARK       I    between atoms: C_27  and  N_28 
REMARK    8  A    between atoms: N_28  and  C_29 
REMARK    9  A    between atoms: C_31  and  C_32 
ROOT
HETATM    1  C   UNL     1      41.878 -13.838   1.313  1.00  0.00     0.069 C 
HETATM    2  C   UNL     1      41.724 -12.903   2.490  1.00  0.00     0.019 C 
HETATM    3  N   UNL     1      41.492 -11.578   2.165  1.00  0.00    -0.353 N 
HETATM    4  C   UNL     1      41.162 -10.566   3.049  1.00  0.00     0.087 C 
HETATM    5  C   UNL     1      41.274 -10.826   4.373  1.00  0.00     0.057 C 
HETATM    6  C   UNL     1      41.102  -9.779   5.463  1.00  0.00     0.019 C 
HETATM    7  N   UNL     1      40.958  -8.912   6.367  1.00  0.00    -0.096 N 
HETATM    8  C   UNL     1      41.775 -12.190   4.873  1.00  0.00     0.129 C 
HETATM    9  C   UNL     1      41.809 -13.270   3.792  1.00  0.00     0.048 C 
HETATM   10  H   UNL     1      41.542 -11.331   1.182  1.00  0.00     0.166 HD
ENDROOT
BRANCH   4  11
HETATM   11  S   UNL     1      40.678  -8.972   2.476  1.00  0.00    -0.102 SA
BRANCH  11  12
HETATM   12  C   UNL     1      40.815  -9.195   0.675  1.00  0.00     0.183 C 
BRANCH  12  13
HETATM   13  C   UNL     1      39.503  -9.540  -0.003  1.00  0.00     0.227 C 
HETATM   14  N   UNL     1      39.117 -10.858   0.015  1.00  0.00    -0.356 N 
HETATM   15  H   UNL     1      39.721 -11.552   0.439  1.00  0.00     0.162 HD
HETATM   16  O   UNL     1      38.872  -8.679  -0.617  1.00  0.00    -0.273 OA
BRANCH  14  17
HETATM   17  C   UNL     1      37.978 -11.293  -0.763  1.00  0.00     0.161 C 
BRANCH  17  18
HETATM   18  C   UNL     1      38.195 -12.622  -1.435  1.00  0.00    -0.041 A 
HETATM   19  C   UNL     1      37.526 -12.950  -2.624  1.00  0.00     0.009 A 
HETATM   20  C   UNL     1      37.785 -14.158  -3.273  1.00  0.00     0.001 A 
HETATM   21  C   UNL     1      38.724 -15.045  -2.751  1.00  0.00     0.000 A 
HETATM   22  C   UNL     1      39.405 -14.727  -1.578  1.00  0.00     0.001 A 
HETATM   23  C   UNL     1      39.144 -13.521  -0.924  1.00  0.00     0.009 A 
ENDBRANCH  17  18
ENDBRANCH  14  17
ENDBRANCH  12  13
ENDBRANCH  11  12
ENDBRANCH   4  11
BRANCH   8  24
HETATM   24  C   UNL     1      43.114 -12.043   5.560  1.00  0.00     0.066 A 
HETATM   25  O   UNL     1      44.058 -11.318   4.890  1.00  0.00    -0.326 OA
HETATM   26  C   UNL     1      45.174 -11.311   5.664  1.00  0.00     0.142 A 
HETATM   27  C   UNL     1      44.954 -11.999   6.833  1.00  0.00     0.027 A 
HETATM   28  C   UNL     1      43.620 -12.469   6.771  1.00  0.00     0.035 A 
ENDBRANCH   8  24
BRANCH   9  29
HETATM   29  C   UNL     1      41.846 -14.731   4.170  1.00  0.00     0.255 C 
HETATM   30  N   UNL     1      43.075 -15.349   4.094  1.00  0.00    -0.323 N 
HETATM   31  H   UNL     1      43.888 -14.797   3.852  1.00  0.00     0.169 HD
HETATM   32  O   UNL     1      40.825 -15.276   4.580  1.00  0.00    -0.268 OA
BRANCH  30  33
HETATM   33  C   UNL     1      43.361 -16.716   4.312  1.00  0.00     0.035 A 
HETATM   34  C   UNL     1      43.296 -17.701   3.324  1.00  0.00     0.045 A 
HETATM   35  C   UNL     1      43.630 -19.037   3.610  1.00  0.00     0.050 A 
HETATM   36  C   UNL     1      44.004 -19.383   4.916  1.00  0.00     0.016 A 
HETATM   37  C   UNL     1      44.069 -18.409   5.909  1.00  0.00     0.003 A 
HETATM   38  C   UNL     1      43.759 -17.083   5.605  1.00  0.00     0.029 A 
BRANCH  35  39
HETATM   39  C   UNL     1      43.561 -20.089   2.531  1.00  0.00     0.417 C 
HETATM   40  F   UNL     1      42.355 -20.139   1.898  1.00  0.00    -0.166 F 
HETATM   41  F   UNL     1      44.483 -19.896   1.544  1.00  0.00    -0.166 F 
HETATM   42  F   UNL     1      43.788 -21.343   3.010  1.00  0.00    -0.166 F 
ENDBRANCH  35  39
ENDBRANCH  30  33
ENDBRANCH   9  29
TORSDOF 9
ENDMDL
MODEL 4
REMARK VINA RESULT:      -8.7      5.368      9.907
REMARK  9 active torsions:
REMARK  status: ('A' for Active; 'I' for Inactive)
REMARK    1  A    between atoms: C_4  and  S_5 
REMARK    2  A    between atoms: S_5  and  C_6 
REMARK    3  A    between atoms: C_6  and  C_7 
REMARK       I    between atoms: C_7  and  N_8 
REMARK    4  A    between atoms: N_8  and  C_9 
REMARK    5  A    between atoms: C_9  and  C_10 
REMARK    6  A    between atoms: C_20  and  C_21 
REMARK    7  A    between atoms: C_26  and  C_27 
REMARK       I    between atoms: C_27  and  N_28 
REMARK    8  A    between atoms: N_28  and  C_29 
REMARK    9  A    between atoms: C_31  and  C_32 
ROOT
HETATM    1  C   UNL     1      41.845 -10.807   2.455  1.00  0.00     0.069 C 
HETATM    2  C   UNL     1      41.893 -12.042   3.324  1.00  0.00     0.019 C 
HETATM    3  N   UNL     1      42.749 -11.967   4.408  1.00  0.00    -0.353 N 
HETATM    4  C   UNL     1      42.853 -12.893   5.431  1.00  0.00     0.087 C 
HETATM    5  C   UNL     1      42.223 -14.081   5.272  1.00  0.00     0.057 C 
HETATM    6  C   UNL     1      42.368 -15.255   6.227  1.00  0.00     0.019 C 
HETATM    7  N   UNL     1      42.486 -16.229   7.020  1.00  0.00    -0.096 N 
HETATM    8  C   UNL     1      41.441 -14.396   3.988  1.00  0.00     0.129 C 
HETATM    9  C   UNL     1      41.183 -13.176   3.105  1.00  0.00     0.048 C 
HETATM   10  H   UNL     1      43.338 -11.143   4.472  1.00  0.00     0.166 HD
ENDROOT
BRANCH   4  11
HETATM   11  S   UNL     1      43.826 -12.568   6.864  1.00  0.00    -0.102 SA
BRANCH  11  12
HETATM   12  C   UNL     1      43.337 -10.855   7.234  1.00  0.00     0.183 C 
BRANCH  12  13
HETATM   13  C   UNL     1      44.161 -10.202   8.328  1.00  0.00     0.227 C 
HETATM   14  N   UNL     1      43.686 -10.302   9.613  1.00  0.00    -0.356 N 
HETATM   15  H   UNL     1      42.802 -10.766   9.787  1.00  0.00     0.162 HD
HETATM   16  O   UNL     1      45.159  -9.539   8.046  1.00  0.00    -0.273 OA
BRANCH  14  17
HETATM   17  C   UNL     1      44.314  -9.556  10.680  1.00  0.00     0.161 C 
BRANCH  17  18
HETATM   18  C   UNL     1      43.377  -9.248  11.817  1.00  0.00    -0.041 A 
HETATM   19  C   UNL     1      42.334 -10.123  12.154  1.00  0.00     0.009 A 
HETATM   20  C   UNL     1      41.514  -9.861  13.252  1.00  0.00     0.001 A 
HETATM   21  C   UNL     1      41.735  -8.728  14.035  1.00  0.00     0.000 A 
HETATM   22  C   UNL     1      42.774  -7.856  13.718  1.00  0.00     0.001 A 
HETATM   23  C   UNL     1      43.593  -8.116  12.618  1.00  0.00     0.009 A 
ENDBRANCH  17  18
ENDBRANCH  14  17
ENDBRANCH  12  13
ENDBRANCH  11  12
ENDBRANCH   4  11
BRANCH   8  24
HETATM   24  C   UNL     1      42.115 -15.511   3.218  1.00  0.00     0.066 A 
HETATM   25  O   UNL     1      41.540 -16.745   3.319  1.00  0.00    -0.326 OA
HETATM   26  C   UNL     1      42.289 -17.594   2.570  1.00  0.00     0.142 A 
HETATM   27  C   UNL     1      43.324 -16.918   1.967  1.00  0.00     0.027 A 
HETATM   28  C   UNL     1      43.210 -15.569   2.381  1.00  0.00     0.035 A 
ENDBRANCH   8  24
BRANCH   9  29
HETATM   29  C   UNL     1      40.091 -13.201   2.062  1.00  0.00     0.255 C 
HETATM   30  N   UNL     1      40.483 -13.514   0.779  1.00  0.00    -0.323 N 
HETATM   31  H   UNL     1      41.447 -13.764   0.606  1.00  0.00     0.169 HD
HETATM   32  O   UNL     1      38.927 -13.013   2.402  1.00  0.00    -0.268 OA
BRANCH  30  33
HETATM   33  C   UNL     1      39.677 -13.524  -0.383  1.00  0.00     0.035 A 
HETATM   34  C   UNL     1      38.946 -12.426  -0.842  1.00  0.00     0.045 A 
HETATM   35  C   UNL     1      38.193 -12.502  -2.029  1.00  0.00     0.050 A 
HETATM   36  C   UNL     1      38.158 -13.711  -2.739  1.00  0.00     0.016 A 
HETATM   37  C   UNL     1      38.883 -14.811  -2.287  1.00  0.00     0.003 A 
HETATM   38  C   UNL     1      39.645 -14.714  -1.122  1.00  0.00     0.029 A 
BRANCH  35  39
HETATM   39  C   UNL     1      37.413 -11.307  -2.516  1.00  0.00     0.417 C 
HETATM   40  F   UNL     1      38.135 -10.480  -3.323  1.00  0.00    -0.166 F 
HETATM   41  F   UNL     1      36.311 -11.654  -3.240  1.00  0.00    -0.166 F 
HETATM   42  F   UNL     1      36.956 -10.532  -1.494  1.00  0.00    -0.166 F 
ENDBRANCH  35  39
ENDBRANCH  30  33
ENDBRANCH   9  29
TORSDOF 9
ENDMDL
MODEL 5
REMARK VINA RESULT:      -8.6      2.392      5.861
REMARK  9 active torsions:
REMARK  status: ('A' for Active; 'I' for Inactive)
REMARK    1  A    between atoms: C_4  and  S_5 
REMARK    2  A    between atoms: S_5  and  C_6 
REMARK    3  A    between atoms: C_6  and  C_7 
REMARK       I    between atoms: C_7  and  N_8 
REMARK    4  A    between atoms: N_8  and  C_9 
REMARK    5  A    between atoms: C_9  and  C_10 
REMARK    6  A    between atoms: C_20  and  C_21 
REMARK    7  A    between atoms: C_26  and  C_27 
REMARK       I    between atoms: C_27  and  N_28 
REMARK    8  A    between atoms: N_28  and  C_29 
REMARK    9  A    between atoms: C_31  and  C_32 
ROOT
HETATM    1  C   UNL     1      38.954 -12.480   3.011  1.00  0.00     0.069 C 
HETATM    2  C   UNL     1      39.420 -12.174   1.606  1.00  0.00     0.019 C 
HETATM    3  N   UNL     1      39.185 -10.881   1.175  1.00  0.00    -0.353 N 
HETATM    4  C   UNL     1      39.653 -10.314   0.003  1.00  0.00     0.087 C 
HETATM    5  C   UNL     1      40.215 -11.136  -0.914  1.00  0.00     0.057 C 
HETATM    6  C   UNL     1      40.632 -10.697  -2.308  1.00  0.00     0.019 C 
HETATM    7  N   UNL     1      40.981 -10.333  -3.464  1.00  0.00    -0.096 N 
HETATM    8  C   UNL     1      40.306 -12.651  -0.668  1.00  0.00     0.129 C 
HETATM    9  C   UNL     1      40.018 -13.062   0.775  1.00  0.00     0.048 C 
HETATM   10  H   UNL     1      38.640 -10.284   1.790  1.00  0.00     0.166 HD
ENDROOT
BRANCH   4  11
HETATM   11  S   UNL     1      39.465  -8.592  -0.319  1.00  0.00    -0.102 SA
BRANCH  11  12
HETATM   12  C   UNL     1      40.688  -7.888   0.830  1.00  0.00     0.183 C 
BRANCH  12  13
HETATM   13  C   UNL     1      40.404  -8.188   2.289  1.00  0.00     0.227 C 
HETATM   14  N   UNL     1      41.440  -8.692   3.037  1.00  0.00    -0.356 N 
HETATM   15  H   UNL     1      42.333  -8.879   2.597  1.00  0.00     0.162 HD
HETATM   16  O   UNL     1      39.266  -8.066   2.742  1.00  0.00    -0.273 OA
BRANCH  14  17
HETATM   17  C   UNL     1      41.201  -9.172   4.380  1.00  0.00     0.161 C 
BRANCH  17  18
HETATM   18  C   UNL     1      42.035 -10.373   4.736  1.00  0.00    -0.041 A 
HETATM   19  C   UNL     1      41.984 -10.937   6.019  1.00  0.00     0.009 A 
HETATM   20  C   UNL     1      42.710 -12.091   6.317  1.00  0.00     0.001 A 
HETATM   21  C   UNL     1      43.485 -12.703   5.333  1.00  0.00     0.000 A 
HETATM   22  C   UNL     1      43.536 -12.160   4.051  1.00  0.00     0.001 A 
HETATM   23  C   UNL     1      42.813 -11.004   3.753  1.00  0.00     0.009 A 
ENDBRANCH  17  18
ENDBRANCH  14  17
ENDBRANCH  12  13
ENDBRANCH  11  12
ENDBRANCH   4  11
BRANCH   8  24
HETATM   24  C   UNL     1      39.430 -13.399  -1.648  1.00  0.00     0.066 A 
HETATM   25  O   UNL     1      38.135 -12.975  -1.744  1.00  0.00    -0.326 OA
HETATM   26  C   UNL     1      37.525 -13.770  -2.661  1.00  0.00     0.142 A 
HETATM   27  C   UNL     1      38.415 -14.683  -3.175  1.00  0.00     0.027 A 
HETATM   28  C   UNL     1      39.650 -14.441  -2.526  1.00  0.00     0.035 A 
ENDBRANCH   8  24
BRANCH   9  29
HETATM   29  C   UNL     1      40.475 -14.404   1.295  1.00  0.00     0.255 C 
HETATM   30  N   UNL     1      41.603 -14.397   2.087  1.00  0.00    -0.323 N 
HETATM   31  H   UNL     1      42.030 -13.513   2.327  1.00  0.00     0.169 HD
HETATM   32  O   UNL     1      39.807 -15.405   1.055  1.00  0.00    -0.268 OA
BRANCH  30  33
HETATM   33  C   UNL     1      42.276 -15.518   2.625  1.00  0.00     0.035 A 
HETATM   34  C   UNL     1      42.392 -15.785   3.991  1.00  0.00     0.045 A 
HETATM   35  C   UNL     1      43.048 -16.942   4.450  1.00  0.00     0.050 A 
HETATM   36  C   UNL     1      43.618 -17.820   3.516  1.00  0.00     0.016 A 
HETATM   37  C   UNL     1      43.508 -17.561   2.153  1.00  0.00     0.003 A 
HETATM   38  C   UNL     1      42.833 -16.423   1.711  1.00  0.00     0.029 A 
BRANCH  35  39
HETATM   39  C   UNL     1      43.161 -17.219   5.928  1.00  0.00     0.417 C 
HETATM   40  F   UNL     1      42.134 -16.701   6.658  1.00  0.00    -0.166 F 
HETATM   41  F   UNL     1      43.178 -18.552   6.216  1.00  0.00    -0.166 F 
HETATM   42  F   UNL     1      44.302 -16.709   6.468  1.00  0.00    -0.166 F 
ENDBRANCH  35  39
ENDBRANCH  30  33
ENDBRANCH   9  29
TORSDOF 9
ENDMDL
MODEL 6
REMARK VINA RESULT:      -8.6      5.040      7.301
REMARK  9 active torsions:
REMARK  status: ('A' for Active; 'I' for Inactive)
REMARK    1  A    between atoms: C_4  and  S_5 
REMARK    2  A    between atoms: S_5  and  C_6 
REMARK    3  A    between atoms: C_6  and  C_7 
REMARK       I    between atoms: C_7  and  N_8 
REMARK    4  A    between atoms: N_8  and  C_9 
REMARK    5  A    between atoms: C_9  and  C_10 
REMARK    6  A    between atoms: C_20  and  C_21 
REMARK    7  A    between atoms: C_26  and  C_27 
REMARK       I    between atoms: C_27  and  N_28 
REMARK    8  A    between atoms: N_28  and  C_29 
REMARK    9  A    between atoms: C_31  and  C_32 
ROOT
HETATM    1  C   UNL     1      40.531 -11.371   4.719  1.00  0.00     0.069 C 
HETATM    2  C   UNL     1      41.261 -12.642   4.353  1.00  0.00     0.019 C 
HETATM    3  N   UNL     1      40.535 -13.541   3.591  1.00  0.00    -0.353 N 
HETATM    4  C   UNL     1      41.024 -14.692   3.001  1.00  0.00     0.087 C 
HETATM    5  C   UNL     1      42.264 -15.105   3.357  1.00  0.00     0.057 C 
HETATM    6  C   UNL     1      42.879 -16.425   2.921  1.00  0.00     0.019 C 
HETATM    7  N   UNL     1      43.391 -17.519   2.558  1.00  0.00    -0.096 N 
HETATM    8  C   UNL     1      43.086 -14.331   4.399  1.00  0.00     0.129 C 
HETATM    9  C   UNL     1      42.529 -12.946   4.724  1.00  0.00     0.048 C 
HETATM   10  H   UNL     1      39.558 -13.320   3.428  1.00  0.00     0.166 HD
ENDROOT
BRANCH   4  11
HETATM   11  S   UNL     1      40.046 -15.631   1.875  1.00  0.00    -0.102 SA
BRANCH  11  12
HETATM   12  C   UNL     1      40.347 -14.732   0.322  1.00  0.00     0.183 C 
BRANCH  12  13
HETATM   13  C   UNL     1      39.403 -13.568   0.092  1.00  0.00     0.227 C 
HETATM   14  N   UNL     1      38.742 -13.526  -1.112  1.00  0.00    -0.356 N 
HETATM   15  H   UNL     1      38.924 -14.238  -1.810  1.00  0.00     0.162 HD
HETATM   16  O   UNL     1      39.316 -12.661   0.920  1.00  0.00    -0.273 OA
BRANCH  14  17
HETATM   17  C   UNL     1      37.969 -12.360  -1.477  1.00  0.00     0.161 C 
BRANCH  17  18
HETATM   18  C   UNL     1      38.709 -11.425  -2.395  1.00  0.00    -0.041 A 
HETATM   19  C   UNL     1      38.034 -10.420  -3.104  1.00  0.00     0.009 A 
HETATM   20  C   UNL     1      38.740  -9.517  -3.900  1.00  0.00     0.001 A 
HETATM   21  C   UNL     1      40.129  -9.598  -3.986  1.00  0.00     0.000 A 
HETATM   22  C   UNL     1      40.813 -10.584  -3.278  1.00  0.00     0.001 A 
HETATM   23  C   UNL     1      40.108 -11.490  -2.485  1.00  0.00     0.009 A 
ENDBRANCH  17  18
ENDBRANCH  14  17
ENDBRANCH  12  13
ENDBRANCH  11  12
ENDBRANCH   4  11
BRANCH   8  24
HETATM   24  C   UNL     1      43.275 -15.164   5.648  1.00  0.00     0.066 A 
HETATM   25  O   UNL     1      42.353 -14.982   6.638  1.00  0.00    -0.326 OA
HETATM   26  C   UNL     1      42.700 -15.807   7.659  1.00  0.00     0.142 A 
HETATM   27  C   UNL     1      43.818 -16.537   7.330  1.00  0.00     0.027 A 
HETATM   28  C   UNL     1      44.188 -16.127   6.026  1.00  0.00     0.035 A 
ENDBRANCH   8  24
BRANCH   9  29
HETATM   29  C   UNL     1      43.406 -11.898   5.366  1.00  0.00     0.255 C 
HETATM   30  N   UNL     1      43.477 -11.924   6.741  1.00  0.00    -0.323 N 
HETATM   31  H   UNL     1      42.999 -12.660   7.244  1.00  0.00     0.169 HD
HETATM   32  O   UNL     1      44.052 -11.132   4.656  1.00  0.00    -0.268 OA
BRANCH  30  33
HETATM   33  C   UNL     1      44.155 -11.010   7.580  1.00  0.00     0.035 A 
HETATM   34  C   UNL     1      43.540 -10.257   8.582  1.00  0.00     0.045 A 
HETATM   35  C   UNL     1      44.289  -9.392   9.402  1.00  0.00     0.050 A 
HETATM   36  C   UNL     1      45.669  -9.269   9.183  1.00  0.00     0.016 A 
HETATM   37  C   UNL     1      46.290 -10.015   8.185  1.00  0.00     0.003 A 
HETATM   38  C   UNL     1      45.539 -10.886   7.396  1.00  0.00     0.029 A 
BRANCH  35  39
HETATM   39  C   UNL     1      43.612  -8.589  10.484  1.00  0.00     0.417 C 
HETATM   40  F   UNL     1      43.536  -7.258  10.205  1.00  0.00    -0.166 F 
HETATM   41  F   UNL     1      42.328  -8.988  10.714  1.00  0.00    -0.166 F 
HETATM   42  F   UNL     1      44.250  -8.687  11.683  1.00  0.00    -0.166 F 
ENDBRANCH  35  39
ENDBRANCH  30  33
ENDBRANCH   9  29
TORSDOF 9
ENDMDL
MODEL 7
REMARK VINA RESULT:      -8.4      2.024      5.936
REMARK  9 active torsions:
REMARK  status: ('A' for Active; 'I' for Inactive)
REMARK    1  A    between atoms: C_4  and  S_5 
REMARK    2  A    between atoms: S_5  and  C_6 
REMARK    3  A    between atoms: C_6  and  C_7 
REMARK       I    between atoms: C_7  and  N_8 
REMARK    4  A    between atoms: N_8  and  C_9 
REMARK    5  A    between atoms: C_9  and  C_10 
REMARK    6  A    between atoms: C_20  and  C_21 
REMARK    7  A    between atoms: C_26  and  C_27 
REMARK       I    between atoms: C_27  and  N_28 
REMARK    8  A    between atoms: N_28  and  C_29 
REMARK    9  A    between atoms: C_31  and  C_32 
ROOT
HETATM    1  C   UNL     1      40.246 -13.796   5.636  1.00  0.00     0.069 C 
HETATM    2  C   UNL     1      40.379 -12.967   4.379  1.00  0.00     0.019 C 
HETATM    3  N   UNL     1      39.508 -11.897   4.284  1.00  0.00    -0.353 N 
HETATM    4  C   UNL     1      39.536 -10.906   3.319  1.00  0.00     0.087 C 
HETATM    5  C   UNL     1      40.343 -11.092   2.247  1.00  0.00     0.057 C 
HETATM    6  C   UNL     1      40.369 -10.178   1.033  1.00  0.00     0.019 C 
HETATM    7  N   UNL     1      40.392  -9.420   0.025  1.00  0.00    -0.096 N 
HETATM    8  C   UNL     1      41.179 -12.373   2.100  1.00  0.00     0.129 C 
HETATM    9  C   UNL     1      41.257 -13.211   3.375  1.00  0.00     0.048 C 
HETATM   10  H   UNL     1      38.799 -11.816   5.006  1.00  0.00     0.166 HD
ENDROOT
BRANCH   4  11
HETATM   11  S   UNL     1      38.507  -9.480   3.441  1.00  0.00    -0.102 SA
BRANCH  11  12
HETATM   12  C   UNL     1      38.588  -9.146   5.228  1.00  0.00     0.183 C 
BRANCH  12  13
HETATM   13  C   UNL     1      39.956  -8.701   5.709  1.00  0.00     0.227 C 
HETATM   14  N   UNL     1      40.523  -9.421   6.732  1.00  0.00    -0.356 N 
HETATM   15  H   UNL     1      40.012 -10.188   7.151  1.00  0.00     0.162 HD
HETATM   16  O   UNL     1      40.476  -7.683   5.254  1.00  0.00    -0.273 OA
BRANCH  14  17
HETATM   17  C   UNL     1      41.736  -8.952   7.365  1.00  0.00     0.161 C 
BRANCH  17  18
HETATM   18  C   UNL     1      42.855  -9.956   7.315  1.00  0.00    -0.041 A 
HETATM   19  C   UNL     1      42.761 -11.108   6.521  1.00  0.00     0.009 A 
HETATM   20  C   UNL     1      43.833 -11.998   6.431  1.00  0.00     0.001 A 
HETATM   21  C   UNL     1      45.015 -11.740   7.123  1.00  0.00     0.000 A 
HETATM   22  C   UNL     1      45.127 -10.594   7.906  1.00  0.00     0.001 A 
HETATM   23  C   UNL     1      44.054  -9.705   8.000  1.00  0.00     0.009 A 
ENDBRANCH  17  18
ENDBRANCH  14  17
ENDBRANCH  12  13
ENDBRANCH  11  12
ENDBRANCH   4  11
BRANCH   8  24
HETATM   24  C   UNL     1      40.694 -13.189   0.922  1.00  0.00     0.066 A 
HETATM   25  O   UNL     1      40.109 -14.386   1.220  1.00  0.00    -0.326 OA
HETATM   26  C   UNL     1      39.753 -14.957   0.041  1.00  0.00     0.142 A 
HETATM   27  C   UNL     1      40.078 -14.133  -1.011  1.00  0.00     0.027 A 
HETATM   28  C   UNL     1      40.681 -12.985  -0.443  1.00  0.00     0.035 A 
ENDBRANCH   8  24
BRANCH   9  29
HETATM   29  C   UNL     1      42.352 -14.235   3.554  1.00  0.00     0.255 C 
HETATM   30  N   UNL     1      41.966 -15.556   3.489  1.00  0.00    -0.323 N 
HETATM   31  H   UNL     1      41.003 -15.777   3.273  1.00  0.00     0.169 HD
HETATM   32  O   UNL     1      43.515 -13.862   3.678  1.00  0.00    -0.268 OA
BRANCH  30  33
HETATM   33  C   UNL     1      42.776 -16.695   3.705  1.00  0.00     0.035 A 
HETATM   34  C   UNL     1      42.724 -17.855   2.929  1.00  0.00     0.045 A 
HETATM   35  C   UNL     1      43.588 -18.936   3.183  1.00  0.00     0.050 A 
HETATM   36  C   UNL     1      44.492 -18.851   4.252  1.00  0.00     0.016 A 
HETATM   37  C   UNL     1      44.550 -17.699   5.031  1.00  0.00     0.003 A 
HETATM   38  C   UNL     1      43.704 -16.625   4.753  1.00  0.00     0.029 A 
BRANCH  35  39
HETATM   39  C   UNL     1      43.524 -20.180   2.333  1.00  0.00     0.417 C 
HETATM   40  F   UNL     1      43.827 -21.320   3.016  1.00  0.00    -0.166 F 
HETATM   41  F   UNL     1      42.287 -20.393   1.798  1.00  0.00    -0.166 F 
HETATM   42  F   UNL     1      44.381 -20.135   1.277  1.00  0.00    -0.166 F 
ENDBRANCH  35  39
ENDBRANCH  30  33
ENDBRANCH   9  29
TORSDOF 9
ENDMDL
MODEL 8
REMARK VINA RESULT:      -8.4      3.027      4.832
REMARK  9 active torsions:
REMARK  status: ('A' for Active; 'I' for Inactive)
REMARK    1  A    between atoms: C_4  and  S_5 
REMARK    2  A    between atoms: S_5  and  C_6 
REMARK    3  A    between atoms: C_6  and  C_7 
REMARK       I    between atoms: C_7  and  N_8 
REMARK    4  A    between atoms: N_8  and  C_9 
REMARK    5  A    between atoms: C_9  and  C_10 
REMARK    6  A    between atoms: C_20  and  C_21 
REMARK    7  A    between atoms: C_26  and  C_27 
REMARK       I    between atoms: C_27  and  N_28 
REMARK    8  A    between atoms: N_28  and  C_29 
REMARK    9  A    between atoms: C_31  and  C_32 
ROOT
HETATM    1  C   UNL     1      42.834 -10.781   3.739  1.00  0.00     0.069 C 
HETATM    2  C   UNL     1      42.456 -10.431   5.160  1.00  0.00     0.019 C 
HETATM    3  N   UNL     1      41.669  -9.302   5.300  1.00  0.00    -0.353 N 
HETATM    4  C   UNL     1      41.065  -8.868   6.466  1.00  0.00     0.087 C 
HETATM    5  C   UNL     1      41.431  -9.465   7.625  1.00  0.00     0.057 C 
HETATM    6  C   UNL     1      40.981  -9.000   9.001  1.00  0.00     0.019 C 
HETATM    7  N   UNL     1      40.607  -8.616  10.142  1.00  0.00    -0.096 N 
HETATM    8  C   UNL     1      42.500 -10.570   7.642  1.00  0.00     0.129 C 
HETATM    9  C   UNL     1      42.840 -11.124   6.260  1.00  0.00     0.048 C 
HETATM   10  H   UNL     1      41.495  -8.757   4.461  1.00  0.00     0.166 HD
ENDROOT
BRANCH   4  11
HETATM   11  S   UNL     1      39.909  -7.538   6.458  1.00  0.00    -0.102 SA
BRANCH  11  12
HETATM   12  C   UNL     1      38.463  -8.340   5.699  1.00  0.00     0.183 C 
BRANCH  12  13
HETATM   13  C   UNL     1      38.638  -8.658   4.227  1.00  0.00     0.227 C 
HETATM   14  N   UNL     1      38.031  -9.796   3.756  1.00  0.00    -0.356 N 
HETATM   15  H   UNL     1      37.525 -10.397   4.396  1.00  0.00     0.162 HD
HETATM   16  O   UNL     1      39.372  -7.964   3.521  1.00  0.00    -0.273 OA
BRANCH  14  17
HETATM   17  C   UNL     1      38.301 -10.262   2.414  1.00  0.00     0.161 C 
BRANCH  17  18
HETATM   18  C   UNL     1      39.030 -11.578   2.380  1.00  0.00    -0.041 A 
HETATM   19  C   UNL     1      39.364 -12.252   3.564  1.00  0.00     0.009 A 
HETATM   20  C   UNL     1      39.981 -13.504   3.518  1.00  0.00     0.001 A 
HETATM   21  C   UNL     1      40.257 -14.102   2.290  1.00  0.00     0.000 A 
HETATM   22  C   UNL     1      39.920 -13.449   1.106  1.00  0.00     0.001 A 
HETATM   23  C   UNL     1      39.308 -12.195   1.151  1.00  0.00     0.009 A 
ENDBRANCH  17  18
ENDBRANCH  14  17
ENDBRANCH  12  13
ENDBRANCH  11  12
ENDBRANCH   4  11
BRANCH   8  24
HETATM   24  C   UNL     1      43.736 -10.099   8.376  1.00  0.00     0.066 A 
HETATM   25  O   UNL     1      44.466  -9.123   7.761  1.00  0.00    -0.326 OA
HETATM   26  C   UNL     1      45.522  -8.849   8.569  1.00  0.00     0.142 A 
HETATM   27  C   UNL     1      45.468  -9.616   9.708  1.00  0.00     0.027 A 
HETATM   28  C   UNL     1      44.310 -10.422   9.589  1.00  0.00     0.035 A 
ENDBRANCH   8  24
BRANCH   9  29
HETATM   29  C   UNL     1      43.513 -12.468   6.117  1.00  0.00     0.255 C 
HETATM   30  N   UNL     1      42.731 -13.490   5.625  1.00  0.00    -0.323 N 
HETATM   31  H   UNL     1      41.784 -13.288   5.334  1.00  0.00     0.169 HD
HETATM   32  O   UNL     1      44.708 -12.576   6.373  1.00  0.00    -0.268 OA
BRANCH  30  33
HETATM   33  C   UNL     1      43.094 -14.848   5.475  1.00  0.00     0.035 A 
HETATM   34  C   UNL     1      43.090 -15.534   4.259  1.00  0.00     0.045 A 
HETATM   35  C   UNL     1      43.500 -16.878   4.183  1.00  0.00     0.050 A 
HETATM   36  C   UNL     1      43.889 -17.541   5.357  1.00  0.00     0.016 A 
HETATM   37  C   UNL     1      43.895 -16.865   6.574  1.00  0.00     0.003 A 
HETATM   38  C   UNL     1      43.510 -15.525   6.630  1.00  0.00     0.029 A 
BRANCH  35  39
HETATM   39  C   UNL     1      43.494 -17.604   2.862  1.00  0.00     0.417 C 
HETATM   40  F   UNL     1      42.308 -18.214   2.582  1.00  0.00    -0.166 F 
HETATM   41  F   UNL     1      43.739 -16.779   1.803  1.00  0.00    -0.166 F 
HETATM   42  F   UNL     1      44.443 -18.579   2.799  1.00  0.00    -0.166 F 
ENDBRANCH  35  39
ENDBRANCH  30  33
ENDBRANCH   9  29
TORSDOF 9
ENDMDL
MODEL 9
REMARK VINA RESULT:      -8.3      8.013     11.233
REMARK  9 active torsions:
REMARK  status: ('A' for Active; 'I' for Inactive)
REMARK    1  A    between atoms: C_4  and  S_5 
REMARK    2  A    between atoms: S_5  and  C_6 
REMARK    3  A    between atoms: C_6  and  C_7 
REMARK       I    between atoms: C_7  and  N_8 
REMARK    4  A    between atoms: N_8  and  C_9 
REMARK    5  A    between atoms: C_9  and  C_10 
REMARK    6  A    between atoms: C_20  and  C_21 
REMARK    7  A    between atoms: C_26  and  C_27 
REMARK       I    between atoms: C_27  and  N_28 
REMARK    8  A    between atoms: N_28  and  C_29 
REMARK    9  A    between atoms: C_31  and  C_32 
ROOT
HETATM    1  C   UNL     1      45.195  -9.989  10.446  1.00  0.00     0.069 C 
HETATM    2  C   UNL     1      44.083  -9.969   9.423  1.00  0.00     0.019 C 
HETATM    3  N   UNL     1      44.432 -10.425   8.164  1.00  0.00    -0.353 N 
HETATM    4  C   UNL     1      43.566 -10.653   7.110  1.00  0.00     0.087 C 
HETATM    5  C   UNL     1      42.295 -10.202   7.230  1.00  0.00     0.057 C 
HETATM    6  C   UNL     1      41.271 -10.233   6.107  1.00  0.00     0.019 C 
HETATM    7  N   UNL     1      40.421 -10.260   5.176  1.00  0.00    -0.096 N 
HETATM    8  C   UNL     1      41.841  -9.441   8.487  1.00  0.00     0.129 C 
HETATM    9  C   UNL     1      42.820  -9.537   9.656  1.00  0.00     0.048 C 
HETATM   10  H   UNL     1      45.412 -10.637   8.008  1.00  0.00     0.166 HD
ENDROOT
BRANCH   4  11
HETATM   11  S   UNL     1      44.111 -11.441   5.631  1.00  0.00    -0.102 SA
BRANCH  11  12
HETATM   12  C   UNL     1      43.637 -13.166   5.964  1.00  0.00     0.183 C 
BRANCH  12  13
HETATM   13  C   UNL     1      42.948 -13.850   4.798  1.00  0.00     0.227 C 
HETATM   14  N   UNL     1      43.238 -15.177   4.591  1.00  0.00    -0.356 N 
HETATM   15  H   UNL     1      43.914 -15.642   5.186  1.00  0.00     0.162 HD
HETATM   16  O   UNL     1      42.236 -13.205   4.028  1.00  0.00    -0.273 OA
BRANCH  14  17
HETATM   17  C   UNL     1      42.766 -15.847   3.400  1.00  0.00     0.161 C 
BRANCH  17  18
HETATM   18  C   UNL     1      43.204 -17.285   3.318  1.00  0.00    -0.041 A 
HETATM   19  C   UNL     1      43.899 -17.892   4.374  1.00  0.00     0.009 A 
HETATM   20  C   UNL     1      44.241 -19.244   4.314  1.00  0.00     0.001 A 
HETATM   21  C   UNL     1      43.879 -20.008   3.206  1.00  0.00     0.000 A 
HETATM   22  C   UNL     1      43.177 -19.420   2.155  1.00  0.00     0.001 A 
HETATM   23  C   UNL     1      42.839 -18.067   2.212  1.00  0.00     0.009 A 
ENDBRANCH  17  18
ENDBRANCH  14  17
ENDBRANCH  12  13
ENDBRANCH  11  12
ENDBRANCH   4  11
BRANCH   8  24
HETATM   24  C   UNL     1      41.514  -8.004   8.146  1.00  0.00     0.066 A 
HETATM   25  O   UNL     1      42.542  -7.254   7.651  1.00  0.00    -0.326 OA
HETATM   26  C   UNL     1      42.050  -6.011   7.418  1.00  0.00     0.142 A 
HETATM   27  C   UNL     1      40.712  -5.956   7.732  1.00  0.00     0.027 A 
HETATM   28  C   UNL     1      40.362  -7.247   8.198  1.00  0.00     0.035 A 
ENDBRANCH   8  24
BRANCH   9  29
HETATM   29  C   UNL     1      42.363  -9.241  11.064  1.00  0.00     0.255 C 
HETATM   30  N   UNL     1      42.379  -7.917  11.443  1.00  0.00    -0.323 N 
HETATM   31  H   UNL     1      42.632  -7.214  10.762  1.00  0.00     0.169 HD
HETATM   32  O   UNL     1      41.947 -10.156  11.769  1.00  0.00    -0.268 OA
BRANCH  30  33
HETATM   33  C   UNL     1      42.081  -7.390  12.721  1.00  0.00     0.035 A 
HETATM   34  C   UNL     1      40.838  -6.871  13.088  1.00  0.00     0.045 A 
HETATM   35  C   UNL     1      40.607  -6.396  14.392  1.00  0.00     0.050 A 
HETATM   36  C   UNL     1      41.656  -6.420  15.323  1.00  0.00     0.016 A 
HETATM   37  C   UNL     1      42.899  -6.934  14.966  1.00  0.00     0.003 A 
HETATM   38  C   UNL     1      43.106  -7.425  13.676  1.00  0.00     0.029 A 
BRANCH  35  39
HETATM   39  C   UNL     1      39.257  -5.842  14.775  1.00  0.00     0.417 C 
HETATM   40  F   UNL     1      39.070  -4.550  14.385  1.00  0.00    -0.166 F 
HETATM   41  F   UNL     1      38.223  -6.543  14.226  1.00  0.00    -0.166 F 
HETATM   42  F   UNL     1      39.048  -5.865  16.120  1.00  0.00    -0.166 F 
ENDBRANCH  35  39
ENDBRANCH  30  33
ENDBRANCH   9  29
TORSDOF 9
ENDMDL
MODEL 10
REMARK VINA RESULT:      -8.2      1.877      5.460
REMARK  9 active torsions:
REMARK  status: ('A' for Active; 'I' for Inactive)
REMARK    1  A    between atoms: C_4  and  S_5 
REMARK    2  A    between atoms: S_5  and  C_6 
REMARK    3  A    between atoms: C_6  and  C_7 
REMARK       I    between atoms: C_7  and  N_8 
REMARK    4  A    between atoms: N_8  and  C_9 
REMARK    5  A    between atoms: C_9  and  C_10 
REMARK    6  A    between atoms: C_20  and  C_21 
REMARK    7  A    between atoms: C_26  and  C_27 
REMARK       I    between atoms: C_27  and  N_28 
REMARK    8  A    between atoms: N_28  and  C_29 
REMARK    9  A    between atoms: C_31  and  C_32 
ROOT
HETATM    1  C   UNL     1      38.999 -12.796   3.066  1.00  0.00     0.069 C 
HETATM    2  C   UNL     1      39.481 -12.529   1.658  1.00  0.00     0.019 C 
HETATM    3  N   UNL     1      39.255 -11.246   1.191  1.00  0.00    -0.353 N 
HETATM    4  C   UNL     1      39.738 -10.711   0.010  1.00  0.00     0.087 C 
HETATM    5  C   UNL     1      40.306 -11.559  -0.880  1.00  0.00     0.057 C 
HETATM    6  C   UNL     1      40.739 -11.157  -2.280  1.00  0.00     0.019 C 
HETATM    7  N   UNL     1      41.100 -10.824  -3.442  1.00  0.00    -0.096 N 
HETATM    8  C   UNL     1      40.388 -13.067  -0.594  1.00  0.00     0.129 C 
HETATM    9  C   UNL     1      40.084 -13.440   0.856  1.00  0.00     0.048 C 
HETATM   10  H   UNL     1      38.707 -10.632   1.785  1.00  0.00     0.166 HD
ENDROOT
BRANCH   4  11
HETATM   11  S   UNL     1      39.560  -8.997  -0.358  1.00  0.00    -0.102 SA
BRANCH  11  12
HETATM   12  C   UNL     1      40.799  -8.272   0.759  1.00  0.00     0.183 C 
BRANCH  12  13
HETATM   13  C   UNL     1      40.395  -8.289   2.221  1.00  0.00     0.227 C 
HETATM   14  N   UNL     1      41.404  -8.381   3.148  1.00  0.00    -0.356 N 
HETATM   15  H   UNL     1      42.365  -8.468   2.838  1.00  0.00     0.162 HD
HETATM   16  O   UNL     1      39.206  -8.313   2.539  1.00  0.00    -0.273 OA
BRANCH  14  17
HETATM   17  C   UNL     1      41.092  -8.586   4.545  1.00  0.00     0.161 C 
BRANCH  17  18
HETATM   18  C   UNL     1      41.139 -10.033   4.955  1.00  0.00    -0.041 A 
HETATM   19  C   UNL     1      42.190 -10.868   4.548  1.00  0.00     0.009 A 
HETATM   20  C   UNL     1      42.258 -12.190   4.990  1.00  0.00     0.001 A 
HETATM   21  C   UNL     1      41.285 -12.689   5.854  1.00  0.00     0.000 A 
HETATM   22  C   UNL     1      40.241 -11.867   6.275  1.00  0.00     0.001 A 
HETATM   23  C   UNL     1      40.170 -10.546   5.831  1.00  0.00     0.009 A 
ENDBRANCH  17  18
ENDBRANCH  14  17
ENDBRANCH  12  13
ENDBRANCH  11  12
ENDBRANCH   4  11
BRANCH   8  24
HETATM   24  C   UNL     1      39.519 -13.837  -1.564  1.00  0.00     0.066 A 
HETATM   25  O   UNL     1      38.312 -13.274  -1.869  1.00  0.00    -0.326 OA
HETATM   26  C   UNL     1      37.692 -14.113  -2.738  1.00  0.00     0.142 A 
HETATM   27  C   UNL     1      38.493 -15.195  -3.017  1.00  0.00     0.027 A 
HETATM   28  C   UNL     1      39.678 -15.016  -2.263  1.00  0.00     0.035 A 
ENDBRANCH   8  24
BRANCH   9  29
HETATM   29  C   UNL     1      40.530 -14.770   1.415  1.00  0.00     0.255 C 
HETATM   30  N   UNL     1      41.676 -14.754   2.179  1.00  0.00    -0.323 N 
HETATM   31  H   UNL     1      42.124 -13.869   2.377  1.00  0.00     0.169 HD
HETATM   32  O   UNL     1      39.839 -15.767   1.227  1.00  0.00    -0.268 OA
BRANCH  30  33
HETATM   33  C   UNL     1      42.343 -15.866   2.743  1.00  0.00     0.035 A 
HETATM   34  C   UNL     1      42.355 -17.145   2.181  1.00  0.00     0.045 A 
HETATM   35  C   UNL     1      43.072 -18.194   2.784  1.00  0.00     0.050 A 
HETATM   36  C   UNL     1      43.759 -17.952   3.983  1.00  0.00     0.016 A 
HETATM   37  C   UNL     1      43.752 -16.681   4.551  1.00  0.00     0.003 A 
HETATM   38  C   UNL     1      43.056 -15.644   3.929  1.00  0.00     0.029 A 
BRANCH  35  39
HETATM   39  C   UNL     1      43.080 -19.569   2.163  1.00  0.00     0.417 C 
HETATM   40  F   UNL     1      43.478 -20.550   3.021  1.00  0.00    -0.166 F 
HETATM   41  F   UNL     1      41.851 -19.953   1.713  1.00  0.00    -0.166 F 
HETATM   42  F   UNL     1      43.910 -19.649   1.087  1.00  0.00    -0.166 F 
ENDBRANCH  35  39
ENDBRANCH  30  33
ENDBRANCH   9  29
TORSDOF 9
ENDMDL
