MODEL 1
REMARK VINA RESULT:      -9.2      0.000      0.000
REMARK  6 active torsions:
REMARK  status: ('A' for Active; 'I' for Inactive)
REMARK    1  A    between atoms: O_2  and  C_3 
REMARK    2  A    between atoms: C_6  and  C_7 
REMARK    3  A    between atoms: C_7  and  N_8 
REMARK       I    between atoms: N_8  and  C_9 
REMARK    4  A    between atoms: C_9  and  C_10 
REMARK    5  A    between atoms: C_13  and  C_14 
REMARK    6  A    between atoms: C_19  and  C_20 
ROOT
HETATM    1  C   UNL     1      43.458 -12.353   4.727  1.00  0.00     0.096 A 
HETATM    2  C   UNL     1      42.930 -13.426   4.028  1.00  0.00     0.138 A 
HETATM    3  N   UNL     1      42.339 -12.880   2.911  1.00  0.00    -0.240 N 
HETATM    4  C   UNL     1      41.704 -13.650   1.858  1.00  0.00     0.221 C 
HETATM    5  C   UNL     1      42.249 -15.086   1.868  1.00  0.00     0.066 C 
HETATM    6  C   UNL     1      42.237 -15.669   3.290  1.00  0.00     0.118 C 
HETATM    7  N   UNL     1      42.938 -14.773   4.215  1.00  0.00    -0.365 N 
HETATM    8  N   UNL     1      42.520 -11.559   2.781  1.00  0.00    -0.181 NA
HETATM    9  C   UNL     1      43.183 -11.236   3.895  1.00  0.00     0.160 A 
HETATM   10  H   UNL     1      43.632 -15.226   4.808  1.00  0.00     0.161 HD
ENDROOT
BRANCH   1  11
HETATM   11  C   UNL     1      44.158 -12.291   5.996  1.00  0.00     0.257 C 
HETATM   12  N   UNL     1      45.017 -11.229   6.147  1.00  0.00    -0.352 N 
HETATM   13  H   UNL     1      45.172 -10.623   5.355  1.00  0.00     0.163 HD
HETATM   14  O   UNL     1      44.005 -13.154   6.854  1.00  0.00    -0.267 OA
BRANCH  12  15
HETATM   15  C   UNL     1      45.779 -11.022   7.354  1.00  0.00     0.161 C 
BRANCH  15  16
HETATM   16  C   UNL     1      45.048 -10.142   8.336  1.00  0.00    -0.040 A 
HETATM   17  C   UNL     1      43.982  -9.336   7.908  1.00  0.00     0.011 A 
HETATM   18  C   UNL     1      43.280  -8.531   8.811  1.00  0.00     0.037 A 
HETATM   19  C   UNL     1      43.632  -8.521  10.160  1.00  0.00     0.068 A 
HETATM   20  C   UNL     1      44.703  -9.308  10.589  1.00  0.00     0.037 A 
HETATM   21  C   UNL     1      45.409 -10.111   9.687  1.00  0.00     0.011 A 
BRANCH  19  22
HETATM   22  O   UNL     1      43.020  -7.794  11.144  1.00  0.00    -0.356 OA
HETATM   23  C   UNL     1      43.081  -8.326  12.462  1.00  0.00     0.210 C 
ENDBRANCH  19  22
ENDBRANCH  15  16
ENDBRANCH  12  15
ENDBRANCH   1  11
BRANCH   4  24
HETATM   24  C   UNL     1      40.200 -13.592   2.016  1.00  0.00     0.409 C 
HETATM   25  F   UNL     1      39.814 -13.334   3.283  1.00  0.00    -0.169 F 
HETATM   26  F   UNL     1      39.698 -12.589   1.248  1.00  0.00    -0.169 F 
HETATM   27  F   UNL     1      39.580 -14.724   1.618  1.00  0.00    -0.169 F 
ENDBRANCH   4  24
BRANCH   6  28
HETATM   28  C   UNL     1      42.844 -17.059   3.314  1.00  0.00    -0.035 A 
HETATM   29  C   UNL     1      43.641 -17.502   4.383  1.00  0.00     0.009 A 
HETATM   30  C   UNL     1      44.206 -18.780   4.368  1.00  0.00     0.001 A 
HETATM   31  C   UNL     1      43.992 -19.626   3.282  1.00  0.00     0.000 A 
HETATM   32  C   UNL     1      43.215 -19.197   2.210  1.00  0.00     0.001 A 
HETATM   33  C   UNL     1      42.645 -17.923   2.224  1.00  0.00     0.009 A 
ENDBRANCH   6  28
TORSDOF 6
ENDMDL
MODEL 2
REMARK VINA RESULT:      -9.1      4.756      7.989
REMARK  6 active torsions:
REMARK  status: ('A' for Active; 'I' for Inactive)
REMARK    1  A    between atoms: O_2  and  C_3 
REMARK    2  A    between atoms: C_6  and  C_7 
REMARK    3  A    between atoms: C_7  and  N_8 
REMARK       I    between atoms: N_8  and  C_9 
REMARK    4  A    between atoms: C_9  and  C_10 
REMARK    5  A    between atoms: C_13  and  C_14 
REMARK    6  A    between atoms: C_19  and  C_20 
ROOT
HETATM    1  C   UNL     1      42.187 -13.711   4.091  1.00  0.00     0.096 A 
HETATM    2  C   UNL     1      42.586 -14.939   4.591  1.00  0.00     0.138 A 
HETATM    3  N   UNL     1      42.157 -14.959   5.898  1.00  0.00    -0.240 N 
HETATM    4  C   UNL     1      42.310 -16.087   6.798  1.00  0.00     0.221 C 
HETATM    5  C   UNL     1      42.486 -17.376   5.982  1.00  0.00     0.066 C 
HETATM    6  C   UNL     1      43.539 -17.190   4.879  1.00  0.00     0.118 C 
HETATM    7  N   UNL     1      43.215 -16.020   4.057  1.00  0.00    -0.365 N 
HETATM    8  N   UNL     1      41.435 -13.889   6.258  1.00  0.00    -0.181 NA
HETATM    9  C   UNL     1      41.471 -13.122   5.165  1.00  0.00     0.160 A 
HETATM   10  H   UNL     1      43.234 -16.184   3.051  1.00  0.00     0.161 HD
ENDROOT
BRANCH   1  11
HETATM   11  C   UNL     1      42.389 -13.099   2.791  1.00  0.00     0.257 C 
HETATM   12  N   UNL     1      41.315 -12.399   2.294  1.00  0.00    -0.352 N 
HETATM   13  H   UNL     1      40.447 -12.427   2.807  1.00  0.00     0.163 HD
HETATM   14  O   UNL     1      43.441 -13.232   2.176  1.00  0.00    -0.267 OA
BRANCH  12  15
HETATM   15  C   UNL     1      41.359 -11.726   1.019  1.00  0.00     0.161 C 
BRANCH  15  16
HETATM   16  C   UNL     1      40.815 -12.589  -0.091  1.00  0.00    -0.040 A 
HETATM   17  C   UNL     1      40.186 -13.809   0.203  1.00  0.00     0.011 A 
HETATM   18  C   UNL     1      39.657 -14.610  -0.814  1.00  0.00     0.037 A 
HETATM   19  C   UNL     1      39.746 -14.203  -2.143  1.00  0.00     0.068 A 
HETATM   20  C   UNL     1      40.386 -12.998  -2.444  1.00  0.00     0.037 A 
HETATM   21  C   UNL     1      40.919 -12.197  -1.429  1.00  0.00     0.011 A 
BRANCH  19  22
HETATM   22  O   UNL     1      39.259 -14.883  -3.226  1.00  0.00    -0.356 OA
HETATM   23  C   UNL     1      37.985 -14.478  -3.712  1.00  0.00     0.210 C 
ENDBRANCH  19  22
ENDBRANCH  15  16
ENDBRANCH  12  15
ENDBRANCH   1  11
BRANCH   4  24
HETATM   24  C   UNL     1      43.460 -15.832   7.748  1.00  0.00     0.409 C 
HETATM   25  F   UNL     1      43.069 -15.257   8.904  1.00  0.00    -0.169 F 
HETATM   26  F   UNL     1      44.046 -17.012   8.084  1.00  0.00    -0.169 F 
HETATM   27  F   UNL     1      44.432 -15.063   7.212  1.00  0.00    -0.169 F 
ENDBRANCH   4  24
BRANCH   6  28
HETATM   28  C   UNL     1      43.660 -18.438   4.025  1.00  0.00    -0.035 A 
HETATM   29  C   UNL     1      43.330 -18.438   2.660  1.00  0.00     0.009 A 
HETATM   30  C   UNL     1      43.430 -19.608   1.902  1.00  0.00     0.001 A 
HETATM   31  C   UNL     1      43.850 -20.794   2.501  1.00  0.00     0.000 A 
HETATM   32  C   UNL     1      44.169 -20.813   3.856  1.00  0.00     0.001 A 
HETATM   33  C   UNL     1      44.075 -19.645   4.614  1.00  0.00     0.009 A 
ENDBRANCH   6  28
TORSDOF 6
ENDMDL
MODEL 3
REMARK VINA RESULT:      -9.0      4.963      8.704
REMARK  6 active torsions:
REMARK  status: ('A' for Active; 'I' for Inactive)
REMARK    1  A    between atoms: O_2  and  C_3 
REMARK    2  A    between atoms: C_6  and  C_7 
REMARK    3  A    between atoms: C_7  and  N_8 
REMARK       I    between atoms: N_8  and  C_9 
REMARK    4  A    between atoms: C_9  and  C_10 
REMARK    5  A    between atoms: C_13  and  C_14 
REMARK    6  A    between atoms: C_19  and  C_20 
ROOT
HETATM    1  C   UNL     1      40.403 -14.432   1.827  1.00  0.00     0.096 A 
HETATM    2  C   UNL     1      41.265 -15.115   2.668  1.00  0.00     0.138 A 
HETATM    3  N   UNL     1      41.116 -14.525   3.903  1.00  0.00    -0.240 N 
HETATM    4  C   UNL     1      41.794 -14.961   5.110  1.00  0.00     0.221 C 
HETATM    5  C   UNL     1      42.225 -16.427   4.958  1.00  0.00     0.066 C 
HETATM    6  C   UNL     1      42.935 -16.655   3.615  1.00  0.00     0.118 C 
HETATM    7  N   UNL     1      42.101 -16.175   2.509  1.00  0.00    -0.365 N 
HETATM    8  N   UNL     1      40.166 -13.582   3.952  1.00  0.00    -0.181 NA
HETATM    9  C   UNL     1      39.746 -13.512   2.686  1.00  0.00     0.160 A 
HETATM   10  H   UNL     1      41.985 -16.836   1.742  1.00  0.00     0.161 HD
ENDROOT
BRANCH   1  11
HETATM   11  C   UNL     1      40.149 -14.568   0.405  1.00  0.00     0.257 C 
HETATM   12  N   UNL     1      40.552 -13.509  -0.372  1.00  0.00    -0.352 N 
HETATM   13  H   UNL     1      40.908 -12.685   0.089  1.00  0.00     0.163 HD
HETATM   14  O   UNL     1      39.583 -15.555  -0.052  1.00  0.00    -0.267 OA
BRANCH  12  15
HETATM   15  C   UNL     1      40.378 -13.495  -1.804  1.00  0.00     0.161 C 
BRANCH  15  16
HETATM   16  C   UNL     1      39.071 -12.858  -2.205  1.00  0.00    -0.040 A 
HETATM   17  C   UNL     1      38.944 -11.461  -2.237  1.00  0.00     0.011 A 
HETATM   18  C   UNL     1      37.746 -10.855  -2.628  1.00  0.00     0.037 A 
HETATM   19  C   UNL     1      36.653 -11.639  -2.996  1.00  0.00     0.068 A 
HETATM   20  C   UNL     1      36.768 -13.030  -2.950  1.00  0.00     0.037 A 
HETATM   21  C   UNL     1      37.964 -13.638  -2.556  1.00  0.00     0.011 A 
BRANCH  19  22
HETATM   22  O   UNL     1      35.435 -11.174  -3.411  1.00  0.00    -0.356 OA
HETATM   23  C   UNL     1      34.597 -12.101  -4.091  1.00  0.00     0.210 C 
ENDBRANCH  19  22
ENDBRANCH  15  16
ENDBRANCH  12  15
ENDBRANCH   1  11
BRANCH   4  24
HETATM   24  C   UNL     1      42.953 -14.036   5.410  1.00  0.00     0.409 C 
HETATM   25  F   UNL     1      42.626 -13.043   6.263  1.00  0.00    -0.169 F 
HETATM   26  F   UNL     1      43.957 -14.737   6.001  1.00  0.00    -0.169 F 
HETATM   27  F   UNL     1      43.482 -13.471   4.303  1.00  0.00    -0.169 F 
ENDBRANCH   4  24
BRANCH   6  28
HETATM   28  C   UNL     1      43.296 -18.117   3.431  1.00  0.00    -0.035 A 
HETATM   29  C   UNL     1      43.022 -18.803   2.236  1.00  0.00     0.009 A 
HETATM   30  C   UNL     1      43.345 -20.156   2.102  1.00  0.00     0.001 A 
HETATM   31  C   UNL     1      43.934 -20.842   3.162  1.00  0.00     0.000 A 
HETATM   32  C   UNL     1      44.199 -20.179   4.357  1.00  0.00     0.001 A 
HETATM   33  C   UNL     1      43.884 -18.826   4.491  1.00  0.00     0.009 A 
ENDBRANCH   6  28
TORSDOF 6
ENDMDL
MODEL 4
REMARK VINA RESULT:      -8.9      4.787      7.872
REMARK  6 active torsions:
REMARK  status: ('A' for Active; 'I' for Inactive)
REMARK    1  A    between atoms: O_2  and  C_3 
REMARK    2  A    between atoms: C_6  and  C_7 
REMARK    3  A    between atoms: C_7  and  N_8 
REMARK       I    between atoms: N_8  and  C_9 
REMARK    4  A    between atoms: C_9  and  C_10 
REMARK    5  A    between atoms: C_13  and  C_14 
REMARK    6  A    between atoms: C_19  and  C_20 
ROOT
HETATM    1  C   UNL     1      40.328 -14.157   2.399  1.00  0.00     0.096 A 
HETATM    2  C   UNL     1      41.239 -14.891   3.139  1.00  0.00     0.138 A 
HETATM    3  N   UNL     1      41.175 -14.375   4.413  1.00  0.00    -0.240 N 
HETATM    4  C   UNL     1      41.927 -14.884   5.546  1.00  0.00     0.221 C 
HETATM    5  C   UNL     1      42.338 -16.339   5.279  1.00  0.00     0.066 C 
HETATM    6  C   UNL     1      42.958 -16.489   3.881  1.00  0.00     0.118 C 
HETATM    7  N   UNL     1      42.057 -15.942   2.863  1.00  0.00    -0.365 N 
HETATM    8  N   UNL     1      40.236 -13.435   4.581  1.00  0.00    -0.181 NA
HETATM    9  C   UNL     1      39.735 -13.289   3.351  1.00  0.00     0.160 A 
HETATM   10  H   UNL     1      41.886 -16.555   2.067  1.00  0.00     0.161 HD
ENDROOT
BRANCH   1  11
HETATM   11  C   UNL     1      39.981 -14.208   0.990  1.00  0.00     0.257 C 
HETATM   12  N   UNL     1      39.420 -13.063   0.478  1.00  0.00    -0.352 N 
HETATM   13  H   UNL     1      39.207 -12.308   1.113  1.00  0.00     0.163 HD
HETATM   14  O   UNL     1      40.154 -15.223   0.325  1.00  0.00    -0.267 OA
BRANCH  12  15
HETATM   15  C   UNL     1      39.028 -12.951  -0.906  1.00  0.00     0.161 C 
BRANCH  15  16
HETATM   16  C   UNL     1      39.663 -11.759  -1.575  1.00  0.00    -0.040 A 
HETATM   17  C   UNL     1      40.719 -11.076  -0.952  1.00  0.00     0.011 A 
HETATM   18  C   UNL     1      41.333  -9.982  -1.570  1.00  0.00     0.037 A 
HETATM   19  C   UNL     1      40.903  -9.554  -2.825  1.00  0.00     0.068 A 
HETATM   20  C   UNL     1      39.841 -10.219  -3.443  1.00  0.00     0.037 A 
HETATM   21  C   UNL     1      39.222 -11.311  -2.825  1.00  0.00     0.011 A 
BRANCH  19  22
HETATM   22  O   UNL     1      41.425  -8.512  -3.541  1.00  0.00    -0.356 OA
HETATM   23  C   UNL     1      42.383  -7.698  -2.875  1.00  0.00     0.210 C 
ENDBRANCH  19  22
ENDBRANCH  15  16
ENDBRANCH  12  15
ENDBRANCH   1  11
BRANCH   4  24
HETATM   24  C   UNL     1      43.109 -13.981   5.823  1.00  0.00     0.409 C 
HETATM   25  F   UNL     1      43.506 -13.285   4.738  1.00  0.00    -0.169 F 
HETATM   26  F   UNL     1      42.772 -13.063   6.768  1.00  0.00    -0.169 F 
HETATM   27  F   UNL     1      44.183 -14.644   6.303  1.00  0.00    -0.169 F 
ENDBRANCH   4  24
BRANCH   6  28
HETATM   28  C   UNL     1      43.296 -17.938   3.588  1.00  0.00    -0.035 A 
HETATM   29  C   UNL     1      43.047 -18.518   2.333  1.00  0.00     0.009 A 
HETATM   30  C   UNL     1      43.348 -19.862   2.097  1.00  0.00     0.001 A 
HETATM   31  C   UNL     1      43.891 -20.645   3.114  1.00  0.00     0.000 A 
HETATM   32  C   UNL     1      44.133 -20.088   4.366  1.00  0.00     0.001 A 
HETATM   33  C   UNL     1      43.839 -18.744   4.603  1.00  0.00     0.009 A 
ENDBRANCH   6  28
TORSDOF 6
ENDMDL
MODEL 5
REMARK VINA RESULT:      -8.6      2.509      4.032
REMARK  6 active torsions:
REMARK  status: ('A' for Active; 'I' for Inactive)
REMARK    1  A    between atoms: O_2  and  C_3 
REMARK    2  A    between atoms: C_6  and  C_7 
REMARK    3  A    between atoms: C_7  and  N_8 
REMARK       I    between atoms: N_8  and  C_9 
REMARK    4  A    between atoms: C_9  and  C_10 
REMARK    5  A    between atoms: C_13  and  C_14 
REMARK    6  A    between atoms: C_19  and  C_20 
ROOT
HETATM    1  C   UNL     1      43.442 -13.552   6.467  1.00  0.00     0.096 A 
HETATM    2  C   UNL     1      43.038 -14.384   5.436  1.00  0.00     0.138 A 
HETATM    3  N   UNL     1      42.837 -15.615   6.017  1.00  0.00    -0.240 N 
HETATM    4  C   UNL     1      42.349 -16.787   5.314  1.00  0.00     0.221 C 
HETATM    5  C   UNL     1      41.591 -16.352   4.051  1.00  0.00     0.066 C 
HETATM    6  C   UNL     1      42.401 -15.320   3.251  1.00  0.00     0.118 C 
HETATM    7  N   UNL     1      42.791 -14.199   4.112  1.00  0.00    -0.365 N 
HETATM    8  N   UNL     1      42.986 -15.627   7.349  1.00  0.00    -0.181 NA
HETATM    9  C   UNL     1      43.373 -14.378   7.619  1.00  0.00     0.160 A 
HETATM   10  H   UNL     1      42.593 -13.276   3.729  1.00  0.00     0.161 HD
ENDROOT
BRANCH   1  11
HETATM   11  C   UNL     1      43.838 -12.155   6.467  1.00  0.00     0.257 C 
HETATM   12  N   UNL     1      44.894 -11.841   7.288  1.00  0.00    -0.352 N 
HETATM   13  H   UNL     1      45.262 -12.561   7.892  1.00  0.00     0.163 HD
HETATM   14  O   UNL     1      43.240 -11.320   5.798  1.00  0.00    -0.267 OA
BRANCH  12  15
HETATM   15  C   UNL     1      45.412 -10.499   7.394  1.00  0.00     0.161 C 
BRANCH  15  16
HETATM   16  C   UNL     1      44.822  -9.760   8.568  1.00  0.00    -0.040 A 
HETATM   17  C   UNL     1      44.122  -8.560   8.372  1.00  0.00     0.011 A 
HETATM   18  C   UNL     1      43.550  -7.875   9.449  1.00  0.00     0.037 A 
HETATM   19  C   UNL     1      43.665  -8.382  10.742  1.00  0.00     0.068 A 
HETATM   20  C   UNL     1      44.375  -9.567  10.946  1.00  0.00     0.037 A 
HETATM   21  C   UNL     1      44.952 -10.252   9.872  1.00  0.00     0.011 A 
BRANCH  19  22
HETATM   22  O   UNL     1      43.142  -7.820  11.874  1.00  0.00    -0.356 OA
HETATM   23  C   UNL     1      42.306  -8.652  12.670  1.00  0.00     0.210 C 
ENDBRANCH  19  22
ENDBRANCH  15  16
ENDBRANCH  12  15
ENDBRANCH   1  11
BRANCH   4  24
HETATM   24  C   UNL     1      43.502 -17.721   5.014  1.00  0.00     0.409 C 
HETATM   25  F   UNL     1      44.699 -17.100   5.027  1.00  0.00    -0.169 F 
HETATM   26  F   UNL     1      43.561 -18.693   5.963  1.00  0.00    -0.169 F 
HETATM   27  F   UNL     1      43.378 -18.354   3.828  1.00  0.00    -0.169 F 
ENDBRANCH   4  24
BRANCH   6  28
HETATM   28  C   UNL     1      41.622 -14.834   2.043  1.00  0.00    -0.035 A 
HETATM   29  C   UNL     1      41.835 -13.561   1.487  1.00  0.00     0.009 A 
HETATM   30  C   UNL     1      41.087 -13.131   0.388  1.00  0.00     0.001 A 
HETATM   31  C   UNL     1      40.111 -13.960  -0.161  1.00  0.00     0.000 A 
HETATM   32  C   UNL     1      39.880 -15.219   0.387  1.00  0.00     0.001 A 
HETATM   33  C   UNL     1      40.630 -15.654   1.481  1.00  0.00     0.009 A 
ENDBRANCH   6  28
TORSDOF 6
ENDMDL
MODEL 6
REMARK VINA RESULT:      -8.2      3.907      9.606
REMARK  6 active torsions:
REMARK  status: ('A' for Active; 'I' for Inactive)
REMARK    1  A    between atoms: O_2  and  C_3 
REMARK    2  A    between atoms: C_6  and  C_7 
REMARK    3  A    between atoms: C_7  and  N_8 
REMARK       I    between atoms: N_8  and  C_9 
REMARK    4  A    between atoms: C_9  and  C_10 
REMARK    5  A    between atoms: C_13  and  C_14 
REMARK    6  A    between atoms: C_19  and  C_20 
ROOT
HETATM    1  C   UNL     1      43.393 -11.711   6.417  1.00  0.00     0.096 A 
HETATM    2  C   UNL     1      43.080 -10.729   7.341  1.00  0.00     0.138 A 
HETATM    3  N   UNL     1      44.274 -10.393   7.936  1.00  0.00    -0.240 N 
HETATM    4  C   UNL     1      44.431  -9.354   8.937  1.00  0.00     0.221 C 
HETATM    5  C   UNL     1      43.269  -8.356   8.830  1.00  0.00     0.066 C 
HETATM    6  C   UNL     1      41.920  -9.087   8.761  1.00  0.00     0.118 C 
HETATM    7  N   UNL     1      41.934 -10.083   7.685  1.00  0.00    -0.365 N 
HETATM    8  N   UNL     1      45.344 -11.007   7.413  1.00  0.00    -0.181 NA
HETATM    9  C   UNL     1      44.805 -11.823   6.502  1.00  0.00     0.160 A 
HETATM   10  H   UNL     1      41.133 -10.046   7.057  1.00  0.00     0.161 HD
ENDROOT
BRANCH   1  11
HETATM   11  C   UNL     1      42.551 -12.480   5.519  1.00  0.00     0.257 C 
HETATM   12  N   UNL     1      43.173 -13.519   4.870  1.00  0.00    -0.352 N 
HETATM   13  H   UNL     1      44.170 -13.627   4.984  1.00  0.00     0.163 HD
HETATM   14  O   UNL     1      41.373 -12.190   5.339  1.00  0.00    -0.267 OA
BRANCH  12  15
HETATM   15  C   UNL     1      42.472 -14.383   3.951  1.00  0.00     0.161 C 
BRANCH  15  16
HETATM   16  C   UNL     1      42.979 -15.802   4.017  1.00  0.00    -0.040 A 
HETATM   17  C   UNL     1      42.961 -16.615   2.873  1.00  0.00     0.011 A 
HETATM   18  C   UNL     1      43.448 -17.925   2.913  1.00  0.00     0.037 A 
HETATM   19  C   UNL     1      43.965 -18.444   4.099  1.00  0.00     0.068 A 
HETATM   20  C   UNL     1      43.971 -17.645   5.245  1.00  0.00     0.037 A 
HETATM   21  C   UNL     1      43.480 -16.336   5.209  1.00  0.00     0.011 A 
BRANCH  19  22
HETATM   22  O   UNL     1      44.484 -19.698   4.267  1.00  0.00    -0.356 OA
HETATM   23  C   UNL     1      43.949 -20.471   5.335  1.00  0.00     0.210 C 
ENDBRANCH  19  22
ENDBRANCH  15  16
ENDBRANCH  12  15
ENDBRANCH   1  11
BRANCH   4  24
HETATM   24  C   UNL     1      44.544  -9.978  10.311  1.00  0.00     0.409 C 
HETATM   25  F   UNL     1      43.775 -11.077  10.454  1.00  0.00    -0.169 F 
HETATM   26  F   UNL     1      45.826 -10.374  10.529  1.00  0.00    -0.169 F 
HETATM   27  F   UNL     1      44.234  -9.124  11.310  1.00  0.00    -0.169 F 
ENDBRANCH   4  24
BRANCH   6  28
HETATM   28  C   UNL     1      40.777  -8.106   8.580  1.00  0.00    -0.035 A 
HETATM   29  C   UNL     1      40.062  -8.015   7.374  1.00  0.00     0.009 A 
HETATM   30  C   UNL     1      39.028  -7.087   7.228  1.00  0.00     0.001 A 
HETATM   31  C   UNL     1      38.704  -6.231   8.279  1.00  0.00     0.000 A 
HETATM   32  C   UNL     1      39.412  -6.300   9.475  1.00  0.00     0.001 A 
HETATM   33  C   UNL     1      40.441  -7.231   9.627  1.00  0.00     0.009 A 
ENDBRANCH   6  28
TORSDOF 6
ENDMDL
MODEL 7
REMARK VINA RESULT:      -8.1      2.001      4.239
REMARK  6 active torsions:
REMARK  status: ('A' for Active; 'I' for Inactive)
REMARK    1  A    between atoms: O_2  and  C_3 
REMARK    2  A    between atoms: C_6  and  C_7 
REMARK    3  A    between atoms: C_7  and  N_8 
REMARK       I    between atoms: N_8  and  C_9 
REMARK    4  A    between atoms: C_9  and  C_10 
REMARK    5  A    between atoms: C_13  and  C_14 
REMARK    6  A    between atoms: C_19  and  C_20 
ROOT
HETATM    1  C   UNL     1      43.621 -13.133   5.836  1.00  0.00     0.096 A 
HETATM    2  C   UNL     1      42.774 -13.627   4.858  1.00  0.00     0.138 A 
HETATM    3  N   UNL     1      42.587 -14.953   5.172  1.00  0.00    -0.240 N 
HETATM    4  C   UNL     1      41.718 -15.856   4.440  1.00  0.00     0.221 C 
HETATM    5  C   UNL     1      40.663 -15.047   3.672  1.00  0.00     0.066 C 
HETATM    6  C   UNL     1      41.313 -13.892   2.895  1.00  0.00     0.118 C 
HETATM    7  N   UNL     1      42.136 -13.074   3.791  1.00  0.00    -0.365 N 
HETATM    8  N   UNL     1      43.163 -15.336   6.319  1.00  0.00    -0.181 NA
HETATM    9  C   UNL     1      43.808 -14.234   6.712  1.00  0.00     0.160 A 
HETATM   10  H   UNL     1      41.970 -12.071   3.730  1.00  0.00     0.161 HD
ENDROOT
BRANCH   1  11
HETATM   11  C   UNL     1      44.207 -11.818   6.017  1.00  0.00     0.257 C 
HETATM   12  N   UNL     1      45.008 -11.675   7.124  1.00  0.00    -0.352 N 
HETATM   13  H   UNL     1      45.067 -12.444   7.775  1.00  0.00     0.163 HD
HETATM   14  O   UNL     1      43.969 -10.898   5.241  1.00  0.00    -0.267 OA
BRANCH  12  15
HETATM   15  C   UNL     1      45.671 -10.433   7.438  1.00  0.00     0.161 C 
BRANCH  15  16
HETATM   16  C   UNL     1      44.988  -9.702   8.567  1.00  0.00    -0.040 A 
HETATM   17  C   UNL     1      44.281  -8.516   8.318  1.00  0.00     0.011 A 
HETATM   18  C   UNL     1      43.624  -7.839   9.350  1.00  0.00     0.037 A 
HETATM   19  C   UNL     1      43.661  -8.339  10.650  1.00  0.00     0.068 A 
HETATM   20  C   UNL     1      44.378  -9.511  10.908  1.00  0.00     0.037 A 
HETATM   21  C   UNL     1      45.039 -10.187   9.878  1.00  0.00     0.011 A 
BRANCH  19  22
HETATM   22  O   UNL     1      43.051  -7.785  11.742  1.00  0.00    -0.356 OA
HETATM   23  C   UNL     1      42.802  -8.652  12.842  1.00  0.00     0.210 C 
ENDBRANCH  19  22
ENDBRANCH  15  16
ENDBRANCH  12  15
ENDBRANCH   1  11
BRANCH   4  24
HETATM   24  C   UNL     1      42.545 -16.747   3.540  1.00  0.00     0.409 C 
HETATM   25  F   UNL     1      43.052 -17.820   4.183  1.00  0.00    -0.169 F 
HETATM   26  F   UNL     1      41.767 -17.231   2.535  1.00  0.00    -0.169 F 
HETATM   27  F   UNL     1      43.572 -16.098   2.948  1.00  0.00    -0.169 F 
ENDBRANCH   4  24
BRANCH   6  28
HETATM   28  C   UNL     1      40.266 -13.047   2.195  1.00  0.00    -0.035 A 
HETATM   29  C   UNL     1      39.352 -12.256   2.911  1.00  0.00     0.009 A 
HETATM   30  C   UNL     1      38.383 -11.505   2.242  1.00  0.00     0.001 A 
HETATM   31  C   UNL     1      38.307 -11.544   0.851  1.00  0.00     0.000 A 
HETATM   32  C   UNL     1      39.197 -12.332   0.128  1.00  0.00     0.001 A 
HETATM   33  C   UNL     1      40.170 -13.079   0.794  1.00  0.00     0.009 A 
ENDBRANCH   6  28
TORSDOF 6
ENDMDL
MODEL 8
REMARK VINA RESULT:      -8.1      4.046      8.079
REMARK  6 active torsions:
REMARK  status: ('A' for Active; 'I' for Inactive)
REMARK    1  A    between atoms: O_2  and  C_3 
REMARK    2  A    between atoms: C_6  and  C_7 
REMARK    3  A    between atoms: C_7  and  N_8 
REMARK       I    between atoms: N_8  and  C_9 
REMARK    4  A    between atoms: C_9  and  C_10 
REMARK    5  A    between atoms: C_13  and  C_14 
REMARK    6  A    between atoms: C_19  and  C_20 
ROOT
HETATM    1  C   UNL     1      41.402 -10.293   3.418  1.00  0.00     0.096 A 
HETATM    2  C   UNL     1      42.084 -11.401   3.892  1.00  0.00     0.138 A 
HETATM    3  N   UNL     1      42.226 -11.193   5.244  1.00  0.00    -0.240 N 
HETATM    4  C   UNL     1      42.838 -12.136   6.162  1.00  0.00     0.221 C 
HETATM    5  C   UNL     1      42.790 -13.547   5.558  1.00  0.00     0.066 C 
HETATM    6  C   UNL     1      43.282 -13.541   4.103  1.00  0.00     0.118 C 
HETATM    7  N   UNL     1      42.543 -12.546   3.319  1.00  0.00    -0.365 N 
HETATM    8  N   UNL     1      41.614 -10.092   5.700  1.00  0.00    -0.181 NA
HETATM    9  C   UNL     1      41.129  -9.535   4.587  1.00  0.00     0.160 A 
HETATM   10  H   UNL     1      42.167 -12.889   2.436  1.00  0.00     0.161 HD
ENDROOT
BRANCH   1  11
HETATM   11  C   UNL     1      40.999  -9.922   2.074  1.00  0.00     0.257 C 
HETATM   12  N   UNL     1      41.674 -10.555   1.059  1.00  0.00    -0.352 N 
HETATM   13  H   UNL     1      42.448 -11.156   1.300  1.00  0.00     0.163 HD
HETATM   14  O   UNL     1      40.134  -9.076   1.875  1.00  0.00    -0.267 OA
BRANCH  12  15
HETATM   15  C   UNL     1      41.385 -10.303  -0.332  1.00  0.00     0.161 C 
BRANCH  15  16
HETATM   16  C   UNL     1      40.767 -11.504  -1.004  1.00  0.00    -0.040 A 
HETATM   17  C   UNL     1      40.264 -11.405  -2.310  1.00  0.00     0.011 A 
HETATM   18  C   UNL     1      39.709 -12.515  -2.954  1.00  0.00     0.037 A 
HETATM   19  C   UNL     1      39.651 -13.745  -2.302  1.00  0.00     0.068 A 
HETATM   20  C   UNL     1      40.135 -13.847  -0.996  1.00  0.00     0.037 A 
HETATM   21  C   UNL     1      40.687 -12.737  -0.348  1.00  0.00     0.011 A 
BRANCH  19  22
HETATM   22  O   UNL     1      39.149 -14.907  -2.823  1.00  0.00    -0.356 OA
HETATM   23  C   UNL     1      38.112 -14.777  -3.788  1.00  0.00     0.210 C 
ENDBRANCH  19  22
ENDBRANCH  15  16
ENDBRANCH  12  15
ENDBRANCH   1  11
BRANCH   4  24
HETATM   24  C   UNL     1      44.244 -11.687   6.495  1.00  0.00     0.409 C 
HETATM   25  F   UNL     1      44.301 -10.904   7.593  1.00  0.00    -0.169 F 
HETATM   26  F   UNL     1      45.021 -12.772   6.756  1.00  0.00    -0.169 F 
HETATM   27  F   UNL     1      44.844 -11.023   5.483  1.00  0.00    -0.169 F 
ENDBRANCH   4  24
BRANCH   6  28
HETATM   28  C   UNL     1      43.165 -14.920   3.482  1.00  0.00    -0.035 A 
HETATM   29  C   UNL     1      43.138 -16.086   4.265  1.00  0.00     0.009 A 
HETATM   30  C   UNL     1      43.052 -17.344   3.665  1.00  0.00     0.001 A 
HETATM   31  C   UNL     1      43.003 -17.455   2.276  1.00  0.00     0.000 A 
HETATM   32  C   UNL     1      43.042 -16.309   1.487  1.00  0.00     0.001 A 
HETATM   33  C   UNL     1      43.122 -15.050   2.083  1.00  0.00     0.009 A 
ENDBRANCH   6  28
TORSDOF 6
ENDMDL
MODEL 9
REMARK VINA RESULT:      -8.1     17.674     20.357
REMARK  6 active torsions:
REMARK  status: ('A' for Active; 'I' for Inactive)
REMARK    1  A    between atoms: O_2  and  C_3 
REMARK    2  A    between atoms: C_6  and  C_7 
REMARK    3  A    between atoms: C_7  and  N_8 
REMARK       I    between atoms: N_8  and  C_9 
REMARK    4  A    between atoms: C_9  and  C_10 
REMARK    5  A    between atoms: C_13  and  C_14 
REMARK    6  A    between atoms: C_19  and  C_20 
ROOT
HETATM    1  C   UNL     1      46.864 -29.733   1.802  1.00  0.00     0.096 A 
HETATM    2  C   UNL     1      48.172 -30.185   1.774  1.00  0.00     0.138 A 
HETATM    3  N   UNL     1      48.374 -30.796   2.990  1.00  0.00    -0.240 N 
HETATM    4  C   UNL     1      49.600 -31.469   3.379  1.00  0.00     0.221 C 
HETATM    5  C   UNL     1      50.383 -31.880   2.123  1.00  0.00     0.066 C 
HETATM    6  C   UNL     1      50.490 -30.710   1.133  1.00  0.00     0.118 C 
HETATM    7  N   UNL     1      49.160 -30.168   0.839  1.00  0.00    -0.365 N 
HETATM    8  N   UNL     1      47.282 -30.861   3.763  1.00  0.00    -0.181 NA
HETATM    9  C   UNL     1      46.369 -30.197   3.048  1.00  0.00     0.160 A 
HETATM   10  H   UNL     1      48.955 -30.049  -0.152  1.00  0.00     0.161 HD
ENDROOT
BRANCH   1  11
HETATM   11  C   UNL     1      46.093 -28.980   0.829  1.00  0.00     0.257 C 
HETATM   12  N   UNL     1      44.927 -29.575   0.411  1.00  0.00    -0.352 N 
HETATM   13  H   UNL     1      44.728 -30.512   0.727  1.00  0.00     0.163 HD
HETATM   14  O   UNL     1      46.485 -27.901   0.398  1.00  0.00    -0.267 OA
BRANCH  12  15
HETATM   15  C   UNL     1      44.045 -28.951  -0.545  1.00  0.00     0.161 C 
BRANCH  15  16
HETATM   16  C   UNL     1      44.324 -29.416  -1.953  1.00  0.00    -0.040 A 
HETATM   17  C   UNL     1      44.730 -28.500  -2.935  1.00  0.00     0.011 A 
HETATM   18  C   UNL     1      45.013 -28.920  -4.238  1.00  0.00     0.037 A 
HETATM   19  C   UNL     1      44.897 -30.265  -4.581  1.00  0.00     0.068 A 
HETATM   20  C   UNL     1      44.477 -31.180  -3.612  1.00  0.00     0.037 A 
HETATM   21  C   UNL     1      44.189 -30.762  -2.309  1.00  0.00     0.011 A 
BRANCH  19  22
HETATM   22  O   UNL     1      45.158 -30.806  -5.810  1.00  0.00    -0.356 OA
HETATM   23  C   UNL     1      44.032 -31.095  -6.631  1.00  0.00     0.210 C 
ENDBRANCH  19  22
ENDBRANCH  15  16
ENDBRANCH  12  15
ENDBRANCH   1  11
BRANCH   4  24
HETATM   24  C   UNL     1      50.400 -30.580   4.305  1.00  0.00     0.409 C 
HETATM   25  F   UNL     1      49.874 -29.344   4.434  1.00  0.00    -0.169 F 
HETATM   26  F   UNL     1      50.423 -31.121   5.552  1.00  0.00    -0.169 F 
HETATM   27  F   UNL     1      51.689 -30.441   3.926  1.00  0.00    -0.169 F 
ENDBRANCH   4  24
BRANCH   6  28
HETATM   28  C   UNL     1      51.198 -31.136  -0.139  1.00  0.00    -0.035 A 
HETATM   29  C   UNL     1      52.119 -32.197  -0.155  1.00  0.00     0.009 A 
HETATM   30  C   UNL     1      52.773 -32.553  -1.337  1.00  0.00     0.001 A 
HETATM   31  C   UNL     1      52.525 -31.848  -2.513  1.00  0.00     0.000 A 
HETATM   32  C   UNL     1      51.625 -30.786  -2.510  1.00  0.00     0.001 A 
HETATM   33  C   UNL     1      50.965 -30.432  -1.332  1.00  0.00     0.009 A 
ENDBRANCH   6  28
TORSDOF 6
ENDMDL
MODEL 10
REMARK VINA RESULT:      -8.0      2.996      4.871
REMARK  6 active torsions:
REMARK  status: ('A' for Active; 'I' for Inactive)
REMARK    1  A    between atoms: O_2  and  C_3 
REMARK    2  A    between atoms: C_6  and  C_7 
REMARK    3  A    between atoms: C_7  and  N_8 
REMARK       I    between atoms: N_8  and  C_9 
REMARK    4  A    between atoms: C_9  and  C_10 
REMARK    5  A    between atoms: C_13  and  C_14 
REMARK    6  A    between atoms: C_19  and  C_20 
ROOT
HETATM    1  C   UNL     1      40.333 -13.635   5.336  1.00  0.00     0.096 A 
HETATM    2  C   UNL     1      40.556 -14.114   4.056  1.00  0.00     0.138 A 
HETATM    3  N   UNL     1      41.011 -15.402   4.222  1.00  0.00    -0.240 N 
HETATM    4  C   UNL     1      41.321 -16.311   3.134  1.00  0.00     0.221 C 
HETATM    5  C   UNL     1      40.574 -15.872   1.867  1.00  0.00     0.066 C 
HETATM    6  C   UNL     1      40.754 -14.366   1.616  1.00  0.00     0.118 C 
HETATM    7  N   UNL     1      40.377 -13.602   2.809  1.00  0.00    -0.365 N 
HETATM    8  N   UNL     1      41.014 -15.827   5.493  1.00  0.00    -0.181 NA
HETATM    9  C   UNL     1      40.620 -14.746   6.171  1.00  0.00     0.160 A 
HETATM   10  H   UNL     1      39.741 -12.825   2.637  1.00  0.00     0.161 HD
ENDROOT
BRANCH   1  11
HETATM   11  C   UNL     1      39.891 -12.334   5.805  1.00  0.00     0.257 C 
HETATM   12  N   UNL     1      40.780 -11.304   5.614  1.00  0.00    -0.352 N 
HETATM   13  H   UNL     1      41.697 -11.523   5.251  1.00  0.00     0.163 HD
HETATM   14  O   UNL     1      38.808 -12.187   6.360  1.00  0.00    -0.267 OA
BRANCH  12  15
HETATM   15  C   UNL     1      40.487  -9.950   6.017  1.00  0.00     0.161 C 
BRANCH  15  16
HETATM   16  C   UNL     1      40.930  -9.677   7.432  1.00  0.00    -0.040 A 
HETATM   17  C   UNL     1      39.982  -9.429   8.436  1.00  0.00     0.011 A 
HETATM   18  C   UNL     1      40.377  -9.196   9.758  1.00  0.00     0.037 A 
HETATM   19  C   UNL     1      41.729  -9.210  10.097  1.00  0.00     0.068 A 
HETATM   20  C   UNL     1      42.678  -9.440   9.099  1.00  0.00     0.037 A 
HETATM   21  C   UNL     1      42.286  -9.669   7.776  1.00  0.00     0.011 A 
BRANCH  19  22
HETATM   22  O   UNL     1      42.244  -9.013  11.349  1.00  0.00    -0.356 OA
HETATM   23  C   UNL     1      43.108 -10.027  11.850  1.00  0.00     0.210 C 
ENDBRANCH  19  22
ENDBRANCH  15  16
ENDBRANCH  12  15
ENDBRANCH   1  11
BRANCH   4  24
HETATM   24  C   UNL     1      42.819 -16.384   2.938  1.00  0.00     0.409 C 
HETATM   25  F   UNL     1      43.457 -15.263   3.335  1.00  0.00    -0.169 F 
HETATM   26  F   UNL     1      43.329 -17.402   3.681  1.00  0.00    -0.169 F 
HETATM   27  F   UNL     1      43.176 -16.631   1.659  1.00  0.00    -0.169 F 
ENDBRANCH   4  24
BRANCH   6  28
HETATM   28  C   UNL     1      39.957 -13.916   0.406  1.00  0.00    -0.035 A 
HETATM   29  C   UNL     1      39.369 -12.642   0.338  1.00  0.00     0.009 A 
HETATM   30  C   UNL     1      38.621 -12.262  -0.779  1.00  0.00     0.001 A 
HETATM   31  C   UNL     1      38.441 -13.153  -1.836  1.00  0.00     0.000 A 
HETATM   32  C   UNL     1      39.007 -14.423  -1.777  1.00  0.00     0.001 A 
HETATM   33  C   UNL     1      39.760 -14.804  -0.665  1.00  0.00     0.009 A 
ENDBRANCH   6  28
TORSDOF 6
ENDMDL
