MODEL 1
REMARK VINA RESULT:      -8.6      0.000      0.000
REMARK  5 active torsions:
REMARK  status: ('A' for Active; 'I' for Inactive)
REMARK    1  A    between atoms: C_2  and  O_3 
REMARK    2  A    between atoms: O_3  and  C_4 
REMARK    3  A    between atoms: C_5  and  C_6 
REMARK    4  A    between atoms: C_7  and  C_8 
REMARK       I    between atoms: C_8  and  N_9 
REMARK    5  A    between atoms: N_9  and  C_10 
ROOT
HETATM    1  C   UNL     1      42.957 -13.925   5.306  1.00  0.00     0.042 C 
HETATM    2  C   UNL     1      41.816 -14.637   5.371  1.00  0.00     0.113 C 
HETATM    3  C   UNL     1      40.686 -14.217   6.117  1.00  0.00     0.105 C 
HETATM    4  N   UNL     1      39.729 -13.936   6.712  1.00  0.00    -0.191 NA
ENDROOT
BRANCH   2   5
HETATM    5  C   UNL     1      41.818 -15.964   4.661  1.00  0.00     0.266 C 
HETATM    6  N   UNL     1      43.043 -16.605   4.596  1.00  0.00    -0.321 N 
HETATM    7  H   UNL     1      43.743 -16.352   5.283  1.00  0.00     0.169 HD
HETATM    8  O   UNL     1      40.767 -16.424   4.223  1.00  0.00    -0.267 OA
BRANCH   6   9
HETATM    9  C   UNL     1      43.302 -17.805   3.881  1.00  0.00     0.047 A 
HETATM   10  C   UNL     1      43.305 -17.879   2.469  1.00  0.00    -0.035 A 
HETATM   11  C   UNL     1      43.161 -16.693   1.551  1.00  0.00     0.050 C 
HETATM   12  C   UNL     1      43.508 -19.125   1.846  1.00  0.00     0.009 A 
HETATM   13  C   UNL     1      43.776 -20.267   2.592  1.00  0.00     0.001 A 
HETATM   14  C   UNL     1      43.855 -20.180   3.976  1.00  0.00     0.009 A 
HETATM   15  C   UNL     1      43.629 -18.960   4.635  1.00  0.00    -0.035 A 
HETATM   16  C   UNL     1      43.704 -18.947   6.140  1.00  0.00     0.050 C 
ENDBRANCH   6   9
ENDBRANCH   2   5
BRANCH   1  17
HETATM   17  C   UNL     1      43.228 -12.640   5.966  1.00  0.00     0.002 A 
HETATM   18  C   UNL     1      42.701 -11.440   5.432  1.00  0.00     0.079 A 
HETATM   19  C   UNL     1      42.817 -10.224   6.110  1.00  0.00     0.047 A 
HETATM   20  C   UNL     1      43.516 -10.216   7.301  1.00  0.00    -0.020 A 
HETATM   21  C   UNL     1      44.072 -11.380   7.808  1.00  0.00     0.076 A 
HETATM   22  C   UNL     1      43.724  -9.112   8.265  1.00  0.00     0.073 C 
HETATM   23  C   UNL     1      43.937 -12.601   7.173  1.00  0.00     0.051 A 
HETATM   24  O   UNL     1      44.709 -11.204   9.009  1.00  0.00    -0.345 OA
HETATM   25  C   UNL     1      44.803  -9.761   9.145  1.00  0.00     0.129 C 
HETATM   26  C   UNL     1      44.657  -9.392  10.612  1.00  0.00     0.040 C 
BRANCH  18  27
HETATM   27  O   UNL     1      41.987 -11.446   4.259  1.00  0.00    -0.351 OA
BRANCH  27  28
HETATM   28  C   UNL     1      40.698 -10.843   4.442  1.00  0.00     0.171 C 
HETATM   29  C   UNL     1      39.669 -11.631   3.651  1.00  0.00     0.034 C 
ENDBRANCH  27  28
ENDBRANCH  18  27
ENDBRANCH   1  17
TORSDOF 5
ENDMDL
MODEL 2
REMARK VINA RESULT:      -8.6      0.224      1.664
REMARK  5 active torsions:
REMARK  status: ('A' for Active; 'I' for Inactive)
REMARK    1  A    between atoms: C_2  and  O_3 
REMARK    2  A    between atoms: O_3  and  C_4 
REMARK    3  A    between atoms: C_5  and  C_6 
REMARK    4  A    between atoms: C_7  and  C_8 
REMARK       I    between atoms: C_8  and  N_9 
REMARK    5  A    between atoms: N_9  and  C_10 
ROOT
HETATM    1  C   UNL     1      43.026 -14.113   5.426  1.00  0.00     0.042 C 
HETATM    2  C   UNL     1      41.861 -14.787   5.461  1.00  0.00     0.113 C 
HETATM    3  C   UNL     1      40.695 -14.282   6.090  1.00  0.00     0.105 C 
HETATM    4  N   UNL     1      39.710 -13.933   6.593  1.00  0.00    -0.191 NA
ENDROOT
BRANCH   2   5
HETATM    5  C   UNL     1      41.871 -16.164   4.852  1.00  0.00     0.266 C 
HETATM    6  N   UNL     1      43.120 -16.736   4.688  1.00  0.00    -0.321 N 
HETATM    7  H   UNL     1      43.876 -16.390   5.267  1.00  0.00     0.169 HD
HETATM    8  O   UNL     1      40.810 -16.717   4.575  1.00  0.00    -0.267 OA
BRANCH   6   9
HETATM    9  C   UNL     1      43.376 -17.971   4.035  1.00  0.00     0.047 A 
HETATM   10  C   UNL     1      43.633 -19.175   4.728  1.00  0.00    -0.035 A 
HETATM   11  C   UNL     1      43.547 -19.335   6.224  1.00  0.00     0.050 C 
HETATM   12  C   UNL     1      43.940 -20.338   3.997  1.00  0.00     0.009 A 
HETATM   13  C   UNL     1      43.925 -20.339   2.607  1.00  0.00     0.001 A 
HETATM   14  C   UNL     1      43.592 -19.176   1.923  1.00  0.00     0.009 A 
HETATM   15  C   UNL     1      43.309 -17.989   2.619  1.00  0.00    -0.035 A 
HETATM   16  C   UNL     1      42.983 -16.760   1.810  1.00  0.00     0.050 C 
ENDBRANCH   6   9
ENDBRANCH   2   5
BRANCH   1  17
HETATM   17  C   UNL     1      43.291 -12.789   6.008  1.00  0.00     0.002 A 
HETATM   18  C   UNL     1      42.796 -11.622   5.378  1.00  0.00     0.079 A 
HETATM   19  C   UNL     1      42.905 -10.365   5.978  1.00  0.00     0.047 A 
HETATM   20  C   UNL     1      43.565 -10.284   7.188  1.00  0.00    -0.020 A 
HETATM   21  C   UNL     1      44.089 -11.418   7.789  1.00  0.00     0.076 A 
HETATM   22  C   UNL     1      43.754  -9.121   8.083  1.00  0.00     0.073 C 
HETATM   23  C   UNL     1      43.961 -12.677   7.233  1.00  0.00     0.051 A 
HETATM   24  O   UNL     1      44.690 -11.168   8.997  1.00  0.00    -0.345 OA
HETATM   25  C   UNL     1      44.796  -9.720   9.040  1.00  0.00     0.129 C 
HETATM   26  C   UNL     1      44.607  -9.252  10.473  1.00  0.00     0.040 C 
BRANCH  18  27
HETATM   27  O   UNL     1      42.121 -11.699   4.186  1.00  0.00    -0.351 OA
BRANCH  27  28
HETATM   28  C   UNL     1      40.894 -10.957   4.243  1.00  0.00     0.171 C 
HETATM   29  C   UNL     1      39.806 -11.749   3.541  1.00  0.00     0.034 C 
ENDBRANCH  27  28
ENDBRANCH  18  27
ENDBRANCH   1  17
TORSDOF 5
ENDMDL
MODEL 3
REMARK VINA RESULT:      -8.5      2.327      8.681
REMARK  5 active torsions:
REMARK  status: ('A' for Active; 'I' for Inactive)
REMARK    1  A    between atoms: C_2  and  O_3 
REMARK    2  A    between atoms: O_3  and  C_4 
REMARK    3  A    between atoms: C_5  and  C_6 
REMARK    4  A    between atoms: C_7  and  C_8 
REMARK       I    between atoms: C_8  and  N_9 
REMARK    5  A    between atoms: N_9  and  C_10 
ROOT
HETATM    1  C   UNL     1      43.504 -12.780   7.330  1.00  0.00     0.042 C 
HETATM    2  C   UNL     1      44.363 -11.748   7.239  1.00  0.00     0.113 C 
HETATM    3  C   UNL     1      45.171 -11.515   6.097  1.00  0.00     0.105 C 
HETATM    4  N   UNL     1      45.865 -11.271   5.199  1.00  0.00    -0.191 NA
ENDROOT
BRANCH   2   5
HETATM    5  C   UNL     1      44.485 -10.874   8.458  1.00  0.00     0.266 C 
HETATM    6  N   UNL     1      43.294 -10.382   8.963  1.00  0.00    -0.321 N 
HETATM    7  H   UNL     1      42.444 -10.882   8.732  1.00  0.00     0.169 HD
HETATM    8  O   UNL     1      45.589 -10.674   8.959  1.00  0.00    -0.267 OA
BRANCH   6   9
HETATM    9  C   UNL     1      43.179  -9.452  10.030  1.00  0.00     0.047 A 
HETATM   10  C   UNL     1      43.286  -9.819  11.391  1.00  0.00    -0.035 A 
HETATM   11  C   UNL     1      43.657 -11.195  11.879  1.00  0.00     0.050 C 
HETATM   12  C   UNL     1      43.094  -8.840  12.384  1.00  0.00     0.009 A 
HETATM   13  C   UNL     1      42.871  -7.510  12.049  1.00  0.00     0.001 A 
HETATM   14  C   UNL     1      42.846  -7.132  10.712  1.00  0.00     0.009 A 
HETATM   15  C   UNL     1      43.005  -8.087   9.693  1.00  0.00    -0.035 A 
HETATM   16  C   UNL     1      42.939  -7.609   8.265  1.00  0.00     0.050 C 
ENDBRANCH   6   9
ENDBRANCH   2   5
BRANCH   1  17
HETATM   17  C   UNL     1      43.256 -13.808   6.309  1.00  0.00     0.002 A 
HETATM   18  C   UNL     1      42.512 -13.493   5.147  1.00  0.00     0.079 A 
HETATM   19  C   UNL     1      42.382 -14.402   4.093  1.00  0.00     0.047 A 
HETATM   20  C   UNL     1      42.957 -15.648   4.244  1.00  0.00    -0.020 A 
HETATM   21  C   UNL     1      43.650 -15.977   5.398  1.00  0.00     0.076 A 
HETATM   22  C   UNL     1      43.054 -16.764   3.277  1.00  0.00     0.073 C 
HETATM   23  C   UNL     1      43.825 -15.082   6.436  1.00  0.00     0.051 A 
HETATM   24  O   UNL     1      44.180 -17.242   5.376  1.00  0.00    -0.345 OA
HETATM   25  C   UNL     1      43.543 -17.866   4.229  1.00  0.00     0.129 C 
HETATM   26  C   UNL     1      44.531 -18.812   3.568  1.00  0.00     0.040 C 
BRANCH  18  27
HETATM   27  O   UNL     1      41.956 -12.249   4.983  1.00  0.00    -0.351 OA
BRANCH  27  28
HETATM   28  C   UNL     1      40.556 -12.348   4.691  1.00  0.00     0.171 C 
HETATM   29  C   UNL     1      39.784 -12.425   5.996  1.00  0.00     0.034 C 
ENDBRANCH  27  28
ENDBRANCH  18  27
ENDBRANCH   1  17
TORSDOF 5
ENDMDL
MODEL 4
REMARK VINA RESULT:      -8.2      1.960      8.086
REMARK  5 active torsions:
REMARK  status: ('A' for Active; 'I' for Inactive)
REMARK    1  A    between atoms: C_2  and  O_3 
REMARK    2  A    between atoms: O_3  and  C_4 
REMARK    3  A    between atoms: C_5  and  C_6 
REMARK    4  A    between atoms: C_7  and  C_8 
REMARK       I    between atoms: C_8  and  N_9 
REMARK    5  A    between atoms: N_9  and  C_10 
ROOT
HETATM    1  C   UNL     1      43.290 -13.607   5.091  1.00  0.00     0.042 C 
HETATM    2  C   UNL     1      42.303 -12.959   5.738  1.00  0.00     0.113 C 
HETATM    3  C   UNL     1      41.057 -13.560   6.048  1.00  0.00     0.105 C 
HETATM    4  N   UNL     1      40.015 -13.989   6.324  1.00  0.00    -0.191 NA
ENDROOT
BRANCH   2   5
HETATM    5  C   UNL     1      42.560 -11.512   6.064  1.00  0.00     0.266 C 
HETATM    6  N   UNL     1      42.968 -11.254   7.361  1.00  0.00    -0.321 N 
HETATM    7  H   UNL     1      43.391 -12.014   7.880  1.00  0.00     0.169 HD
HETATM    8  O   UNL     1      42.441 -10.658   5.189  1.00  0.00    -0.267 OA
BRANCH   6   9
HETATM    9  C   UNL     1      43.156  -9.962   7.919  1.00  0.00     0.047 A 
HETATM   10  C   UNL     1      42.086  -9.102   8.257  1.00  0.00    -0.035 A 
HETATM   11  C   UNL     1      40.630  -9.483   8.190  1.00  0.00     0.050 C 
HETATM   12  C   UNL     1      42.368  -7.812   8.745  1.00  0.00     0.009 A 
HETATM   13  C   UNL     1      43.676  -7.397   8.966  1.00  0.00     0.001 A 
HETATM   14  C   UNL     1      44.726  -8.270   8.712  1.00  0.00     0.009 A 
HETATM   15  C   UNL     1      44.485  -9.554   8.196  1.00  0.00    -0.035 A 
HETATM   16  C   UNL     1      45.675 -10.437   7.919  1.00  0.00     0.050 C 
ENDBRANCH   6   9
ENDBRANCH   2   5
BRANCH   1  17
HETATM   17  C   UNL     1      43.257 -14.995   4.606  1.00  0.00     0.002 A 
HETATM   18  C   UNL     1      43.023 -15.266   3.237  1.00  0.00     0.079 A 
HETATM   19  C   UNL     1      43.129 -16.559   2.719  1.00  0.00     0.047 A 
HETATM   20  C   UNL     1      43.416 -17.584   3.600  1.00  0.00    -0.020 A 
HETATM   21  C   UNL     1      43.604 -17.330   4.950  1.00  0.00     0.076 A 
HETATM   22  C   UNL     1      43.670 -19.016   3.329  1.00  0.00     0.073 C 
HETATM   23  C   UNL     1      43.542 -16.054   5.478  1.00  0.00     0.051 A 
HETATM   24  O   UNL     1      43.907 -18.450   5.680  1.00  0.00    -0.345 OA
HETATM   25  C   UNL     1      43.620 -19.546   4.770  1.00  0.00     0.129 C 
HETATM   26  C   UNL     1      44.619 -20.666   5.014  1.00  0.00     0.040 C 
BRANCH  18  27
HETATM   27  O   UNL     1      42.758 -14.249   2.354  1.00  0.00    -0.351 OA
BRANCH  27  28
HETATM   28  C   UNL     1      41.562 -14.517   1.609  1.00  0.00     0.171 C 
HETATM   29  C   UNL     1      40.362 -14.086   2.433  1.00  0.00     0.034 C 
ENDBRANCH  27  28
ENDBRANCH  18  27
ENDBRANCH   1  17
TORSDOF 5
ENDMDL
MODEL 5
REMARK VINA RESULT:      -8.0      3.736      7.787
REMARK  5 active torsions:
REMARK  status: ('A' for Active; 'I' for Inactive)
REMARK    1  A    between atoms: C_2  and  O_3 
REMARK    2  A    between atoms: O_3  and  C_4 
REMARK    3  A    between atoms: C_5  and  C_6 
REMARK    4  A    between atoms: C_7  and  C_8 
REMARK       I    between atoms: C_8  and  N_9 
REMARK    5  A    between atoms: N_9  and  C_10 
ROOT
HETATM    1  C   UNL     1      42.297 -14.580   2.273  1.00  0.00     0.042 C 
HETATM    2  C   UNL     1      41.011 -14.433   1.906  1.00  0.00     0.113 C 
HETATM    3  C   UNL     1      39.972 -15.275   2.378  1.00  0.00     0.105 C 
HETATM    4  N   UNL     1      39.078 -15.931   2.719  1.00  0.00    -0.191 NA
ENDROOT
BRANCH   2   5
HETATM    5  C   UNL     1      40.726 -13.355   0.894  1.00  0.00     0.266 C 
HETATM    6  N   UNL     1      39.465 -13.389   0.324  1.00  0.00    -0.321 N 
HETATM    7  H   UNL     1      38.732 -13.869   0.831  1.00  0.00     0.169 HD
HETATM    8  O   UNL     1      41.575 -12.500   0.657  1.00  0.00    -0.267 OA
BRANCH   6   9
HETATM    9  C   UNL     1      39.021 -12.547  -0.730  1.00  0.00     0.047 A 
HETATM   10  C   UNL     1      39.390 -12.737  -2.081  1.00  0.00    -0.035 A 
HETATM   11  C   UNL     1      40.185 -13.909  -2.593  1.00  0.00     0.050 C 
HETATM   12  C   UNL     1      38.953 -11.813  -3.050  1.00  0.00     0.009 A 
HETATM   13  C   UNL     1      38.110 -10.762  -2.712  1.00  0.00     0.001 A 
HETATM   14  C   UNL     1      37.679 -10.620  -1.398  1.00  0.00     0.009 A 
HETATM   15  C   UNL     1      38.118 -11.505  -0.399  1.00  0.00    -0.035 A 
HETATM   16  C   UNL     1      37.632 -11.274   1.009  1.00  0.00     0.050 C 
ENDBRANCH   6   9
ENDBRANCH   2   5
BRANCH   1  17
HETATM   17  C   UNL     1      42.838 -15.596   3.188  1.00  0.00     0.002 A 
HETATM   18  C   UNL     1      43.010 -15.298   4.561  1.00  0.00     0.079 A 
HETATM   19  C   UNL     1      43.383 -16.281   5.481  1.00  0.00     0.047 A 
HETATM   20  C   UNL     1      43.637 -17.550   5.000  1.00  0.00    -0.020 A 
HETATM   21  C   UNL     1      43.512 -17.837   3.650  1.00  0.00     0.076 A 
HETATM   22  C   UNL     1      43.960 -18.791   5.738  1.00  0.00     0.073 C 
HETATM   23  C   UNL     1      43.108 -16.891   2.727  1.00  0.00     0.051 A 
HETATM   24  O   UNL     1      43.776 -19.147   3.342  1.00  0.00    -0.345 OA
HETATM   25  C   UNL     1      44.381 -19.674   4.554  1.00  0.00     0.129 C 
HETATM   26  C   UNL     1      43.959 -21.123   4.728  1.00  0.00     0.040 C 
BRANCH  18  27
HETATM   27  O   UNL     1      42.738 -14.044   5.048  1.00  0.00    -0.351 OA
BRANCH  27  28
HETATM   28  C   UNL     1      41.606 -14.071   5.929  1.00  0.00     0.171 C 
HETATM   29  C   UNL     1      40.568 -13.083   5.428  1.00  0.00     0.034 C 
ENDBRANCH  27  28
ENDBRANCH  18  27
ENDBRANCH   1  17
TORSDOF 5
ENDMDL
MODEL 6
REMARK VINA RESULT:      -8.0      1.888      8.179
REMARK  5 active torsions:
REMARK  status: ('A' for Active; 'I' for Inactive)
REMARK    1  A    between atoms: C_2  and  O_3 
REMARK    2  A    between atoms: O_3  and  C_4 
REMARK    3  A    between atoms: C_5  and  C_6 
REMARK    4  A    between atoms: C_7  and  C_8 
REMARK       I    between atoms: C_8  and  N_9 
REMARK    5  A    between atoms: N_9  and  C_10 
ROOT
HETATM    1  C   UNL     1      43.247 -13.709   4.518  1.00  0.00     0.042 C 
HETATM    2  C   UNL     1      42.465 -13.058   5.399  1.00  0.00     0.113 C 
HETATM    3  C   UNL     1      41.254 -13.596   5.902  1.00  0.00     0.105 C 
HETATM    4  N   UNL     1      40.250 -13.974   6.346  1.00  0.00    -0.191 NA
ENDROOT
BRANCH   2   5
HETATM    5  C   UNL     1      42.906 -11.670   5.782  1.00  0.00     0.266 C 
HETATM    6  N   UNL     1      43.082 -11.452   7.138  1.00  0.00    -0.321 N 
HETATM    7  H   UNL     1      43.246 -12.259   7.726  1.00  0.00     0.169 HD
HETATM    8  O   UNL     1      43.124 -10.835   4.908  1.00  0.00    -0.267 OA
BRANCH   6   9
HETATM    9  C   UNL     1      43.382 -10.198   7.732  1.00  0.00     0.047 A 
HETATM   10  C   UNL     1      44.698  -9.782   8.040  1.00  0.00    -0.035 A 
HETATM   11  C   UNL     1      45.944 -10.544   7.670  1.00  0.00     0.050 C 
HETATM   12  C   UNL     1      44.895  -8.548   8.689  1.00  0.00     0.009 A 
HETATM   13  C   UNL     1      43.828  -7.703   8.967  1.00  0.00     0.001 A 
HETATM   14  C   UNL     1      42.543  -8.073   8.591  1.00  0.00     0.009 A 
HETATM   15  C   UNL     1      42.303  -9.309   7.969  1.00  0.00    -0.035 A 
HETATM   16  C   UNL     1      40.880  -9.656   7.615  1.00  0.00     0.050 C 
ENDBRANCH   6   9
ENDBRANCH   2   5
BRANCH   1  17
HETATM   17  C   UNL     1      42.999 -15.038   3.940  1.00  0.00     0.002 A 
HETATM   18  C   UNL     1      42.300 -15.163   2.715  1.00  0.00     0.079 A 
HETATM   19  C   UNL     1      42.174 -16.395   2.068  1.00  0.00     0.047 A 
HETATM   20  C   UNL     1      42.707 -17.506   2.690  1.00  0.00    -0.020 A 
HETATM   21  C   UNL     1      43.355 -17.396   3.910  1.00  0.00     0.076 A 
HETATM   22  C   UNL     1      42.799 -18.902   2.208  1.00  0.00     0.073 C 
HETATM   23  C   UNL     1      43.525 -16.183   4.551  1.00  0.00     0.051 A 
HETATM   24  O   UNL     1      43.847 -18.588   4.377  1.00  0.00    -0.345 OA
HETATM   25  C   UNL     1      43.226 -19.581   3.518  1.00  0.00     0.129 C 
HETATM   26  C   UNL     1      44.205 -20.721   3.292  1.00  0.00     0.040 C 
BRANCH  18  27
HETATM   27  O   UNL     1      41.787 -14.058   2.083  1.00  0.00    -0.351 OA
BRANCH  27  28
HETATM   28  C   UNL     1      40.425 -14.280   1.689  1.00  0.00     0.171 C 
HETATM   29  C   UNL     1      39.510 -13.508   2.622  1.00  0.00     0.034 C 
ENDBRANCH  27  28
ENDBRANCH  18  27
ENDBRANCH   1  17
TORSDOF 5
ENDMDL
MODEL 7
REMARK VINA RESULT:      -7.7      2.125      3.762
REMARK  5 active torsions:
REMARK  status: ('A' for Active; 'I' for Inactive)
REMARK    1  A    between atoms: C_2  and  O_3 
REMARK    2  A    between atoms: O_3  and  C_4 
REMARK    3  A    between atoms: C_5  and  C_6 
REMARK    4  A    between atoms: C_7  and  C_8 
REMARK       I    between atoms: C_8  and  N_9 
REMARK    5  A    between atoms: N_9  and  C_10 
ROOT
HETATM    1  C   UNL     1      42.727 -11.867   5.440  1.00  0.00     0.042 C 
HETATM    2  C   UNL     1      41.967 -12.962   5.255  1.00  0.00     0.113 C 
HETATM    3  C   UNL     1      40.710 -13.144   5.885  1.00  0.00     0.105 C 
HETATM    4  N   UNL     1      39.680 -13.360   6.373  1.00  0.00    -0.191 NA
ENDROOT
BRANCH   2   5
HETATM    5  C   UNL     1      42.555 -14.041   4.386  1.00  0.00     0.266 C 
HETATM    6  N   UNL     1      42.152 -15.332   4.681  1.00  0.00    -0.321 N 
HETATM    7  H   UNL     1      41.280 -15.449   5.184  1.00  0.00     0.169 HD
HETATM    8  O   UNL     1      43.304 -13.741   3.460  1.00  0.00    -0.267 OA
BRANCH   6   9
HETATM    9  C   UNL     1      42.662 -16.509   4.072  1.00  0.00     0.047 A 
HETATM   10  C   UNL     1      43.709 -17.278   4.628  1.00  0.00    -0.035 A 
HETATM   11  C   UNL     1      44.327 -17.029   5.980  1.00  0.00     0.050 C 
HETATM   12  C   UNL     1      44.194 -18.394   3.921  1.00  0.00     0.009 A 
HETATM   13  C   UNL     1      43.616 -18.792   2.722  1.00  0.00     0.001 A 
HETATM   14  C   UNL     1      42.533 -18.086   2.213  1.00  0.00     0.009 A 
HETATM   15  C   UNL     1      42.040 -16.950   2.876  1.00  0.00    -0.035 A 
HETATM   16  C   UNL     1      40.881 -16.217   2.251  1.00  0.00     0.050 C 
ENDBRANCH   6   9
ENDBRANCH   2   5
BRANCH   1  17
HETATM   17  C   UNL     1      42.410 -10.711   6.291  1.00  0.00     0.002 A 
HETATM   18  C   UNL     1      43.067 -10.539   7.533  1.00  0.00     0.079 A 
HETATM   19  C   UNL     1      42.895  -9.382   8.297  1.00  0.00     0.047 A 
HETATM   20  C   UNL     1      42.015  -8.426   7.829  1.00  0.00    -0.020 A 
HETATM   21  C   UNL     1      41.336  -8.609   6.635  1.00  0.00     0.076 A 
HETATM   22  C   UNL     1      41.703  -7.086   8.372  1.00  0.00     0.073 C 
HETATM   23  C   UNL     1      41.518  -9.727   5.844  1.00  0.00     0.051 A 
HETATM   24  O   UNL     1      40.522  -7.556   6.302  1.00  0.00    -0.345 OA
HETATM   25  C   UNL     1      40.470  -6.760   7.516  1.00  0.00     0.129 C 
HETATM   26  C   UNL     1      40.394  -5.289   7.140  1.00  0.00     0.040 C 
BRANCH  18  27
HETATM   27  O   UNL     1      43.958 -11.476   7.992  1.00  0.00    -0.351 OA
BRANCH  27  28
HETATM   28  C   UNL     1      45.262 -10.901   8.163  1.00  0.00     0.171 C 
HETATM   29  C   UNL     1      46.044 -11.059   6.872  1.00  0.00     0.034 C 
ENDBRANCH  27  28
ENDBRANCH  18  27
ENDBRANCH   1  17
TORSDOF 5
ENDMDL
MODEL 8
REMARK VINA RESULT:      -7.7      3.921      8.242
REMARK  5 active torsions:
REMARK  status: ('A' for Active; 'I' for Inactive)
REMARK    1  A    between atoms: C_2  and  O_3 
REMARK    2  A    between atoms: O_3  and  C_4 
REMARK    3  A    between atoms: C_5  and  C_6 
REMARK    4  A    between atoms: C_7  and  C_8 
REMARK       I    between atoms: C_8  and  N_9 
REMARK    5  A    between atoms: N_9  and  C_10 
ROOT
HETATM    1  C   UNL     1      42.201 -14.092   2.097  1.00  0.00     0.042 C 
HETATM    2  C   UNL     1      41.095 -14.112   1.331  1.00  0.00     0.113 C 
HETATM    3  C   UNL     1      40.307 -15.276   1.142  1.00  0.00     0.105 C 
HETATM    4  N   UNL     1      39.624 -16.192   0.939  1.00  0.00    -0.191 NA
ENDROOT
BRANCH   2   5
HETATM    5  C   UNL     1      40.762 -12.833   0.609  1.00  0.00     0.266 C 
HETATM    6  N   UNL     1      39.672 -12.894  -0.242  1.00  0.00    -0.321 N 
HETATM    7  H   UNL     1      38.988 -13.623  -0.079  1.00  0.00     0.169 HD
HETATM    8  O   UNL     1      41.419 -11.819   0.828  1.00  0.00    -0.267 OA
BRANCH   6   9
HETATM    9  C   UNL     1      39.248 -11.849  -1.104  1.00  0.00     0.047 A 
HETATM   10  C   UNL     1      38.302 -10.868  -0.727  1.00  0.00    -0.035 A 
HETATM   11  C   UNL     1      37.724 -10.728   0.658  1.00  0.00     0.050 C 
HETATM   12  C   UNL     1      37.893  -9.907  -1.670  1.00  0.00     0.009 A 
HETATM   13  C   UNL     1      38.454  -9.862  -2.941  1.00  0.00     0.001 A 
HETATM   14  C   UNL     1      39.443 -10.774  -3.288  1.00  0.00     0.009 A 
HETATM   15  C   UNL     1      39.856 -11.766  -2.382  1.00  0.00    -0.035 A 
HETATM   16  C   UNL     1      40.914 -12.739  -2.838  1.00  0.00     0.050 C 
ENDBRANCH   6   9
ENDBRANCH   2   5
BRANCH   1  17
HETATM   17  C   UNL     1      42.772 -15.223   2.844  1.00  0.00     0.002 A 
HETATM   18  C   UNL     1      43.022 -15.106   4.232  1.00  0.00     0.079 A 
HETATM   19  C   UNL     1      43.426 -16.202   4.998  1.00  0.00     0.047 A 
HETATM   20  C   UNL     1      43.630 -17.402   4.345  1.00  0.00    -0.020 A 
HETATM   21  C   UNL     1      43.428 -17.512   2.978  1.00  0.00     0.076 A 
HETATM   22  C   UNL     1      43.969 -18.731   4.900  1.00  0.00     0.073 C 
HETATM   23  C   UNL     1      42.993 -16.451   2.207  1.00  0.00     0.051 A 
HETATM   24  O   UNL     1      43.651 -18.775   2.492  1.00  0.00    -0.345 OA
HETATM   25  C   UNL     1      44.310 -19.459   3.591  1.00  0.00     0.129 C 
HETATM   26  C   UNL     1      43.871 -20.914   3.603  1.00  0.00     0.040 C 
BRANCH  18  27
HETATM   27  O   UNL     1      42.799 -13.921   4.889  1.00  0.00    -0.351 OA
BRANCH  27  28
HETATM   28  C   UNL     1      41.930 -14.115   6.013  1.00  0.00     0.171 C 
HETATM   29  C   UNL     1      40.498 -13.858   5.579  1.00  0.00     0.034 C 
ENDBRANCH  27  28
ENDBRANCH  18  27
ENDBRANCH   1  17
TORSDOF 5
ENDMDL
MODEL 9
REMARK VINA RESULT:      -7.6      1.672      2.013
REMARK  5 active torsions:
REMARK  status: ('A' for Active; 'I' for Inactive)
REMARK    1  A    between atoms: C_2  and  O_3 
REMARK    2  A    between atoms: O_3  and  C_4 
REMARK    3  A    between atoms: C_5  and  C_6 
REMARK    4  A    between atoms: C_7  and  C_8 
REMARK       I    between atoms: C_8  and  N_9 
REMARK    5  A    between atoms: N_9  and  C_10 
ROOT
HETATM    1  C   UNL     1      42.354 -12.440   5.352  1.00  0.00     0.042 C 
HETATM    2  C   UNL     1      41.297 -13.273   5.386  1.00  0.00     0.113 C 
HETATM    3  C   UNL     1      40.008 -12.867   5.813  1.00  0.00     0.105 C 
HETATM    4  N   UNL     1      38.931 -12.603   6.157  1.00  0.00    -0.191 NA
ENDROOT
BRANCH   2   5
HETATM    5  C   UNL     1      41.566 -14.705   5.009  1.00  0.00     0.266 C 
HETATM    6  N   UNL     1      42.847 -14.975   4.561  1.00  0.00    -0.321 N 
HETATM    7  H   UNL     1      43.584 -14.333   4.828  1.00  0.00     0.169 HD
HETATM    8  O   UNL     1      40.685 -15.550   5.149  1.00  0.00    -0.267 OA
BRANCH   6   9
HETATM    9  C   UNL     1      43.289 -16.224   4.048  1.00  0.00     0.047 A 
HETATM   10  C   UNL     1      43.093 -16.622   2.706  1.00  0.00    -0.035 A 
HETATM   11  C   UNL     1      42.512 -15.742   1.629  1.00  0.00     0.050 C 
HETATM   12  C   UNL     1      43.507 -17.906   2.302  1.00  0.00     0.009 A 
HETATM   13  C   UNL     1      44.168 -18.757   3.179  1.00  0.00     0.001 A 
HETATM   14  C   UNL     1      44.435 -18.336   4.476  1.00  0.00     0.009 A 
HETATM   15  C   UNL     1      44.011 -17.074   4.923  1.00  0.00    -0.035 A 
HETATM   16  C   UNL     1      44.311 -16.695   6.351  1.00  0.00     0.050 C 
ENDBRANCH   6   9
ENDBRANCH   2   5
BRANCH   1  17
HETATM   17  C   UNL     1      42.366 -11.021   5.736  1.00  0.00     0.002 A 
HETATM   18  C   UNL     1      41.871 -10.039   4.846  1.00  0.00     0.079 A 
HETATM   19  C   UNL     1      41.734  -8.703   5.233  1.00  0.00     0.047 A 
HETATM   20  C   UNL     1      42.152  -8.355   6.503  1.00  0.00    -0.020 A 
HETATM   21  C   UNL     1      42.677  -9.305   7.364  1.00  0.00     0.076 A 
HETATM   22  C   UNL     1      42.050  -7.057   7.205  1.00  0.00     0.073 C 
HETATM   23  C   UNL     1      42.787 -10.639   7.016  1.00  0.00     0.051 A 
HETATM   24  O   UNL     1      43.019  -8.800   8.592  1.00  0.00    -0.345 OA
HETATM   25  C   UNL     1      42.960  -7.361   8.405  1.00  0.00     0.129 C 
HETATM   26  C   UNL     1      42.465  -6.715   9.689  1.00  0.00     0.040 C 
BRANCH  18  27
HETATM   27  O   UNL     1      41.435 -10.383   3.591  1.00  0.00    -0.351 OA
BRANCH  27  28
HETATM   28  C   UNL     1      40.246  -9.659   3.246  1.00  0.00     0.171 C 
HETATM   29  C   UNL     1      39.108 -10.645   3.048  1.00  0.00     0.034 C 
ENDBRANCH  27  28
ENDBRANCH  18  27
ENDBRANCH   1  17
TORSDOF 5
ENDMDL
MODEL 10
REMARK VINA RESULT:      -7.5      3.623      6.271
REMARK  5 active torsions:
REMARK  status: ('A' for Active; 'I' for Inactive)
REMARK    1  A    between atoms: C_2  and  O_3 
REMARK    2  A    between atoms: O_3  and  C_4 
REMARK    3  A    between atoms: C_5  and  C_6 
REMARK    4  A    between atoms: C_7  and  C_8 
REMARK       I    between atoms: C_8  and  N_9 
REMARK    5  A    between atoms: N_9  and  C_10 
ROOT
HETATM    1  C   UNL     1      40.445 -14.971   2.115  1.00  0.00     0.042 C 
HETATM    2  C   UNL     1      41.609 -15.123   2.774  1.00  0.00     0.113 C 
HETATM    3  C   UNL     1      42.668 -14.184   2.696  1.00  0.00     0.105 C 
HETATM    4  N   UNL     1      43.575 -13.460   2.671  1.00  0.00    -0.191 NA
ENDROOT
BRANCH   2   5
HETATM    5  C   UNL     1      41.768 -16.398   3.558  1.00  0.00     0.266 C 
HETATM    6  N   UNL     1      43.032 -16.961   3.533  1.00  0.00    -0.321 N 
HETATM    7  H   UNL     1      43.813 -16.355   3.311  1.00  0.00     0.169 HD
HETATM    8  O   UNL     1      40.819 -16.845   4.197  1.00  0.00    -0.267 OA
BRANCH   6   9
HETATM    9  C   UNL     1      43.382 -18.214   4.103  1.00  0.00     0.047 A 
HETATM   10  C   UNL     1      43.547 -19.392   3.340  1.00  0.00    -0.035 A 
HETATM   11  C   UNL     1      43.501 -19.449   1.835  1.00  0.00     0.050 C 
HETATM   12  C   UNL     1      43.831 -20.604   3.998  1.00  0.00     0.009 A 
HETATM   13  C   UNL     1      44.021 -20.647   5.374  1.00  0.00     0.001 A 
HETATM   14  C   UNL     1      43.940 -19.476   6.116  1.00  0.00     0.009 A 
HETATM   15  C   UNL     1      43.629 -18.253   5.498  1.00  0.00    -0.035 A 
HETATM   16  C   UNL     1      43.530 -17.028   6.370  1.00  0.00     0.050 C 
ENDBRANCH   6   9
ENDBRANCH   2   5
BRANCH   1  17
HETATM   17  C   UNL     1      40.075 -13.855   1.232  1.00  0.00     0.002 A 
HETATM   18  C   UNL     1      39.357 -12.749   1.746  1.00  0.00     0.079 A 
HETATM   19  C   UNL     1      39.116 -11.610   0.973  1.00  0.00     0.047 A 
HETATM   20  C   UNL     1      39.555 -11.617  -0.337  1.00  0.00    -0.020 A 
HETATM   21  C   UNL     1      40.221 -12.714  -0.858  1.00  0.00     0.076 A 
HETATM   22  C   UNL     1      39.519 -10.537  -1.348  1.00  0.00     0.073 C 
HETATM   23  C   UNL     1      40.504 -13.836  -0.101  1.00  0.00     0.051 A 
HETATM   24  O   UNL     1      40.611 -12.549  -2.162  1.00  0.00    -0.345 OA
HETATM   25  C   UNL     1      39.896 -11.359  -2.590  1.00  0.00     0.129 C 
HETATM   26  C   UNL     1      40.768 -10.580  -3.561  1.00  0.00     0.040 C 
BRANCH  18  27
HETATM   27  O   UNL     1      38.938 -12.728   3.053  1.00  0.00    -0.351 OA
BRANCH  27  28
HETATM   28  C   UNL     1      39.434 -11.566   3.731  1.00  0.00     0.171 C 
HETATM   29  C   UNL     1      40.487 -11.995   4.737  1.00  0.00     0.034 C 
ENDBRANCH  27  28
ENDBRANCH  18  27
ENDBRANCH   1  17
TORSDOF 5
ENDMDL
