MODEL 1
REMARK VINA RESULT:     -10.8      0.000      0.000
REMARK  4 active torsions:
REMARK  status: ('A' for Active; 'I' for Inactive)
REMARK    1  A    between atoms: C_2  and  C_3 
REMARK    2  A    between atoms: C_11  and  N_12 
REMARK       I    between atoms: N_12  and  C_13 
REMARK    3  A    between atoms: C_13  and  C_14 
REMARK    4  A    between atoms: C_16  and  C_17 
ROOT
HETATM    1  C   UNL     1      44.085 -11.173   6.212  1.00  0.00     0.032 A 
HETATM    2  C   UNL     1      43.435 -10.874   7.420  1.00  0.00     0.029 A 
HETATM    3  C   UNL     1      44.158 -10.581   8.592  1.00  0.00    -0.024 A 
HETATM    4  C   UNL     1      45.561 -10.603   8.511  1.00  0.00     0.012 A 
HETATM    5  C   UNL     1      46.217 -10.898   7.311  1.00  0.00     0.002 A 
HETATM    6  C   UNL     1      45.481 -11.176   6.160  1.00  0.00     0.017 A 
ENDROOT
BRANCH   1   7
HETATM    7  C   UNL     1      43.248 -11.419   5.005  1.00  0.00     0.252 C 
HETATM    8  N   UNL     1      42.633 -12.653   4.921  1.00  0.00    -0.352 N 
HETATM    9  H   UNL     1      42.572 -13.213   5.762  1.00  0.00     0.163 HD
HETATM   10  O   UNL     1      43.123 -10.540   4.159  1.00  0.00    -0.268 OA
BRANCH   8  11
HETATM   11  C   UNL     1      41.744 -12.985   3.814  1.00  0.00     0.084 C 
HETATM   12  C   UNL     1      42.541 -13.442   2.594  1.00  0.00     0.026 C 
HETATM   13  C   UNL     1      43.167 -14.828   2.768  1.00  0.00     0.016 C 
HETATM   14  C   UNL     1      42.175 -15.950   3.199  1.00  0.00    -0.017 C 
HETATM   15  C   UNL     1      41.234 -16.288   2.020  1.00  0.00     0.020 C 
HETATM   16  C   UNL     1      41.340 -15.429   4.408  1.00  0.00     0.016 C 
HETATM   17  C   UNL     1      40.718 -14.044   4.213  1.00  0.00     0.026 C 
BRANCH  14  18
HETATM   18  C   UNL     1      42.922 -17.260   3.558  1.00  0.00    -0.050 A 
HETATM   19  C   UNL     1      43.211 -18.237   2.586  1.00  0.00     0.008 A 
HETATM   20  C   UNL     1      43.865 -19.429   2.916  1.00  0.00     0.001 A 
HETATM   21  C   UNL     1      44.235 -19.683   4.232  1.00  0.00     0.000 A 
HETATM   22  C   UNL     1      43.942 -18.747   5.217  1.00  0.00     0.001 A 
HETATM   23  C   UNL     1      43.287 -17.557   4.885  1.00  0.00     0.008 A 
ENDBRANCH  14  18
ENDBRANCH   8  11
ENDBRANCH   1   7
BRANCH   3  24
HETATM   24  C   UNL     1      43.466 -10.245   9.852  1.00  0.00    -0.006 A 
HETATM   25  C   UNL     1      43.830 -10.848  11.081  1.00  0.00     0.131 A 
HETATM   26  N   UNL     1      43.264 -10.598  12.295  1.00  0.00    -0.240 NA
HETATM   27  C   UNL     1      42.277  -9.705  12.247  1.00  0.00     0.158 A 
HETATM   28  C   UNL     1      41.827  -9.056  11.104  1.00  0.00     0.085 A 
HETATM   29  N   UNL     1      41.519  -9.256  13.317  1.00  0.00    -0.291 N 
HETATM   30  N   UNL     1      40.779  -8.207  11.470  1.00  0.00    -0.300 N 
HETATM   31  C   UNL     1      42.414  -9.310   9.886  1.00  0.00     0.047 A 
HETATM   32  C   UNL     1      40.038  -7.362  10.580  1.00  0.00     0.161 C 
HETATM   33  C   UNL     1      40.581  -8.324  12.860  1.00  0.00     0.328 A 
HETATM   34  O   UNL     1      39.762  -7.740  13.549  1.00  0.00    -0.247 OA
HETATM   35  H   UNL     1      41.630  -9.556  14.269  1.00  0.00     0.172 HD
ENDBRANCH   3  24
TORSDOF 4
ENDMDL
MODEL 2
REMARK VINA RESULT:     -10.2      1.014      1.503
REMARK  4 active torsions:
REMARK  status: ('A' for Active; 'I' for Inactive)
REMARK    1  A    between atoms: C_2  and  C_3 
REMARK    2  A    between atoms: C_11  and  N_12 
REMARK       I    between atoms: N_12  and  C_13 
REMARK    3  A    between atoms: C_13  and  C_14 
REMARK    4  A    between atoms: C_16  and  C_17 
ROOT
HETATM    1  C   UNL     1      43.849 -11.003   6.053  1.00  0.00     0.032 A 
HETATM    2  C   UNL     1      43.293 -10.172   7.040  1.00  0.00     0.029 A 
HETATM    3  C   UNL     1      44.017  -9.814   8.192  1.00  0.00    -0.024 A 
HETATM    4  C   UNL     1      45.321 -10.323   8.324  1.00  0.00     0.012 A 
HETATM    5  C   UNL     1      45.882 -11.149   7.345  1.00  0.00     0.002 A 
HETATM    6  C   UNL     1      45.151 -11.485   6.207  1.00  0.00     0.017 A 
ENDROOT
BRANCH   1   7
HETATM    7  C   UNL     1      43.036 -11.291   4.838  1.00  0.00     0.252 C 
HETATM    8  N   UNL     1      42.576 -12.585   4.697  1.00  0.00    -0.352 N 
HETATM    9  H   UNL     1      42.591 -13.188   5.509  1.00  0.00     0.163 HD
HETATM   10  O   UNL     1      42.798 -10.395   4.036  1.00  0.00    -0.268 OA
BRANCH   8  11
HETATM   11  C   UNL     1      41.723 -12.970   3.577  1.00  0.00     0.084 C 
HETATM   12  C   UNL     1      42.561 -13.470   2.402  1.00  0.00     0.026 C 
HETATM   13  C   UNL     1      43.191 -14.843   2.653  1.00  0.00     0.016 C 
HETATM   14  C   UNL     1      42.193 -15.954   3.099  1.00  0.00    -0.017 C 
HETATM   15  C   UNL     1      41.290 -16.348   1.908  1.00  0.00     0.020 C 
HETATM   16  C   UNL     1      41.318 -15.390   4.260  1.00  0.00     0.016 C 
HETATM   17  C   UNL     1      40.693 -14.019   3.989  1.00  0.00     0.026 C 
BRANCH  14  18
HETATM   18  C   UNL     1      42.937 -17.242   3.535  1.00  0.00    -0.050 A 
HETATM   19  C   UNL     1      43.236 -18.269   2.619  1.00  0.00     0.008 A 
HETATM   20  C   UNL     1      43.888 -19.442   3.020  1.00  0.00     0.001 A 
HETATM   21  C   UNL     1      44.245 -19.624   4.350  1.00  0.00     0.000 A 
HETATM   22  C   UNL     1      43.941 -18.637   5.281  1.00  0.00     0.001 A 
HETATM   23  C   UNL     1      43.289 -17.467   4.880  1.00  0.00     0.008 A 
ENDBRANCH  14  18
ENDBRANCH   8  11
ENDBRANCH   1   7
BRANCH   3  24
HETATM   24  C   UNL     1      43.434  -8.921   9.214  1.00  0.00    -0.006 A 
HETATM   25  C   UNL     1      43.615  -7.518   9.162  1.00  0.00     0.131 A 
HETATM   26  N   UNL     1      43.110  -6.612  10.046  1.00  0.00    -0.240 NA
HETATM   27  C   UNL     1      42.402  -7.165  11.029  1.00  0.00     0.158 A 
HETATM   28  C   UNL     1      42.164  -8.525  11.188  1.00  0.00     0.085 A 
HETATM   29  N   UNL     1      41.774  -6.499  12.068  1.00  0.00    -0.291 N 
HETATM   30  N   UNL     1      41.389  -8.699  12.339  1.00  0.00    -0.300 N 
HETATM   31  C   UNL     1      42.671  -9.429  10.283  1.00  0.00     0.047 A 
HETATM   32  C   UNL     1      40.931  -9.955  12.855  1.00  0.00     0.161 C 
HETATM   33  C   UNL     1      41.138  -7.430  12.896  1.00  0.00     0.328 A 
HETATM   34  O   UNL     1      40.495  -7.171  13.899  1.00  0.00    -0.247 OA
HETATM   35  H   UNL     1      41.778  -5.504  12.202  1.00  0.00     0.172 HD
ENDBRANCH   3  24
TORSDOF 4
ENDMDL
MODEL 3
REMARK VINA RESULT:     -10.0      3.154     10.494
REMARK  4 active torsions:
REMARK  status: ('A' for Active; 'I' for Inactive)
REMARK    1  A    between atoms: C_2  and  C_3 
REMARK    2  A    between atoms: C_11  and  N_12 
REMARK       I    between atoms: N_12  and  C_13 
REMARK    3  A    between atoms: C_13  and  C_14 
REMARK    4  A    between atoms: C_16  and  C_17 
ROOT
HETATM    1  C   UNL     1      43.557 -12.229   6.851  1.00  0.00     0.032 A 
HETATM    2  C   UNL     1      43.738 -13.619   6.778  1.00  0.00     0.029 A 
HETATM    3  C   UNL     1      43.030 -14.406   5.851  1.00  0.00    -0.024 A 
HETATM    4  C   UNL     1      42.126 -13.748   4.998  1.00  0.00     0.012 A 
HETATM    5  C   UNL     1      41.941 -12.363   5.062  1.00  0.00     0.002 A 
HETATM    6  C   UNL     1      42.660 -11.602   5.982  1.00  0.00     0.017 A 
ENDROOT
BRANCH   1   7
HETATM    7  C   UNL     1      44.384 -11.462   7.824  1.00  0.00     0.252 C 
HETATM    8  N   UNL     1      43.748 -11.035   8.973  1.00  0.00    -0.352 N 
HETATM    9  H   UNL     1      42.863 -11.460   9.213  1.00  0.00     0.163 HD
HETATM   10  O   UNL     1      45.569 -11.253   7.586  1.00  0.00    -0.268 OA
BRANCH   8  11
HETATM   11  C   UNL     1      44.472 -10.326  10.023  1.00  0.00     0.084 C 
HETATM   12  C   UNL     1      44.410  -8.816   9.801  1.00  0.00     0.026 C 
HETATM   13  C   UNL     1      43.027  -8.223  10.077  1.00  0.00     0.016 C 
HETATM   14  C   UNL     1      42.425  -8.575  11.471  1.00  0.00    -0.017 C 
HETATM   15  C   UNL     1      43.204  -7.824  12.575  1.00  0.00     0.020 C 
HETATM   16  C   UNL     1      42.556 -10.113  11.687  1.00  0.00     0.016 C 
HETATM   17  C   UNL     1      43.948 -10.688  11.411  1.00  0.00     0.026 C 
BRANCH  14  18
HETATM   18  C   UNL     1      40.948  -8.118  11.583  1.00  0.00    -0.050 A 
HETATM   19  C   UNL     1      40.153  -7.900  10.441  1.00  0.00     0.008 A 
HETATM   20  C   UNL     1      38.827  -7.465  10.544  1.00  0.00     0.001 A 
HETATM   21  C   UNL     1      38.264  -7.223  11.792  1.00  0.00     0.000 A 
HETATM   22  C   UNL     1      39.033  -7.407  12.936  1.00  0.00     0.001 A 
HETATM   23  C   UNL     1      40.358  -7.841  12.831  1.00  0.00     0.008 A 
ENDBRANCH  14  18
ENDBRANCH   8  11
ENDBRANCH   1   7
BRANCH   3  24
HETATM   24  C   UNL     1      43.244 -15.865   5.766  1.00  0.00    -0.006 A 
HETATM   25  C   UNL     1      43.390 -16.661   6.928  1.00  0.00     0.131 A 
HETATM   26  N   UNL     1      43.579 -18.010   6.956  1.00  0.00    -0.240 NA
HETATM   27  C   UNL     1      43.632 -18.565   5.746  1.00  0.00     0.158 A 
HETATM   28  C   UNL     1      43.509 -17.887   4.539  1.00  0.00     0.085 A 
HETATM   29  N   UNL     1      43.815 -19.908   5.463  1.00  0.00    -0.291 N 
HETATM   30  N   UNL     1      43.627 -18.819   3.504  1.00  0.00    -0.300 N 
HETATM   31  C   UNL     1      43.310 -16.526   4.525  1.00  0.00     0.047 A 
HETATM   32  C   UNL     1      43.562 -18.523   2.103  1.00  0.00     0.161 C 
HETATM   33  C   UNL     1      43.816 -20.092   4.076  1.00  0.00     0.328 A 
HETATM   34  O   UNL     1      43.955 -21.156   3.497  1.00  0.00    -0.247 OA
HETATM   35  H   UNL     1      43.930 -20.632   6.149  1.00  0.00     0.172 HD
ENDBRANCH   3  24
TORSDOF 4
ENDMDL
MODEL 4
REMARK VINA RESULT:     -10.0      4.484      9.019
REMARK  4 active torsions:
REMARK  status: ('A' for Active; 'I' for Inactive)
REMARK    1  A    between atoms: C_2  and  C_3 
REMARK    2  A    between atoms: C_11  and  N_12 
REMARK       I    between atoms: N_12  and  C_13 
REMARK    3  A    between atoms: C_13  and  C_14 
REMARK    4  A    between atoms: C_16  and  C_17 
ROOT
HETATM    1  C   UNL     1      42.455 -12.192   5.115  1.00  0.00     0.032 A 
HETATM    2  C   UNL     1      42.543 -13.369   4.356  1.00  0.00     0.029 A 
HETATM    3  C   UNL     1      43.133 -14.537   4.876  1.00  0.00    -0.024 A 
HETATM    4  C   UNL     1      43.637 -14.481   6.188  1.00  0.00     0.012 A 
HETATM    5  C   UNL     1      43.550 -13.312   6.951  1.00  0.00     0.002 A 
HETATM    6  C   UNL     1      42.955 -12.169   6.419  1.00  0.00     0.017 A 
ENDROOT
BRANCH   1   7
HETATM    7  C   UNL     1      41.769 -11.015   4.510  1.00  0.00     0.252 C 
HETATM    8  N   UNL     1      40.767 -11.286   3.599  1.00  0.00    -0.352 N 
HETATM    9  H   UNL     1      40.386 -12.222   3.575  1.00  0.00     0.163 HD
HETATM   10  O   UNL     1      42.097  -9.881   4.842  1.00  0.00    -0.268 OA
BRANCH   8  11
HETATM   11  C   UNL     1      39.988 -10.215   2.987  1.00  0.00     0.084 C 
HETATM   12  C   UNL     1      40.589  -9.805   1.645  1.00  0.00     0.026 C 
HETATM   13  C   UNL     1      40.384 -10.852   0.547  1.00  0.00     0.016 C 
HETATM   14  C   UNL     1      38.909 -11.314   0.345  1.00  0.00    -0.017 C 
HETATM   15  C   UNL     1      38.092 -10.170  -0.298  1.00  0.00     0.020 C 
HETATM   16  C   UNL     1      38.311 -11.671   1.740  1.00  0.00     0.016 C 
HETATM   17  C   UNL     1      38.522 -10.609   2.822  1.00  0.00     0.026 C 
BRANCH  14  18
HETATM   18  C   UNL     1      38.821 -12.520  -0.626  1.00  0.00    -0.050 A 
HETATM   19  C   UNL     1      39.674 -13.633  -0.502  1.00  0.00     0.008 A 
HETATM   20  C   UNL     1      39.608 -14.710  -1.394  1.00  0.00     0.001 A 
HETATM   21  C   UNL     1      38.696 -14.695  -2.442  1.00  0.00     0.000 A 
HETATM   22  C   UNL     1      37.857 -13.598  -2.604  1.00  0.00     0.001 A 
HETATM   23  C   UNL     1      37.925 -12.522  -1.713  1.00  0.00     0.008 A 
ENDBRANCH  14  18
ENDBRANCH   8  11
ENDBRANCH   1   7
BRANCH   3  24
HETATM   24  C   UNL     1      43.202 -15.778   4.079  1.00  0.00    -0.006 A 
HETATM   25  C   UNL     1      42.954 -15.778   2.684  1.00  0.00     0.131 A 
HETATM   26  N   UNL     1      43.004 -16.863   1.862  1.00  0.00    -0.240 NA
HETATM   27  C   UNL     1      43.307 -17.996   2.494  1.00  0.00     0.158 A 
HETATM   28  C   UNL     1      43.561 -18.120   3.855  1.00  0.00     0.085 A 
HETATM   29  N   UNL     1      43.426 -19.252   1.922  1.00  0.00    -0.291 N 
HETATM   30  N   UNL     1      43.831 -19.465   4.125  1.00  0.00    -0.300 N 
HETATM   31  C   UNL     1      43.517 -17.015   4.673  1.00  0.00     0.047 A 
HETATM   32  C   UNL     1      44.138 -20.012   5.414  1.00  0.00     0.161 C 
HETATM   33  C   UNL     1      43.751 -20.182   2.916  1.00  0.00     0.328 A 
HETATM   34  O   UNL     1      43.927 -21.377   2.744  1.00  0.00    -0.247 OA
HETATM   35  H   UNL     1      43.298 -19.457   0.948  1.00  0.00     0.172 HD
ENDBRANCH   3  24
TORSDOF 4
ENDMDL
MODEL 5
REMARK VINA RESULT:      -9.8      2.799     10.667
REMARK  4 active torsions:
REMARK  status: ('A' for Active; 'I' for Inactive)
REMARK    1  A    between atoms: C_2  and  C_3 
REMARK    2  A    between atoms: C_11  and  N_12 
REMARK       I    between atoms: N_12  and  C_13 
REMARK    3  A    between atoms: C_13  and  C_14 
REMARK    4  A    between atoms: C_16  and  C_17 
ROOT
HETATM    1  C   UNL     1      43.201 -11.588   6.739  1.00  0.00     0.032 A 
HETATM    2  C   UNL     1      43.424 -12.811   6.086  1.00  0.00     0.029 A 
HETATM    3  C   UNL     1      42.664 -13.197   4.967  1.00  0.00    -0.024 A 
HETATM    4  C   UNL     1      41.664 -12.312   4.525  1.00  0.00     0.012 A 
HETATM    5  C   UNL     1      41.437 -11.091   5.167  1.00  0.00     0.002 A 
HETATM    6  C   UNL     1      42.208 -10.724   6.270  1.00  0.00     0.017 A 
ENDROOT
BRANCH   1   7
HETATM    7  C   UNL     1      44.084 -11.230   7.884  1.00  0.00     0.252 C 
HETATM    8  N   UNL     1      43.478 -10.617   8.963  1.00  0.00    -0.352 N 
HETATM    9  H   UNL     1      42.471 -10.666   9.035  1.00  0.00     0.163 HD
HETATM   10  O   UNL     1      45.280 -11.497   7.839  1.00  0.00    -0.268 OA
BRANCH   8  11
HETATM   11  C   UNL     1      44.232 -10.274  10.163  1.00  0.00     0.084 C 
HETATM   12  C   UNL     1      44.481  -8.769  10.238  1.00  0.00     0.026 C 
HETATM   13  C   UNL     1      43.219  -7.965  10.560  1.00  0.00     0.016 C 
HETATM   14  C   UNL     1      42.445  -8.434  11.828  1.00  0.00    -0.017 C 
HETATM   15  C   UNL     1      43.256  -8.071  13.093  1.00  0.00     0.020 C 
HETATM   16  C   UNL     1      42.258  -9.979  11.746  1.00  0.00     0.016 C 
HETATM   17  C   UNL     1      43.532 -10.766  11.428  1.00  0.00     0.026 C 
BRANCH  14  18
HETATM   18  C   UNL     1      41.078  -7.712  11.958  1.00  0.00    -0.050 A 
HETATM   19  C   UNL     1      40.210  -7.962  13.037  1.00  0.00     0.008 A 
HETATM   20  C   UNL     1      38.967  -7.326  13.140  1.00  0.00     0.001 A 
HETATM   21  C   UNL     1      38.554  -6.434  12.158  1.00  0.00     0.000 A 
HETATM   22  C   UNL     1      39.380  -6.186  11.068  1.00  0.00     0.001 A 
HETATM   23  C   UNL     1      40.621  -6.823  10.966  1.00  0.00     0.008 A 
ENDBRANCH  14  18
ENDBRANCH   8  11
ENDBRANCH   1   7
BRANCH   3  24
HETATM   24  C   UNL     1      42.921 -14.475   4.273  1.00  0.00    -0.006 A 
HETATM   25  C   UNL     1      42.969 -14.554   2.860  1.00  0.00     0.131 A 
HETATM   26  N   UNL     1      43.210 -15.678   2.129  1.00  0.00    -0.240 NA
HETATM   27  C   UNL     1      43.396 -16.767   2.873  1.00  0.00     0.158 A 
HETATM   28  C   UNL     1      43.364 -16.813   4.261  1.00  0.00     0.085 A 
HETATM   29  N   UNL     1      43.656 -18.046   2.410  1.00  0.00    -0.291 N 
HETATM   30  N   UNL     1      43.598 -18.134   4.657  1.00  0.00    -0.300 N 
HETATM   31  C   UNL     1      43.130 -15.669   4.988  1.00  0.00     0.047 A 
HETATM   32  C   UNL     1      43.641 -18.604   6.010  1.00  0.00     0.161 C 
HETATM   33  C   UNL     1      43.785 -18.914   3.500  1.00  0.00     0.328 A 
HETATM   34  O   UNL     1      44.016 -20.110   3.436  1.00  0.00    -0.247 OA
HETATM   35  H   UNL     1      43.737 -18.305   1.443  1.00  0.00     0.172 HD
ENDBRANCH   3  24
TORSDOF 4
ENDMDL
MODEL 6
REMARK VINA RESULT:      -9.6      6.444     10.766
REMARK  4 active torsions:
REMARK  status: ('A' for Active; 'I' for Inactive)
REMARK    1  A    between atoms: C_2  and  C_3 
REMARK    2  A    between atoms: C_11  and  N_12 
REMARK       I    between atoms: N_12  and  C_13 
REMARK    3  A    between atoms: C_13  and  C_14 
REMARK    4  A    between atoms: C_16  and  C_17 
ROOT
HETATM    1  C   UNL     1      39.848 -13.263   0.298  1.00  0.00     0.032 A 
HETATM    2  C   UNL     1      39.021 -12.271  -0.252  1.00  0.00     0.029 A 
HETATM    3  C   UNL     1      38.283 -12.498  -1.429  1.00  0.00    -0.024 A 
HETATM    4  C   UNL     1      38.408 -13.758  -2.040  1.00  0.00     0.012 A 
HETATM    5  C   UNL     1      39.228 -14.752  -1.497  1.00  0.00     0.002 A 
HETATM    6  C   UNL     1      39.943 -14.509  -0.326  1.00  0.00     0.017 A 
ENDROOT
BRANCH   1   7
HETATM    7  C   UNL     1      40.554 -12.961   1.575  1.00  0.00     0.252 C 
HETATM    8  N   UNL     1      40.713 -14.012   2.456  1.00  0.00    -0.352 N 
HETATM    9  H   UNL     1      40.578 -14.952   2.107  1.00  0.00     0.163 HD
HETATM   10  O   UNL     1      40.972 -11.828   1.788  1.00  0.00    -0.268 OA
BRANCH   8  11
HETATM   11  C   UNL     1      41.439 -13.848   3.711  1.00  0.00     0.084 C 
HETATM   12  C   UNL     1      40.937 -14.835   4.763  1.00  0.00     0.026 C 
HETATM   13  C   UNL     1      41.353 -16.281   4.480  1.00  0.00     0.016 C 
HETATM   14  C   UNL     1      42.879 -16.493   4.244  1.00  0.00    -0.017 C 
HETATM   15  C   UNL     1      43.638 -16.310   5.579  1.00  0.00     0.020 C 
HETATM   16  C   UNL     1      43.368 -15.434   3.210  1.00  0.00     0.016 C 
HETATM   17  C   UNL     1      42.946 -13.994   3.513  1.00  0.00     0.026 C 
BRANCH  14  18
HETATM   18  C   UNL     1      43.183 -17.933   3.757  1.00  0.00    -0.050 A 
HETATM   19  C   UNL     1      43.868 -18.859   4.567  1.00  0.00     0.008 A 
HETATM   20  C   UNL     1      44.162 -20.151   4.116  1.00  0.00     0.001 A 
HETATM   21  C   UNL     1      43.789 -20.547   2.836  1.00  0.00     0.000 A 
HETATM   22  C   UNL     1      43.133 -19.646   2.006  1.00  0.00     0.001 A 
HETATM   23  C   UNL     1      42.841 -18.355   2.457  1.00  0.00     0.008 A 
ENDBRANCH  14  18
ENDBRANCH   8  11
ENDBRANCH   1   7
BRANCH   3  24
HETATM   24  C   UNL     1      37.398 -11.457  -1.988  1.00  0.00    -0.006 A 
HETATM   25  C   UNL     1      37.471 -10.111  -1.554  1.00  0.00     0.131 A 
HETATM   26  N   UNL     1      36.709  -9.078  -2.014  1.00  0.00    -0.240 NA
HETATM   27  C   UNL     1      35.830  -9.441  -2.947  1.00  0.00     0.158 A 
HETATM   28  C   UNL     1      35.662 -10.727  -3.444  1.00  0.00     0.085 A 
HETATM   29  N   UNL     1      34.926  -8.613  -3.592  1.00  0.00    -0.291 N 
HETATM   30  N   UNL     1      34.640 -10.694  -4.398  1.00  0.00    -0.300 N 
HETATM   31  C   UNL     1      36.444 -11.759  -2.978  1.00  0.00     0.047 A 
HETATM   32  C   UNL     1      34.157 -11.819  -5.143  1.00  0.00     0.161 C 
HETATM   33  C   UNL     1      34.175  -9.369  -4.499  1.00  0.00     0.328 A 
HETATM   34  O   UNL     1      33.294  -8.941  -5.226  1.00  0.00    -0.247 OA
HETATM   35  H   UNL     1      34.829  -7.627  -3.431  1.00  0.00     0.172 HD
ENDBRANCH   3  24
TORSDOF 4
ENDMDL
MODEL 7
REMARK VINA RESULT:      -9.5      2.914     10.801
REMARK  4 active torsions:
REMARK  status: ('A' for Active; 'I' for Inactive)
REMARK    1  A    between atoms: C_2  and  C_3 
REMARK    2  A    between atoms: C_11  and  N_12 
REMARK       I    between atoms: N_12  and  C_13 
REMARK    3  A    between atoms: C_13  and  C_14 
REMARK    4  A    between atoms: C_16  and  C_17 
ROOT
HETATM    1  C   UNL     1      44.420 -10.617   9.217  1.00  0.00     0.032 A 
HETATM    2  C   UNL     1      43.858 -11.353   8.163  1.00  0.00     0.029 A 
HETATM    3  C   UNL     1      44.517 -11.491   6.928  1.00  0.00    -0.024 A 
HETATM    4  C   UNL     1      45.765 -10.859   6.784  1.00  0.00     0.012 A 
HETATM    5  C   UNL     1      46.334 -10.125   7.830  1.00  0.00     0.002 A 
HETATM    6  C   UNL     1      45.667 -10.008   9.049  1.00  0.00     0.017 A 
ENDROOT
BRANCH   1   7
HETATM    7  C   UNL     1      43.682 -10.563  10.510  1.00  0.00     0.252 C 
HETATM    8  N   UNL     1      42.677  -9.622  10.608  1.00  0.00    -0.352 N 
HETATM    9  H   UNL     1      42.330  -9.205   9.755  1.00  0.00     0.163 HD
HETATM   10  O   UNL     1      43.973 -11.342  11.412  1.00  0.00    -0.268 OA
BRANCH   8  11
HETATM   11  C   UNL     1      41.849  -9.517  11.805  1.00  0.00     0.084 C 
HETATM   12  C   UNL     1      42.655  -8.960  12.977  1.00  0.00     0.026 C 
HETATM   13  C   UNL     1      42.981  -7.472  12.830  1.00  0.00     0.016 C 
HETATM   14  C   UNL     1      41.755  -6.552  12.551  1.00  0.00    -0.017 C 
HETATM   15  C   UNL     1      40.882  -6.454  13.823  1.00  0.00     0.020 C 
HETATM   16  C   UNL     1      40.926  -7.180  11.389  1.00  0.00     0.016 C 
HETATM   17  C   UNL     1      40.605  -8.667  11.556  1.00  0.00     0.026 C 
BRANCH  14  18
HETATM   18  C   UNL     1      42.196  -5.107  12.205  1.00  0.00    -0.050 A 
HETATM   19  C   UNL     1      42.504  -4.723  10.886  1.00  0.00     0.008 A 
HETATM   20  C   UNL     1      42.925  -3.424  10.579  1.00  0.00     0.001 A 
HETATM   21  C   UNL     1      43.063  -2.477  11.588  1.00  0.00     0.000 A 
HETATM   22  C   UNL     1      42.789  -2.834  12.903  1.00  0.00     0.001 A 
HETATM   23  C   UNL     1      42.370  -4.133  13.207  1.00  0.00     0.008 A 
ENDBRANCH  14  18
ENDBRANCH   8  11
ENDBRANCH   1   7
BRANCH   3  24
HETATM   24  C   UNL     1      43.929 -12.287   5.832  1.00  0.00    -0.006 A 
HETATM   25  C   UNL     1      43.856 -11.787   4.509  1.00  0.00     0.131 A 
HETATM   26  N   UNL     1      43.344 -12.444   3.431  1.00  0.00    -0.240 NA
HETATM   27  C   UNL     1      42.878 -13.658   3.720  1.00  0.00     0.158 A 
HETATM   28  C   UNL     1      42.888 -14.250   4.978  1.00  0.00     0.085 A 
HETATM   29  N   UNL     1      42.302 -14.552   2.833  1.00  0.00    -0.291 N 
HETATM   30  N   UNL     1      42.305 -15.516   4.866  1.00  0.00    -0.300 N 
HETATM   31  C   UNL     1      43.416 -13.579   6.056  1.00  0.00     0.047 A 
HETATM   32  C   UNL     1      42.121 -16.448   5.940  1.00  0.00     0.161 C 
HETATM   33  C   UNL     1      41.937 -15.715   3.521  1.00  0.00     0.328 A 
HETATM   34  O   UNL     1      41.406 -16.696   3.031  1.00  0.00    -0.247 OA
HETATM   35  H   UNL     1      42.168 -14.387   1.852  1.00  0.00     0.172 HD
ENDBRANCH   3  24
TORSDOF 4
ENDMDL
MODEL 8
REMARK VINA RESULT:      -9.4      2.070      3.011
REMARK  4 active torsions:
REMARK  status: ('A' for Active; 'I' for Inactive)
REMARK    1  A    between atoms: C_2  and  C_3 
REMARK    2  A    between atoms: C_11  and  N_12 
REMARK       I    between atoms: N_12  and  C_13 
REMARK    3  A    between atoms: C_13  and  C_14 
REMARK    4  A    between atoms: C_16  and  C_17 
ROOT
HETATM    1  C   UNL     1      42.995  -9.621   8.742  1.00  0.00     0.032 A 
HETATM    2  C   UNL     1      42.359  -9.030   9.845  1.00  0.00     0.029 A 
HETATM    3  C   UNL     1      43.027  -8.853  11.071  1.00  0.00    -0.024 A 
HETATM    4  C   UNL     1      44.359  -9.296  11.154  1.00  0.00     0.012 A 
HETATM    5  C   UNL     1      45.000  -9.884  10.059  1.00  0.00     0.002 A 
HETATM    6  C   UNL     1      44.322 -10.041   8.851  1.00  0.00     0.017 A 
ENDROOT
BRANCH   1   7
HETATM    7  C   UNL     1      42.235  -9.724   7.464  1.00  0.00     0.252 C 
HETATM    8  N   UNL     1      41.961 -10.999   7.009  1.00  0.00    -0.352 N 
HETATM    9  H   UNL     1      42.059 -11.768   7.659  1.00  0.00     0.163 HD
HETATM   10  O   UNL     1      41.875  -8.705   6.885  1.00  0.00    -0.268 OA
BRANCH   8  11
HETATM   11  C   UNL     1      41.175 -11.221   5.801  1.00  0.00     0.084 C 
HETATM   12  C   UNL     1      42.081 -11.361   4.580  1.00  0.00     0.026 C 
HETATM   13  C   UNL     1      42.860 -12.678   4.555  1.00  0.00     0.016 C 
HETATM   14  C   UNL     1      41.990 -13.961   4.714  1.00  0.00    -0.017 C 
HETATM   15  C   UNL     1      41.156 -14.183   3.431  1.00  0.00     0.020 C 
HETATM   16  C   UNL     1      41.040 -13.761   5.933  1.00  0.00     0.016 C 
HETATM   17  C   UNL     1      40.266 -12.441   5.938  1.00  0.00     0.026 C 
BRANCH  14  18
HETATM   18  C   UNL     1      42.871 -15.225   4.893  1.00  0.00    -0.050 A 
HETATM   19  C   UNL     1      42.867 -16.268   3.947  1.00  0.00     0.008 A 
HETATM   20  C   UNL     1      43.645 -17.418   4.122  1.00  0.00     0.001 A 
HETATM   21  C   UNL     1      44.438 -17.561   5.255  1.00  0.00     0.000 A 
HETATM   22  C   UNL     1      44.444 -16.558   6.216  1.00  0.00     0.001 A 
HETATM   23  C   UNL     1      43.664 -15.410   6.041  1.00  0.00     0.008 A 
ENDBRANCH  14  18
ENDBRANCH   8  11
ENDBRANCH   1   7
BRANCH   3  24
HETATM   24  C   UNL     1      42.358  -8.210  12.220  1.00  0.00    -0.006 A 
HETATM   25  C   UNL     1      43.077  -7.833  13.380  1.00  0.00     0.131 A 
HETATM   26  N   UNL     1      42.557  -7.226  14.483  1.00  0.00    -0.240 NA
HETATM   27  C   UNL     1      41.246  -7.007  14.400  1.00  0.00     0.158 A 
HETATM   28  C   UNL     1      40.436  -7.339  13.321  1.00  0.00     0.085 A 
HETATM   29  N   UNL     1      40.448  -6.412  15.364  1.00  0.00    -0.291 N 
HETATM   30  N   UNL     1      39.127  -6.953  13.624  1.00  0.00    -0.300 N 
HETATM   31  C   UNL     1      40.976  -7.943  12.209  1.00  0.00     0.047 A 
HETATM   32  C   UNL     1      37.987  -7.124  12.773  1.00  0.00     0.161 C 
HETATM   33  C   UNL     1      39.126  -6.367  14.905  1.00  0.00     0.328 A 
HETATM   34  O   UNL     1      38.176  -5.905  15.513  1.00  0.00    -0.247 OA
HETATM   35  H   UNL     1      40.771  -6.069  16.250  1.00  0.00     0.172 HD
ENDBRANCH   3  24
TORSDOF 4
ENDMDL
MODEL 9
REMARK VINA RESULT:      -9.3      3.240     10.101
REMARK  4 active torsions:
REMARK  status: ('A' for Active; 'I' for Inactive)
REMARK    1  A    between atoms: C_2  and  C_3 
REMARK    2  A    between atoms: C_11  and  N_12 
REMARK       I    between atoms: N_12  and  C_13 
REMARK    3  A    between atoms: C_13  and  C_14 
REMARK    4  A    between atoms: C_16  and  C_17 
ROOT
HETATM    1  C   UNL     1      43.400 -13.446   6.325  1.00  0.00     0.032 A 
HETATM    2  C   UNL     1      42.799 -13.539   5.060  1.00  0.00     0.029 A 
HETATM    3  C   UNL     1      42.020 -14.653   4.696  1.00  0.00    -0.024 A 
HETATM    4  C   UNL     1      41.867 -15.677   5.648  1.00  0.00     0.012 A 
HETATM    5  C   UNL     1      42.461 -15.591   6.912  1.00  0.00     0.002 A 
HETATM    6  C   UNL     1      43.221 -14.474   7.254  1.00  0.00     0.017 A 
ENDROOT
BRANCH   1   7
HETATM    7  C   UNL     1      44.166 -12.210   6.650  1.00  0.00     0.252 C 
HETATM    8  N   UNL     1      43.679 -11.436   7.686  1.00  0.00    -0.352 N 
HETATM    9  H   UNL     1      43.006 -11.853   8.315  1.00  0.00     0.163 HD
HETATM   10  O   UNL     1      45.179 -11.936   6.017  1.00  0.00    -0.268 OA
BRANCH   8  11
HETATM   11  C   UNL     1      44.377 -10.235   8.130  1.00  0.00     0.084 C 
HETATM   12  C   UNL     1      43.451  -9.022   8.091  1.00  0.00     0.026 C 
HETATM   13  C   UNL     1      42.381  -9.045   9.185  1.00  0.00     0.016 C 
HETATM   14  C   UNL     1      42.922  -9.248  10.632  1.00  0.00    -0.017 C 
HETATM   15  C   UNL     1      43.666  -7.972  11.089  1.00  0.00     0.020 C 
HETATM   16  C   UNL     1      43.906 -10.458  10.623  1.00  0.00     0.016 C 
HETATM   17  C   UNL     1      44.972 -10.414   9.525  1.00  0.00     0.026 C 
BRANCH  14  18
HETATM   18  C   UNL     1      41.768  -9.473  11.643  1.00  0.00    -0.050 A 
HETATM   19  C   UNL     1      40.488  -9.882  11.224  1.00  0.00     0.008 A 
HETATM   20  C   UNL     1      39.441 -10.062  12.136  1.00  0.00     0.001 A 
HETATM   21  C   UNL     1      39.645  -9.825  13.490  1.00  0.00     0.000 A 
HETATM   22  C   UNL     1      40.892  -9.398  13.930  1.00  0.00     0.001 A 
HETATM   23  C   UNL     1      41.937  -9.217  13.017  1.00  0.00     0.008 A 
ENDBRANCH  14  18
ENDBRANCH   8  11
ENDBRANCH   1   7
BRANCH   3  24
HETATM   24  C   UNL     1      41.373 -14.733   3.371  1.00  0.00    -0.006 A 
HETATM   25  C   UNL     1      40.742 -15.920   2.925  1.00  0.00     0.131 A 
HETATM   26  N   UNL     1      40.110 -16.091   1.730  1.00  0.00    -0.240 NA
HETATM   27  C   UNL     1      40.135 -15.007   0.956  1.00  0.00     0.158 A 
HETATM   28  C   UNL     1      40.729 -13.794   1.281  1.00  0.00     0.085 A 
HETATM   29  N   UNL     1      39.580 -14.884  -0.307  1.00  0.00    -0.291 N 
HETATM   30  N   UNL     1      40.545 -12.918   0.207  1.00  0.00    -0.300 N 
HETATM   31  C   UNL     1      41.356 -13.631   2.495  1.00  0.00     0.047 A 
HETATM   32  C   UNL     1      41.013 -11.565   0.143  1.00  0.00     0.161 C 
HETATM   33  C   UNL     1      39.822 -13.595  -0.794  1.00  0.00     0.328 A 
HETATM   34  O   UNL     1      39.465 -13.163  -1.877  1.00  0.00    -0.247 OA
HETATM   35  H   UNL     1      39.084 -15.609  -0.793  1.00  0.00     0.172 HD
ENDBRANCH   3  24
TORSDOF 4
ENDMDL
MODEL 10
REMARK VINA RESULT:      -9.3      6.210      9.996
REMARK  4 active torsions:
REMARK  status: ('A' for Active; 'I' for Inactive)
REMARK    1  A    between atoms: C_2  and  C_3 
REMARK    2  A    between atoms: C_11  and  N_12 
REMARK       I    between atoms: N_12  and  C_13 
REMARK    3  A    between atoms: C_13  and  C_14 
REMARK    4  A    between atoms: C_16  and  C_17 
ROOT
HETATM    1  C   UNL     1      39.856 -13.189   0.336  1.00  0.00     0.032 A 
HETATM    2  C   UNL     1      38.946 -12.233  -0.143  1.00  0.00     0.029 A 
HETATM    3  C   UNL     1      38.195 -12.454  -1.313  1.00  0.00    -0.024 A 
HETATM    4  C   UNL     1      38.392 -13.670  -1.991  1.00  0.00     0.012 A 
HETATM    5  C   UNL     1      39.295 -14.629  -1.519  1.00  0.00     0.002 A 
HETATM    6  C   UNL     1      40.022 -14.393  -0.353  1.00  0.00     0.017 A 
ENDROOT
BRANCH   1   7
HETATM    7  C   UNL     1      40.573 -12.900   1.610  1.00  0.00     0.252 C 
HETATM    8  N   UNL     1      40.704 -13.951   2.496  1.00  0.00    -0.352 N 
HETATM    9  H   UNL     1      40.544 -14.888   2.151  1.00  0.00     0.163 HD
HETATM   10  O   UNL     1      41.021 -11.778   1.817  1.00  0.00    -0.268 OA
BRANCH   8  11
HETATM   11  C   UNL     1      41.437 -13.801   3.748  1.00  0.00     0.084 C 
HETATM   12  C   UNL     1      40.958 -14.817   4.783  1.00  0.00     0.026 C 
HETATM   13  C   UNL     1      41.395 -16.250   4.468  1.00  0.00     0.016 C 
HETATM   14  C   UNL     1      42.923 -16.433   4.217  1.00  0.00    -0.017 C 
HETATM   15  C   UNL     1      43.689 -16.265   5.550  1.00  0.00     0.020 C 
HETATM   16  C   UNL     1      43.387 -15.346   3.201  1.00  0.00     0.016 C 
HETATM   17  C   UNL     1      42.945 -13.919   3.536  1.00  0.00     0.026 C 
BRANCH  14  18
HETATM   18  C   UNL     1      43.246 -17.858   3.698  1.00  0.00    -0.050 A 
HETATM   19  C   UNL     1      42.842 -18.288   2.420  1.00  0.00     0.008 A 
HETATM   20  C   UNL     1      43.114 -19.582   1.962  1.00  0.00     0.001 A 
HETATM   21  C   UNL     1      43.786 -20.486   2.777  1.00  0.00     0.000 A 
HETATM   22  C   UNL     1      44.176 -20.096   4.053  1.00  0.00     0.001 A 
HETATM   23  C   UNL     1      43.902 -18.803   4.510  1.00  0.00     0.008 A 
ENDBRANCH  14  18
ENDBRANCH   8  11
ENDBRANCH   1   7
BRANCH   3  24
HETATM   24  C   UNL     1      37.224 -11.453  -1.798  1.00  0.00    -0.006 A 
HETATM   25  C   UNL     1      36.457 -11.671  -2.968  1.00  0.00     0.131 A 
HETATM   26  N   UNL     1      35.531 -10.818  -3.489  1.00  0.00    -0.240 NA
HETATM   27  C   UNL     1      35.392  -9.692  -2.791  1.00  0.00     0.158 A 
HETATM   28  C   UNL     1      36.092  -9.365  -1.636  1.00  0.00     0.085 A 
HETATM   29  N   UNL     1      34.532  -8.645  -3.079  1.00  0.00    -0.291 N 
HETATM   30  N   UNL     1      35.667  -8.102  -1.213  1.00  0.00    -0.300 N 
HETATM   31  C   UNL     1      37.018 -10.239  -1.115  1.00  0.00     0.047 A 
HETATM   32  C   UNL     1      36.149  -7.402  -0.059  1.00  0.00     0.161 C 
HETATM   33  C   UNL     1      34.684  -7.644  -2.113  1.00  0.00     0.328 A 
HETATM   34  O   UNL     1      34.074  -6.590  -2.076  1.00  0.00    -0.247 OA
HETATM   35  H   UNL     1      33.902  -8.613  -3.859  1.00  0.00     0.172 HD
ENDBRANCH   3  24
TORSDOF 4
ENDMDL
