MODEL 1
REMARK VINA RESULT:      -9.2      0.000      0.000
REMARK  5 active torsions:
REMARK  status: ('A' for Active; 'I' for Inactive)
REMARK    1  A    between atoms: C_3  and  O_4 
REMARK    2  A    between atoms: O_4  and  C_5 
REMARK    3  A    between atoms: C_5  and  C_6 
REMARK    4  A    between atoms: C_13  and  N_14 
REMARK       I    between atoms: N_14  and  C_15 
REMARK    5  A    between atoms: C_15  and  C_16 
ROOT
HETATM    1  N   UNL     1      43.508 -13.592   6.457  1.00  0.00    -0.323 N 
HETATM    2  C   UNL     1      43.288 -12.235   6.613  1.00  0.00     0.258 C 
HETATM    3  O   UNL     1      42.245 -11.636   6.372  1.00  0.00    -0.267 OA
HETATM    4  H   UNL     1      44.364 -13.970   6.839  1.00  0.00     0.169 HD
ENDROOT
BRANCH   1   5
HETATM    5  C   UNL     1      42.631 -14.545   5.893  1.00  0.00     0.037 A 
HETATM    6  C   UNL     1      42.772 -15.084   4.612  1.00  0.00     0.066 A 
HETATM    7  C   UNL     1      41.863 -16.033   4.124  1.00  0.00     0.071 A 
HETATM    8  C   UNL     1      40.810 -16.458   4.933  1.00  0.00     0.037 A 
HETATM    9  C   UNL     1      40.660 -15.927   6.214  1.00  0.00     0.005 A 
HETATM   10  C   UNL     1      41.563 -14.976   6.690  1.00  0.00     0.029 A 
BRANCH   7  11
HETATM   11  O   UNL     1      42.117 -16.462   2.850  1.00  0.00    -0.347 OA
BRANCH  11  12
HETATM   12  C   UNL     1      43.438 -16.918   2.562  1.00  0.00     0.215 C 
BRANCH  12  13
HETATM   13  C   UNL     1      43.574 -18.349   3.004  1.00  0.00    -0.017 A 
HETATM   14  C   UNL     1      43.276 -19.399   2.143  1.00  0.00     0.125 A 
HETATM   15  N   UNL     1      43.421 -20.707   2.457  1.00  0.00    -0.272 NA
HETATM   16  C   UNL     1      43.887 -20.985   3.694  1.00  0.00     0.116 A 
HETATM   17  C   UNL     1      44.220 -20.017   4.626  1.00  0.00     0.020 A 
HETATM   18  C   UNL     1      44.065 -18.681   4.272  1.00  0.00     0.012 A 
ENDBRANCH  12  13
ENDBRANCH  11  12
ENDBRANCH   7  11
ENDBRANCH   1   5
BRANCH   2  19
HETATM   19  C   UNL     1      44.435 -11.463   7.174  1.00  0.00     0.059 A 
HETATM   20  C   UNL     1      44.308 -10.800   8.388  1.00  0.00     0.057 A 
HETATM   21  C   UNL     1      45.357 -10.080   8.960  1.00  0.00    -0.022 A 
HETATM   22  N   UNL     1      43.197 -10.721   9.222  1.00  0.00    -0.325 N 
HETATM   23  C   UNL     1      44.909  -9.487  10.264  1.00  0.00     0.144 A 
HETATM   24  C   UNL     1      46.581  -9.982   8.325  1.00  0.00     0.010 A 
HETATM   25  C   UNL     1      43.452  -9.956  10.351  1.00  0.00     0.226 A 
HETATM   26  O   UNL     1      42.664  -9.703  11.246  1.00  0.00    -0.273 OA
HETATM   27  C   UNL     1      46.729 -10.615   7.088  1.00  0.00     0.002 A 
HETATM   28  C   UNL     1      45.668 -11.343   6.512  1.00  0.00     0.019 A 
HETATM   29  H   UNL     1      42.296 -11.128   8.994  1.00  0.00     0.169 HD
ENDBRANCH   2  19
TORSDOF 5
ENDMDL
MODEL 2
REMARK VINA RESULT:      -8.9      2.759      5.799
REMARK  5 active torsions:
REMARK  status: ('A' for Active; 'I' for Inactive)
REMARK    1  A    between atoms: C_3  and  O_4 
REMARK    2  A    between atoms: O_4  and  C_5 
REMARK    3  A    between atoms: C_5  and  C_6 
REMARK    4  A    between atoms: C_13  and  N_14 
REMARK       I    between atoms: N_14  and  C_15 
REMARK    5  A    between atoms: C_15  and  C_16 
ROOT
HETATM    1  N   UNL     1      44.091  -9.553  10.053  1.00  0.00    -0.323 N 
HETATM    2  C   UNL     1      43.745 -10.158  11.249  1.00  0.00     0.258 C 
HETATM    3  O   UNL     1      43.956 -11.325  11.561  1.00  0.00    -0.267 OA
HETATM    4  H   UNL     1      43.991  -8.550   9.994  1.00  0.00     0.169 HD
ENDROOT
BRANCH   1   5
HETATM    5  C   UNL     1      44.653 -10.168   8.912  1.00  0.00     0.037 A 
HETATM    6  C   UNL     1      43.993 -11.109   8.118  1.00  0.00     0.066 A 
HETATM    7  C   UNL     1      44.616 -11.671   6.995  1.00  0.00     0.071 A 
HETATM    8  C   UNL     1      45.908 -11.274   6.654  1.00  0.00     0.037 A 
HETATM    9  C   UNL     1      46.576 -10.333   7.438  1.00  0.00     0.005 A 
HETATM   10  C   UNL     1      45.953  -9.787   8.560  1.00  0.00     0.029 A 
BRANCH   7  11
HETATM   11  O   UNL     1      43.856 -12.588   6.321  1.00  0.00    -0.347 OA
BRANCH  11  12
HETATM   12  C   UNL     1      43.434 -13.746   7.040  1.00  0.00     0.215 C 
BRANCH  12  13
HETATM   13  C   UNL     1      43.489 -14.940   6.127  1.00  0.00    -0.017 A 
HETATM   14  C   UNL     1      42.803 -14.952   4.917  1.00  0.00     0.125 A 
HETATM   15  N   UNL     1      42.846 -15.971   4.027  1.00  0.00    -0.272 NA
HETATM   16  C   UNL     1      43.611 -17.033   4.360  1.00  0.00     0.116 A 
HETATM   17  C   UNL     1      44.338 -17.121   5.534  1.00  0.00     0.020 A 
HETATM   18  C   UNL     1      44.278 -16.056   6.427  1.00  0.00     0.012 A 
ENDBRANCH  12  13
ENDBRANCH  11  12
ENDBRANCH   7  11
ENDBRANCH   1   5
BRANCH   2  19
HETATM   19  C   UNL     1      43.094  -9.264  12.250  1.00  0.00     0.059 A 
HETATM   20  C   UNL     1      41.831  -9.564  12.743  1.00  0.00     0.057 A 
HETATM   21  C   UNL     1      41.190  -8.768  13.693  1.00  0.00    -0.022 A 
HETATM   22  N   UNL     1      41.005 -10.635  12.420  1.00  0.00    -0.325 N 
HETATM   23  C   UNL     1      39.849  -9.357  14.022  1.00  0.00     0.144 A 
HETATM   24  C   UNL     1      41.789  -7.620  14.179  1.00  0.00     0.010 A 
HETATM   25  C   UNL     1      39.806 -10.593  13.116  1.00  0.00     0.226 A 
HETATM   26  O   UNL     1      38.888 -11.390  13.026  1.00  0.00    -0.273 OA
HETATM   27  C   UNL     1      43.048  -7.277  13.680  1.00  0.00     0.002 A 
HETATM   28  C   UNL     1      43.695  -8.084  12.721  1.00  0.00     0.019 A 
HETATM   29  H   UNL     1      41.236 -11.328  11.714  1.00  0.00     0.169 HD
ENDBRANCH   2  19
TORSDOF 5
ENDMDL
MODEL 3
REMARK VINA RESULT:      -8.8      5.373      8.325
REMARK  5 active torsions:
REMARK  status: ('A' for Active; 'I' for Inactive)
REMARK    1  A    between atoms: C_3  and  O_4 
REMARK    2  A    between atoms: O_4  and  C_5 
REMARK    3  A    between atoms: C_5  and  C_6 
REMARK    4  A    between atoms: C_13  and  N_14 
REMARK       I    between atoms: N_14  and  C_15 
REMARK    5  A    between atoms: C_15  and  C_16 
ROOT
HETATM    1  N   UNL     1      39.725 -14.494   1.494  1.00  0.00    -0.323 N 
HETATM    2  C   UNL     1      40.146 -13.703   0.440  1.00  0.00     0.258 C 
HETATM    3  O   UNL     1      41.105 -12.939   0.442  1.00  0.00    -0.267 OA
HETATM    4  H   UNL     1      39.014 -15.185   1.301  1.00  0.00     0.169 HD
ENDROOT
BRANCH   1   5
HETATM    5  C   UNL     1      40.237 -14.511   2.812  1.00  0.00     0.037 A 
HETATM    6  C   UNL     1      41.088 -15.498   3.313  1.00  0.00     0.066 A 
HETATM    7  C   UNL     1      41.560 -15.442   4.632  1.00  0.00     0.071 A 
HETATM    8  C   UNL     1      41.188 -14.377   5.452  1.00  0.00     0.037 A 
HETATM    9  C   UNL     1      40.340 -13.385   4.961  1.00  0.00     0.005 A 
HETATM   10  C   UNL     1      39.866 -13.453   3.650  1.00  0.00     0.029 A 
BRANCH   7  11
HETATM   11  O   UNL     1      42.374 -16.482   4.990  1.00  0.00    -0.347 OA
BRANCH  11  12
HETATM   12  C   UNL     1      43.570 -16.670   4.234  1.00  0.00     0.215 C 
BRANCH  12  13
HETATM   13  C   UNL     1      43.677 -18.114   3.831  1.00  0.00    -0.017 A 
HETATM   14  C   UNL     1      44.048 -19.092   4.748  1.00  0.00     0.125 A 
HETATM   15  N   UNL     1      44.117 -20.414   4.468  1.00  0.00    -0.272 NA
HETATM   16  C   UNL     1      43.802 -20.782   3.207  1.00  0.00     0.116 A 
HETATM   17  C   UNL     1      43.415 -19.893   2.219  1.00  0.00     0.020 A 
HETATM   18  C   UNL     1      43.348 -18.541   2.540  1.00  0.00     0.012 A 
ENDBRANCH  12  13
ENDBRANCH  11  12
ENDBRANCH   7  11
ENDBRANCH   1   5
BRANCH   2  19
HETATM   19  C   UNL     1      39.361 -13.850  -0.821  1.00  0.00     0.059 A 
HETATM   20  C   UNL     1      38.532 -12.823  -1.255  1.00  0.00     0.057 A 
HETATM   21  C   UNL     1      37.793 -12.908  -2.435  1.00  0.00    -0.022 A 
HETATM   22  N   UNL     1      38.285 -11.594  -0.654  1.00  0.00    -0.325 N 
HETATM   23  C   UNL     1      37.005 -11.645  -2.628  1.00  0.00     0.144 A 
HETATM   24  C   UNL     1      37.843 -14.042  -3.226  1.00  0.00     0.010 A 
HETATM   25  C   UNL     1      37.385 -10.832  -1.386  1.00  0.00     0.226 A 
HETATM   26  O   UNL     1      36.974  -9.722  -1.095  1.00  0.00    -0.273 OA
HETATM   27  C   UNL     1      38.647 -15.103  -2.798  1.00  0.00     0.002 A 
HETATM   28  C   UNL     1      39.395 -15.014  -1.606  1.00  0.00     0.019 A 
HETATM   29  H   UNL     1      38.675 -11.320   0.243  1.00  0.00     0.169 HD
ENDBRANCH   2  19
TORSDOF 5
ENDMDL
MODEL 4
REMARK VINA RESULT:      -8.6      2.338      9.699
REMARK  5 active torsions:
REMARK  status: ('A' for Active; 'I' for Inactive)
REMARK    1  A    between atoms: C_3  and  O_4 
REMARK    2  A    between atoms: O_4  and  C_5 
REMARK    3  A    between atoms: C_5  and  C_6 
REMARK    4  A    between atoms: C_13  and  N_14 
REMARK       I    between atoms: N_14  and  C_15 
REMARK    5  A    between atoms: C_15  and  C_16 
ROOT
HETATM    1  N   UNL     1      44.503 -12.729   6.951  1.00  0.00    -0.323 N 
HETATM    2  C   UNL     1      43.313 -13.140   6.376  1.00  0.00     0.258 C 
HETATM    3  O   UNL     1      42.304 -12.459   6.227  1.00  0.00    -0.267 OA
HETATM    4  H   UNL     1      45.296 -13.349   6.869  1.00  0.00     0.169 HD
ENDROOT
BRANCH   1   5
HETATM    5  C   UNL     1      44.771 -11.491   7.576  1.00  0.00     0.037 A 
HETATM    6  C   UNL     1      43.947 -10.900   8.537  1.00  0.00     0.066 A 
HETATM    7  C   UNL     1      44.285  -9.670   9.120  1.00  0.00     0.071 A 
HETATM    8  C   UNL     1      45.467  -9.033   8.747  1.00  0.00     0.037 A 
HETATM    9  C   UNL     1      46.298  -9.615   7.789  1.00  0.00     0.005 A 
HETATM   10  C   UNL     1      45.951 -10.834   7.207  1.00  0.00     0.029 A 
BRANCH   7  11
HETATM   11  O   UNL     1      43.379  -9.205  10.034  1.00  0.00    -0.347 OA
BRANCH  11  12
HETATM   12  C   UNL     1      43.017 -10.079  11.102  1.00  0.00     0.215 C 
BRANCH  12  13
HETATM   13  C   UNL     1      42.692  -9.261  12.321  1.00  0.00    -0.017 A 
HETATM   14  C   UNL     1      41.684  -9.647  13.198  1.00  0.00     0.125 A 
HETATM   15  N   UNL     1      41.370  -8.987  14.337  1.00  0.00    -0.272 NA
HETATM   16  C   UNL     1      42.097  -7.884  14.617  1.00  0.00     0.116 A 
HETATM   17  C   UNL     1      43.125  -7.416  13.817  1.00  0.00     0.020 A 
HETATM   18  C   UNL     1      43.428  -8.119  12.655  1.00  0.00     0.012 A 
ENDBRANCH  12  13
ENDBRANCH  11  12
ENDBRANCH   7  11
ENDBRANCH   1   5
BRANCH   2  19
HETATM   19  C   UNL     1      43.305 -14.539   5.858  1.00  0.00     0.059 A 
HETATM   20  C   UNL     1      42.439 -14.904   4.836  1.00  0.00     0.057 A 
HETATM   21  C   UNL     1      42.407 -16.195   4.308  1.00  0.00    -0.022 A 
HETATM   22  N   UNL     1      41.496 -14.123   4.176  1.00  0.00    -0.325 N 
HETATM   23  C   UNL     1      41.374 -16.269   3.221  1.00  0.00     0.144 A 
HETATM   24  C   UNL     1      43.239 -17.185   4.798  1.00  0.00     0.010 A 
HETATM   25  C   UNL     1      40.808 -14.845   3.212  1.00  0.00     0.226 A 
HETATM   26  O   UNL     1      39.919 -14.426   2.491  1.00  0.00    -0.273 OA
HETATM   27  C   UNL     1      44.102 -16.854   5.847  1.00  0.00     0.002 A 
HETATM   28  C   UNL     1      44.133 -15.548   6.378  1.00  0.00     0.019 A 
HETATM   29  H   UNL     1      41.301 -13.156   4.419  1.00  0.00     0.169 HD
ENDBRANCH   2  19
TORSDOF 5
ENDMDL
MODEL 5
REMARK VINA RESULT:      -8.6      2.289      9.703
REMARK  5 active torsions:
REMARK  status: ('A' for Active; 'I' for Inactive)
REMARK    1  A    between atoms: C_3  and  O_4 
REMARK    2  A    between atoms: O_4  and  C_5 
REMARK    3  A    between atoms: C_5  and  C_6 
REMARK    4  A    between atoms: C_13  and  N_14 
REMARK       I    between atoms: N_14  and  C_15 
REMARK    5  A    between atoms: C_15  and  C_16 
ROOT
HETATM    1  N   UNL     1      43.503 -12.669   5.688  1.00  0.00    -0.323 N 
HETATM    2  C   UNL     1      43.284 -14.034   5.750  1.00  0.00     0.258 C 
HETATM    3  O   UNL     1      43.518 -14.765   6.706  1.00  0.00    -0.267 OA
HETATM    4  H   UNL     1      43.123 -12.174   4.894  1.00  0.00     0.169 HD
ENDROOT
BRANCH   1   5
HETATM    5  C   UNL     1      44.135 -11.857   6.656  1.00  0.00     0.037 A 
HETATM    6  C   UNL     1      43.490 -11.311   7.768  1.00  0.00     0.066 A 
HETATM    7  C   UNL     1      44.187 -10.520   8.691  1.00  0.00     0.071 A 
HETATM    8  C   UNL     1      45.550 -10.286   8.507  1.00  0.00     0.037 A 
HETATM    9  C   UNL     1      46.204 -10.828   7.401  1.00  0.00     0.005 A 
HETATM   10  C   UNL     1      45.501 -11.606   6.482  1.00  0.00     0.029 A 
BRANCH   7  11
HETATM   11  O   UNL     1      43.425 -10.041   9.721  1.00  0.00    -0.347 OA
BRANCH  11  12
HETATM   12  C   UNL     1      43.691 -10.551  11.027  1.00  0.00     0.215 C 
BRANCH  12  13
HETATM   13  C   UNL     1      43.037  -9.661  12.048  1.00  0.00    -0.017 A 
HETATM   14  C   UNL     1      41.894 -10.067  12.728  1.00  0.00     0.125 A 
HETATM   15  N   UNL     1      41.282  -9.340  13.692  1.00  0.00    -0.272 NA
HETATM   16  C   UNL     1      41.836  -8.146  13.992  1.00  0.00     0.116 A 
HETATM   17  C   UNL     1      42.975  -7.649  13.381  1.00  0.00     0.020 A 
HETATM   18  C   UNL     1      43.585  -8.422  12.398  1.00  0.00     0.012 A 
ENDBRANCH  12  13
ENDBRANCH  11  12
ENDBRANCH   7  11
ENDBRANCH   1   5
BRANCH   2  19
HETATM   19  C   UNL     1      42.659 -14.635   4.535  1.00  0.00     0.059 A 
HETATM   20  C   UNL     1      43.005 -15.918   4.131  1.00  0.00     0.057 A 
HETATM   21  C   UNL     1      42.435 -16.528   3.012  1.00  0.00    -0.022 A 
HETATM   22  N   UNL     1      43.918 -16.794   4.707  1.00  0.00    -0.325 N 
HETATM   23  C   UNL     1      43.010 -17.904   2.842  1.00  0.00     0.144 A 
HETATM   24  C   UNL     1      41.499 -15.865   2.240  1.00  0.00     0.010 A 
HETATM   25  C   UNL     1      44.000 -17.990   4.009  1.00  0.00     0.226 A 
HETATM   26  O   UNL     1      44.723 -18.935   4.275  1.00  0.00    -0.273 OA
HETATM   27  C   UNL     1      41.153 -14.562   2.608  1.00  0.00     0.002 A 
HETATM   28  C   UNL     1      41.728 -13.948   3.739  1.00  0.00     0.019 A 
HETATM   29  H   UNL     1      44.494 -16.555   5.508  1.00  0.00     0.169 HD
ENDBRANCH   2  19
TORSDOF 5
ENDMDL
MODEL 6
REMARK VINA RESULT:      -8.5      4.761      8.609
REMARK  5 active torsions:
REMARK  status: ('A' for Active; 'I' for Inactive)
REMARK    1  A    between atoms: C_3  and  O_4 
REMARK    2  A    between atoms: O_4  and  C_5 
REMARK    3  A    between atoms: C_5  and  C_6 
REMARK    4  A    between atoms: C_13  and  N_14 
REMARK       I    between atoms: N_14  and  C_15 
REMARK    5  A    between atoms: C_15  and  C_16 
ROOT
HETATM    1  N   UNL     1      42.360 -14.888   3.713  1.00  0.00    -0.323 N 
HETATM    2  C   UNL     1      43.087 -15.938   3.180  1.00  0.00     0.258 C 
HETATM    3  O   UNL     1      43.573 -15.988   2.055  1.00  0.00    -0.267 OA
HETATM    4  H   UNL     1      42.153 -14.921   4.702  1.00  0.00     0.169 HD
ENDROOT
BRANCH   1   5
HETATM    5  C   UNL     1      41.934 -13.715   3.051  1.00  0.00     0.037 A 
HETATM    6  C   UNL     1      40.714 -13.586   2.384  1.00  0.00     0.066 A 
HETATM    7  C   UNL     1      40.358 -12.385   1.755  1.00  0.00     0.071 A 
HETATM    8  C   UNL     1      41.227 -11.296   1.808  1.00  0.00     0.037 A 
HETATM    9  C   UNL     1      42.448 -11.413   2.473  1.00  0.00     0.005 A 
HETATM   10  C   UNL     1      42.800 -12.615   3.088  1.00  0.00     0.029 A 
BRANCH   7  11
HETATM   11  O   UNL     1      39.141 -12.408   1.130  1.00  0.00    -0.347 OA
BRANCH  11  12
HETATM   12  C   UNL     1      39.035 -11.736  -0.124  1.00  0.00     0.215 C 
BRANCH  12  13
HETATM   13  C   UNL     1      38.784 -12.749  -1.207  1.00  0.00    -0.017 A 
HETATM   14  C   UNL     1      37.596 -12.749  -1.931  1.00  0.00     0.125 A 
HETATM   15  N   UNL     1      37.324 -13.598  -2.949  1.00  0.00    -0.272 NA
HETATM   16  C   UNL     1      38.283 -14.495  -3.262  1.00  0.00     0.116 A 
HETATM   17  C   UNL     1      39.502 -14.578  -2.610  1.00  0.00     0.020 A 
HETATM   18  C   UNL     1      39.755 -13.688  -1.572  1.00  0.00     0.012 A 
ENDBRANCH  12  13
ENDBRANCH  11  12
ENDBRANCH   7  11
ENDBRANCH   1   5
BRANCH   2  19
HETATM   19  C   UNL     1      43.324 -17.084   4.105  1.00  0.00     0.059 A 
HETATM   20  C   UNL     1      43.468 -18.372   3.603  1.00  0.00     0.057 A 
HETATM   21  C   UNL     1      43.707 -19.472   4.427  1.00  0.00    -0.022 A 
HETATM   22  N   UNL     1      43.407 -18.801   2.282  1.00  0.00    -0.325 N 
HETATM   23  C   UNL     1      43.816 -20.713   3.589  1.00  0.00     0.144 A 
HETATM   24  C   UNL     1      43.798 -19.327   5.799  1.00  0.00     0.010 A 
HETATM   25  C   UNL     1      43.590 -20.172   2.174  1.00  0.00     0.226 A 
HETATM   26  O   UNL     1      43.574 -20.825   1.145  1.00  0.00    -0.273 OA
HETATM   27  C   UNL     1      43.629 -18.047   6.334  1.00  0.00     0.002 A 
HETATM   28  C   UNL     1      43.389 -16.936   5.500  1.00  0.00     0.019 A 
HETATM   29  H   UNL     1      43.196 -18.185   1.502  1.00  0.00     0.169 HD
ENDBRANCH   2  19
TORSDOF 5
ENDMDL
MODEL 7
REMARK VINA RESULT:      -8.4      1.556      1.937
REMARK  5 active torsions:
REMARK  status: ('A' for Active; 'I' for Inactive)
REMARK    1  A    between atoms: C_3  and  O_4 
REMARK    2  A    between atoms: O_4  and  C_5 
REMARK    3  A    between atoms: C_5  and  C_6 
REMARK    4  A    between atoms: C_13  and  N_14 
REMARK       I    between atoms: N_14  and  C_15 
REMARK    5  A    between atoms: C_15  and  C_16 
ROOT
HETATM    1  N   UNL     1      43.548 -12.570   4.782  1.00  0.00    -0.323 N 
HETATM    2  C   UNL     1      43.005 -12.040   5.939  1.00  0.00     0.258 C 
HETATM    3  O   UNL     1      41.844 -12.152   6.315  1.00  0.00    -0.267 OA
HETATM    4  H   UNL     1      44.551 -12.526   4.677  1.00  0.00     0.169 HD
ENDROOT
BRANCH   1   5
HETATM    5  C   UNL     1      42.866 -13.251   3.748  1.00  0.00     0.037 A 
HETATM    6  C   UNL     1      42.828 -14.640   3.611  1.00  0.00     0.066 A 
HETATM    7  C   UNL     1      42.123 -15.243   2.561  1.00  0.00     0.071 A 
HETATM    8  C   UNL     1      41.433 -14.447   1.647  1.00  0.00     0.037 A 
HETATM    9  C   UNL     1      41.462 -13.058   1.776  1.00  0.00     0.005 A 
HETATM   10  C   UNL     1      42.175 -12.465   2.818  1.00  0.00     0.029 A 
BRANCH   7  11
HETATM   11  O   UNL     1      42.185 -16.610   2.544  1.00  0.00    -0.347 OA
BRANCH  11  12
HETATM   12  C   UNL     1      43.423 -17.205   2.160  1.00  0.00     0.215 C 
BRANCH  12  13
HETATM   13  C   UNL     1      43.596 -18.504   2.898  1.00  0.00    -0.017 A 
HETATM   14  C   UNL     1      43.457 -19.725   2.246  1.00  0.00     0.125 A 
HETATM   15  N   UNL     1      43.646 -20.929   2.835  1.00  0.00    -0.272 NA
HETATM   16  C   UNL     1      43.989 -20.917   4.141  1.00  0.00     0.116 A 
HETATM   17  C   UNL     1      44.160 -19.760   4.882  1.00  0.00     0.020 A 
HETATM   18  C   UNL     1      43.964 -18.538   4.247  1.00  0.00     0.012 A 
ENDBRANCH  12  13
ENDBRANCH  11  12
ENDBRANCH   7  11
ENDBRANCH   1   5
BRANCH   2  19
HETATM   19  C   UNL     1      43.964 -11.304   6.814  1.00  0.00     0.059 A 
HETATM   20  C   UNL     1      43.497 -10.441   7.797  1.00  0.00     0.057 A 
HETATM   21  C   UNL     1      44.355  -9.744   8.649  1.00  0.00    -0.022 A 
HETATM   22  N   UNL     1      42.183 -10.115   8.113  1.00  0.00    -0.325 N 
HETATM   23  C   UNL     1      43.549  -8.903   9.596  1.00  0.00     0.144 A 
HETATM   24  C   UNL     1      45.727  -9.875   8.539  1.00  0.00     0.010 A 
HETATM   25  C   UNL     1      42.112  -9.204   9.157  1.00  0.00     0.226 A 
HETATM   26  O   UNL     1      41.096  -8.730   9.636  1.00  0.00    -0.273 OA
HETATM   27  C   UNL     1      46.226 -10.715   7.540  1.00  0.00     0.002 A 
HETATM   28  C   UNL     1      45.358 -11.418   6.680  1.00  0.00     0.019 A 
HETATM   29  H   UNL     1      41.380 -10.462   7.597  1.00  0.00     0.169 HD
ENDBRANCH   2  19
TORSDOF 5
ENDMDL
MODEL 8
REMARK VINA RESULT:      -8.4      5.883      9.501
REMARK  5 active torsions:
REMARK  status: ('A' for Active; 'I' for Inactive)
REMARK    1  A    between atoms: C_3  and  O_4 
REMARK    2  A    between atoms: O_4  and  C_5 
REMARK    3  A    between atoms: C_5  and  C_6 
REMARK    4  A    between atoms: C_13  and  N_14 
REMARK       I    between atoms: N_14  and  C_15 
REMARK    5  A    between atoms: C_15  and  C_16 
ROOT
HETATM    1  N   UNL     1      41.622 -14.995   2.165  1.00  0.00    -0.323 N 
HETATM    2  C   UNL     1      42.798 -15.724   2.128  1.00  0.00     0.258 C 
HETATM    3  O   UNL     1      43.559 -15.828   1.173  1.00  0.00    -0.267 OA
HETATM    4  H   UNL     1      41.177 -14.878   3.064  1.00  0.00     0.169 HD
ENDROOT
BRANCH   1   5
HETATM    5  C   UNL     1      41.001 -14.315   1.094  1.00  0.00     0.037 A 
HETATM    6  C   UNL     1      41.186 -12.960   0.809  1.00  0.00     0.066 A 
HETATM    7  C   UNL     1      40.539 -12.356  -0.278  1.00  0.00     0.071 A 
HETATM    8  C   UNL     1      39.711 -13.121  -1.099  1.00  0.00     0.037 A 
HETATM    9  C   UNL     1      39.521 -14.475  -0.825  1.00  0.00     0.005 A 
HETATM   10  C   UNL     1      40.160 -15.067   0.265  1.00  0.00     0.029 A 
BRANCH   7  11
HETATM   11  O   UNL     1      40.802 -11.021  -0.428  1.00  0.00    -0.347 OA
BRANCH  11  12
HETATM   12  C   UNL     1      40.290 -10.378  -1.593  1.00  0.00     0.215 C 
BRANCH  12  13
HETATM   13  C   UNL     1      41.262  -9.322  -2.042  1.00  0.00    -0.017 A 
HETATM   14  C   UNL     1      41.116  -8.687  -3.271  1.00  0.00     0.125 A 
HETATM   15  N   UNL     1      41.923  -7.696  -3.717  1.00  0.00    -0.272 NA
HETATM   16  C   UNL     1      42.929  -7.320  -2.898  1.00  0.00     0.116 A 
HETATM   17  C   UNL     1      43.160  -7.881  -1.655  1.00  0.00     0.020 A 
HETATM   18  C   UNL     1      42.310  -8.893  -1.221  1.00  0.00     0.012 A 
ENDBRANCH  12  13
ENDBRANCH  11  12
ENDBRANCH   7  11
ENDBRANCH   1   5
BRANCH   2  19
HETATM   19  C   UNL     1      43.169 -16.401   3.405  1.00  0.00     0.059 A 
HETATM   20  C   UNL     1      43.455 -17.760   3.422  1.00  0.00     0.057 A 
HETATM   21  C   UNL     1      43.822 -18.433   4.588  1.00  0.00    -0.022 A 
HETATM   22  N   UNL     1      43.436 -18.664   2.365  1.00  0.00    -0.325 N 
HETATM   23  C   UNL     1      44.067 -19.881   4.278  1.00  0.00     0.144 A 
HETATM   24  C   UNL     1      43.904 -17.767   5.797  1.00  0.00     0.010 A 
HETATM   25  C   UNL     1      43.773 -19.946   2.775  1.00  0.00     0.226 A 
HETATM   26  O   UNL     1      43.826 -20.940   2.071  1.00  0.00    -0.273 OA
HETATM   27  C   UNL     1      43.594 -16.404   5.816  1.00  0.00     0.002 A 
HETATM   28  C   UNL     1      43.224 -15.726   4.636  1.00  0.00     0.019 A 
HETATM   29  H   UNL     1      43.151 -18.418   1.422  1.00  0.00     0.169 HD
ENDBRANCH   2  19
TORSDOF 5
ENDMDL
MODEL 9
REMARK VINA RESULT:      -8.3      2.180      9.180
REMARK  5 active torsions:
REMARK  status: ('A' for Active; 'I' for Inactive)
REMARK    1  A    between atoms: C_3  and  O_4 
REMARK    2  A    between atoms: O_4  and  C_5 
REMARK    3  A    between atoms: C_5  and  C_6 
REMARK    4  A    between atoms: C_13  and  N_14 
REMARK       I    between atoms: N_14  and  C_15 
REMARK    5  A    between atoms: C_15  and  C_16 
ROOT
HETATM    1  N   UNL     1      43.236 -13.519   4.970  1.00  0.00    -0.323 N 
HETATM    2  C   UNL     1      42.812 -14.819   5.181  1.00  0.00     0.258 C 
HETATM    3  O   UNL     1      42.236 -15.243   6.177  1.00  0.00    -0.267 OA
HETATM    4  H   UNL     1      43.559 -13.281   4.043  1.00  0.00     0.169 HD
ENDROOT
BRANCH   1   5
HETATM    5  C   UNL     1      43.194 -12.443   5.885  1.00  0.00     0.037 A 
HETATM    6  C   UNL     1      44.035 -12.319   6.993  1.00  0.00     0.066 A 
HETATM    7  C   UNL     1      43.937 -11.216   7.853  1.00  0.00     0.071 A 
HETATM    8  C   UNL     1      42.998 -10.220   7.592  1.00  0.00     0.037 A 
HETATM    9  C   UNL     1      42.153 -10.333   6.487  1.00  0.00     0.005 A 
HETATM   10  C   UNL     1      42.250 -11.438   5.641  1.00  0.00     0.029 A 
BRANCH   7  11
HETATM   11  O   UNL     1      44.815 -11.234   8.903  1.00  0.00    -0.347 OA
BRANCH  11  12
HETATM   12  C   UNL     1      45.162  -9.981   9.489  1.00  0.00     0.215 C 
BRANCH  12  13
HETATM   13  C   UNL     1      44.273  -9.728  10.676  1.00  0.00    -0.017 A 
HETATM   14  C   UNL     1      43.806  -8.450  10.965  1.00  0.00     0.125 A 
HETATM   15  N   UNL     1      42.967  -8.157  11.985  1.00  0.00    -0.272 NA
HETATM   16  C   UNL     1      42.573  -9.191  12.760  1.00  0.00     0.116 A 
HETATM   17  C   UNL     1      42.972 -10.501  12.557  1.00  0.00     0.020 A 
HETATM   18  C   UNL     1      43.831 -10.771  11.497  1.00  0.00     0.012 A 
ENDBRANCH  12  13
ENDBRANCH  11  12
ENDBRANCH   7  11
ENDBRANCH   1   5
BRANCH   2  19
HETATM   19  C   UNL     1      43.056 -15.761   4.050  1.00  0.00     0.059 A 
HETATM   20  C   UNL     1      43.316 -17.103   4.297  1.00  0.00     0.057 A 
HETATM   21  C   UNL     1      43.533 -18.024   3.272  1.00  0.00    -0.022 A 
HETATM   22  N   UNL     1      43.409 -17.758   5.521  1.00  0.00    -0.325 N 
HETATM   23  C   UNL     1      43.783 -19.382   3.860  1.00  0.00     0.144 A 
HETATM   24  C   UNL     1      43.512 -17.630   1.946  1.00  0.00     0.010 A 
HETATM   25  C   UNL     1      43.693 -19.107   5.365  1.00  0.00     0.226 A 
HETATM   26  O   UNL     1      43.844 -19.922   6.259  1.00  0.00    -0.273 OA
HETATM   27  C   UNL     1      43.281 -16.280   1.668  1.00  0.00     0.002 A 
HETATM   28  C   UNL     1      43.060 -15.351   2.706  1.00  0.00     0.019 A 
HETATM   29  H   UNL     1      43.334 -17.285   6.416  1.00  0.00     0.169 HD
ENDBRANCH   2  19
TORSDOF 5
ENDMDL
MODEL 10
REMARK VINA RESULT:      -8.2      4.909      7.803
REMARK  5 active torsions:
REMARK  status: ('A' for Active; 'I' for Inactive)
REMARK    1  A    between atoms: C_3  and  O_4 
REMARK    2  A    between atoms: O_4  and  C_5 
REMARK    3  A    between atoms: C_5  and  C_6 
REMARK    4  A    between atoms: C_13  and  N_14 
REMARK       I    between atoms: N_14  and  C_15 
REMARK    5  A    between atoms: C_15  and  C_16 
ROOT
HETATM    1  N   UNL     1      39.897 -13.369   2.652  1.00  0.00    -0.323 N 
HETATM    2  C   UNL     1      40.309 -12.419   1.734  1.00  0.00     0.258 C 
HETATM    3  O   UNL     1      41.421 -11.907   1.669  1.00  0.00    -0.267 OA
HETATM    4  H   UNL     1      39.003 -13.812   2.492  1.00  0.00     0.169 HD
ENDROOT
BRANCH   1   5
HETATM    5  C   UNL     1      40.621 -13.863   3.760  1.00  0.00     0.037 A 
HETATM    6  C   UNL     1      41.641 -14.814   3.674  1.00  0.00     0.066 A 
HETATM    7  C   UNL     1      42.320 -15.250   4.819  1.00  0.00     0.071 A 
HETATM    8  C   UNL     1      41.986 -14.716   6.063  1.00  0.00     0.037 A 
HETATM    9  C   UNL     1      40.971 -13.764   6.161  1.00  0.00     0.005 A 
HETATM   10  C   UNL     1      40.292 -13.343   5.017  1.00  0.00     0.029 A 
BRANCH   7  11
HETATM   11  O   UNL     1      43.284 -16.193   4.586  1.00  0.00    -0.347 OA
BRANCH  11  12
HETATM   12  C   UNL     1      43.423 -16.673   3.250  1.00  0.00     0.215 C 
BRANCH  12  13
HETATM   13  C   UNL     1      43.593 -18.166   3.276  1.00  0.00    -0.017 A 
HETATM   14  C   UNL     1      44.059 -18.817   4.414  1.00  0.00     0.125 A 
HETATM   15  N   UNL     1      44.191 -20.159   4.525  1.00  0.00    -0.272 NA
HETATM   16  C   UNL     1      43.843 -20.892   3.445  1.00  0.00     0.116 A 
HETATM   17  C   UNL     1      43.363 -20.348   2.267  1.00  0.00     0.020 A 
HETATM   18  C   UNL     1      43.233 -18.965   2.185  1.00  0.00     0.012 A 
ENDBRANCH  12  13
ENDBRANCH  11  12
ENDBRANCH   7  11
ENDBRANCH   1   5
BRANCH   2  19
HETATM   19  C   UNL     1      39.292 -12.038   0.711  1.00  0.00     0.059 A 
HETATM   20  C   UNL     1      39.479 -12.374  -0.624  1.00  0.00     0.057 A 
HETATM   21  C   UNL     1      38.549 -12.054  -1.613  1.00  0.00    -0.022 A 
HETATM   22  N   UNL     1      40.547 -13.047  -1.209  1.00  0.00    -0.325 N 
HETATM   23  C   UNL     1      39.036 -12.554  -2.942  1.00  0.00     0.144 A 
HETATM   24  C   UNL     1      37.391 -11.365  -1.303  1.00  0.00     0.010 A 
HETATM   25  C   UNL     1      40.381 -13.190  -2.578  1.00  0.00     0.226 A 
HETATM   26  O   UNL     1      41.160 -13.724  -3.349  1.00  0.00    -0.273 OA
HETATM   27  C   UNL     1      37.189 -10.988   0.027  1.00  0.00     0.002 A 
HETATM   28  C   UNL     1      38.130 -11.314   1.026  1.00  0.00     0.019 A 
HETATM   29  H   UNL     1      41.373 -13.341  -0.695  1.00  0.00     0.169 HD
ENDBRANCH   2  19
TORSDOF 5
ENDMDL
