MODEL 1
REMARK VINA RESULT:      -9.0      0.000      0.000
REMARK  3 active torsions:
REMARK  status: ('A' for Active; 'I' for Inactive)
REMARK    1  A    between atoms: C_3  and  N_4 
REMARK       I    between atoms: N_4  and  C_5 
REMARK    2  A    between atoms: C_5  and  C_6 
REMARK    3  A    between atoms: C_6  and  N_7 
ROOT
HETATM    1  N   UNL     1      42.259 -14.297   5.330  1.00  0.00    -0.367 N 
HETATM    2  C   UNL     1      42.155 -14.903   4.162  1.00  0.00     0.108 C 
HETATM    3  C   UNL     1      42.799 -16.226   3.962  1.00  0.00     0.014 A 
HETATM    4  C   UNL     1      43.016 -16.687   2.648  1.00  0.00    -0.042 A 
HETATM    5  C   UNL     1      43.630 -17.924   2.418  1.00  0.00     0.008 A 
HETATM    6  C   UNL     1      43.998 -18.729   3.491  1.00  0.00     0.001 A 
HETATM    7  C   UNL     1      43.759 -18.304   4.794  1.00  0.00     0.001 A 
HETATM    8  C   UNL     1      43.164 -17.063   5.031  1.00  0.00     0.016 A 
HETATM    9  C   UNL     1      42.602 -15.811   1.493  1.00  0.00     0.069 C 
HETATM   10  C   UNL     1      41.331 -15.005   1.824  1.00  0.00     0.028 C 
HETATM   11  C   UNL     1      41.151 -13.882   0.797  1.00  0.00     0.038 C 
HETATM   12  C   UNL     1      40.071 -15.878   1.857  1.00  0.00     0.038 C 
HETATM   13  N   UNL     1      41.471 -14.362   3.160  1.00  0.00    -0.367 N 
HETATM   14  H   UNL     1      41.048 -13.456   3.290  1.00  0.00     0.162 HD
HETATM   15  H   UNL     1      42.929 -14.676   6.000  1.00  0.00     0.161 HD
ENDROOT
BRANCH   1  16
HETATM   16  C   UNL     1      41.584 -13.061   5.754  1.00  0.00     0.224 C 
BRANCH  16  17
HETATM   17  C   UNL     1      42.662 -11.992   5.898  1.00  0.00     0.239 C 
HETATM   18  N   UNL     1      43.170 -11.865   7.177  1.00  0.00    -0.325 N 
HETATM   19  H   UNL     1      42.974 -12.597   7.848  1.00  0.00     0.169 HD
HETATM   20  O   UNL     1      43.061 -11.413   4.891  1.00  0.00    -0.271 OA
BRANCH  18  21
HETATM   21  C   UNL     1      44.076 -10.872   7.624  1.00  0.00     0.040 A 
HETATM   22  C   UNL     1      43.568  -9.664   8.149  1.00  0.00    -0.035 A 
HETATM   23  C   UNL     1      42.096  -9.411   8.339  1.00  0.00     0.050 C 
HETATM   24  C   UNL     1      44.464  -8.645   8.517  1.00  0.00     0.009 A 
HETATM   25  C   UNL     1      45.840  -8.819   8.383  1.00  0.00     0.001 A 
HETATM   26  C   UNL     1      46.338 -10.015   7.881  1.00  0.00     0.002 A 
HETATM   27  C   UNL     1      45.462 -11.036   7.505  1.00  0.00     0.030 A 
ENDBRANCH  18  21
ENDBRANCH  16  17
ENDBRANCH   1  16
TORSDOF 3
ENDMDL
MODEL 2
REMARK VINA RESULT:      -8.8      4.021      7.408
REMARK  3 active torsions:
REMARK  status: ('A' for Active; 'I' for Inactive)
REMARK    1  A    between atoms: C_3  and  N_4 
REMARK       I    between atoms: N_4  and  C_5 
REMARK    2  A    between atoms: C_5  and  C_6 
REMARK    3  A    between atoms: C_6  and  N_7 
ROOT
HETATM    1  N   UNL     1      42.272 -16.283   2.723  1.00  0.00    -0.367 N 
HETATM    2  C   UNL     1      42.811 -16.747   3.834  1.00  0.00     0.108 C 
HETATM    3  C   UNL     1      43.259 -18.162   3.896  1.00  0.00     0.014 A 
HETATM    4  C   UNL     1      43.473 -18.754   5.157  1.00  0.00    -0.042 A 
HETATM    5  C   UNL     1      43.885 -20.089   5.259  1.00  0.00     0.008 A 
HETATM    6  C   UNL     1      44.125 -20.832   4.107  1.00  0.00     0.001 A 
HETATM    7  C   UNL     1      43.952 -20.252   2.855  1.00  0.00     0.001 A 
HETATM    8  C   UNL     1      43.524 -18.927   2.747  1.00  0.00     0.016 A 
HETATM    9  C   UNL     1      43.222 -17.935   6.398  1.00  0.00     0.069 C 
HETATM   10  C   UNL     1      43.578 -16.452   6.175  1.00  0.00     0.028 C 
HETATM   11  C   UNL     1      42.982 -15.604   7.304  1.00  0.00     0.038 C 
HETATM   12  C   UNL     1      45.091 -16.215   6.099  1.00  0.00     0.038 C 
HETATM   13  N   UNL     1      42.980 -15.971   4.899  1.00  0.00    -0.367 N 
HETATM   14  H   UNL     1      42.660 -15.015   4.863  1.00  0.00     0.162 HD
HETATM   15  H   UNL     1      42.017 -16.960   2.004  1.00  0.00     0.161 HD
ENDROOT
BRANCH   1  16
HETATM   16  C   UNL     1      41.897 -14.891   2.430  1.00  0.00     0.224 C 
BRANCH  16  17
HETATM   17  C   UNL     1      40.723 -14.942   1.459  1.00  0.00     0.239 C 
HETATM   18  N   UNL     1      40.864 -14.128   0.351  1.00  0.00    -0.325 N 
HETATM   19  H   UNL     1      41.779 -13.747   0.148  1.00  0.00     0.169 HD
HETATM   20  O   UNL     1      39.815 -15.744   1.666  1.00  0.00    -0.271 OA
BRANCH  18  21
HETATM   21  C   UNL     1      39.881 -13.877  -0.637  1.00  0.00     0.040 A 
HETATM   22  C   UNL     1      39.057 -12.738  -0.513  1.00  0.00    -0.035 A 
HETATM   23  C   UNL     1      39.230 -11.719   0.582  1.00  0.00     0.050 C 
HETATM   24  C   UNL     1      38.026 -12.531  -1.447  1.00  0.00     0.009 A 
HETATM   25  C   UNL     1      37.820 -13.426  -2.495  1.00  0.00     0.001 A 
HETATM   26  C   UNL     1      38.643 -14.538  -2.624  1.00  0.00     0.002 A 
HETATM   27  C   UNL     1      39.668 -14.762  -1.702  1.00  0.00     0.030 A 
ENDBRANCH  18  21
ENDBRANCH  16  17
ENDBRANCH   1  16
TORSDOF 3
ENDMDL
MODEL 3
REMARK VINA RESULT:      -8.4      1.271      7.948
REMARK  3 active torsions:
REMARK  status: ('A' for Active; 'I' for Inactive)
REMARK    1  A    between atoms: C_3  and  N_4 
REMARK       I    between atoms: N_4  and  C_5 
REMARK    2  A    between atoms: C_5  and  C_6 
REMARK    3  A    between atoms: C_6  and  N_7 
ROOT
HETATM    1  N   UNL     1      42.879 -12.610   6.236  1.00  0.00    -0.367 N 
HETATM    2  C   UNL     1      42.751 -11.421   6.796  1.00  0.00     0.108 C 
HETATM    3  C   UNL     1      43.952 -10.729   7.328  1.00  0.00     0.014 A 
HETATM    4  C   UNL     1      43.779  -9.671   8.243  1.00  0.00    -0.042 A 
HETATM    5  C   UNL     1      44.887  -9.000   8.777  1.00  0.00     0.008 A 
HETATM    6  C   UNL     1      46.172  -9.351   8.375  1.00  0.00     0.001 A 
HETATM    7  C   UNL     1      46.358 -10.370   7.447  1.00  0.00     0.001 A 
HETATM    8  C   UNL     1      45.258 -11.055   6.925  1.00  0.00     0.016 A 
HETATM    9  C   UNL     1      42.381  -9.292   8.661  1.00  0.00     0.069 C 
HETATM   10  C   UNL     1      41.377  -9.482   7.507  1.00  0.00     0.028 C 
HETATM   11  C   UNL     1      39.947  -9.441   8.057  1.00  0.00     0.038 C 
HETATM   12  C   UNL     1      41.536  -8.424   6.409  1.00  0.00     0.038 C 
HETATM   13  N   UNL     1      41.570 -10.819   6.880  1.00  0.00    -0.367 N 
HETATM   14  H   UNL     1      40.752 -11.296   6.534  1.00  0.00     0.162 HD
HETATM   15  H   UNL     1      43.771 -13.091   6.348  1.00  0.00     0.161 HD
ENDROOT
BRANCH   1  16
HETATM   16  C   UNL     1      41.838 -13.381   5.539  1.00  0.00     0.224 C 
BRANCH  16  17
HETATM   17  C   UNL     1      42.553 -14.331   4.584  1.00  0.00     0.239 C 
HETATM   18  N   UNL     1      42.265 -15.666   4.787  1.00  0.00    -0.325 N 
HETATM   19  H   UNL     1      41.472 -15.904   5.370  1.00  0.00     0.169 HD
HETATM   20  O   UNL     1      43.228 -13.858   3.672  1.00  0.00    -0.271 OA
BRANCH  18  21
HETATM   21  C   UNL     1      42.882 -16.765   4.142  1.00  0.00     0.040 A 
HETATM   22  C   UNL     1      42.400 -17.182   2.882  1.00  0.00    -0.035 A 
HETATM   23  C   UNL     1      41.308 -16.456   2.144  1.00  0.00     0.050 C 
HETATM   24  C   UNL     1      42.957 -18.323   2.278  1.00  0.00     0.009 A 
HETATM   25  C   UNL     1      43.982 -19.034   2.899  1.00  0.00     0.001 A 
HETATM   26  C   UNL     1      44.466 -18.612   4.130  1.00  0.00     0.002 A 
HETATM   27  C   UNL     1      43.921 -17.484   4.748  1.00  0.00     0.030 A 
ENDBRANCH  18  21
ENDBRANCH  16  17
ENDBRANCH   1  16
TORSDOF 3
ENDMDL
MODEL 4
REMARK VINA RESULT:      -8.3      1.858      3.635
REMARK  3 active torsions:
REMARK  status: ('A' for Active; 'I' for Inactive)
REMARK    1  A    between atoms: C_3  and  N_4 
REMARK       I    between atoms: N_4  and  C_5 
REMARK    2  A    between atoms: C_5  and  C_6 
REMARK    3  A    between atoms: C_6  and  N_7 
ROOT
HETATM    1  N   UNL     1      40.071 -12.056   4.900  1.00  0.00    -0.367 N 
HETATM    2  C   UNL     1      40.501 -13.282   4.663  1.00  0.00     0.108 C 
HETATM    3  C   UNL     1      40.358 -13.858   3.302  1.00  0.00     0.014 A 
HETATM    4  C   UNL     1      40.457 -15.255   3.140  1.00  0.00    -0.042 A 
HETATM    5  C   UNL     1      40.316 -15.838   1.875  1.00  0.00     0.008 A 
HETATM    6  C   UNL     1      40.117 -15.035   0.756  1.00  0.00     0.001 A 
HETATM    7  C   UNL     1      40.053 -13.652   0.895  1.00  0.00     0.001 A 
HETATM    8  C   UNL     1      40.173 -13.066   2.157  1.00  0.00     0.016 A 
HETATM    9  C   UNL     1      40.684 -16.114   4.357  1.00  0.00     0.069 C 
HETATM   10  C   UNL     1      41.570 -15.397   5.395  1.00  0.00     0.028 C 
HETATM   11  C   UNL     1      41.483 -16.128   6.740  1.00  0.00     0.038 C 
HETATM   12  C   UNL     1      43.036 -15.305   4.954  1.00  0.00     0.038 C 
HETATM   13  N   UNL     1      41.076 -14.010   5.614  1.00  0.00    -0.367 N 
HETATM   14  H   UNL     1      41.157 -13.625   6.542  1.00  0.00     0.162 HD
HETATM   15  H   UNL     1      39.494 -11.613   4.186  1.00  0.00     0.161 HD
ENDROOT
BRANCH   1  16
HETATM   16  C   UNL     1      40.247 -11.276   6.134  1.00  0.00     0.224 C 
BRANCH  16  17
HETATM   17  C   UNL     1      41.656 -10.694   6.096  1.00  0.00     0.239 C 
HETATM   18  N   UNL     1      42.379 -10.877   7.259  1.00  0.00    -0.325 N 
HETATM   19  H   UNL     1      42.035 -11.542   7.940  1.00  0.00     0.169 HD
HETATM   20  O   UNL     1      42.071 -10.214   5.044  1.00  0.00    -0.271 OA
BRANCH  18  21
HETATM   21  C   UNL     1      43.652 -10.330   7.550  1.00  0.00     0.040 A 
HETATM   22  C   UNL     1      44.807 -11.097   7.285  1.00  0.00    -0.035 A 
HETATM   23  C   UNL     1      44.756 -12.448   6.622  1.00  0.00     0.050 C 
HETATM   24  C   UNL     1      46.067 -10.590   7.649  1.00  0.00     0.009 A 
HETATM   25  C   UNL     1      46.188  -9.339   8.252  1.00  0.00     0.001 A 
HETATM   26  C   UNL     1      45.051  -8.579   8.497  1.00  0.00     0.002 A 
HETATM   27  C   UNL     1      43.791  -9.070   8.147  1.00  0.00     0.030 A 
ENDBRANCH  18  21
ENDBRANCH  16  17
ENDBRANCH   1  16
TORSDOF 3
ENDMDL
MODEL 5
REMARK VINA RESULT:      -8.3      3.575      7.096
REMARK  3 active torsions:
REMARK  status: ('A' for Active; 'I' for Inactive)
REMARK    1  A    between atoms: C_3  and  N_4 
REMARK       I    between atoms: N_4  and  C_5 
REMARK    2  A    between atoms: C_5  and  C_6 
REMARK    3  A    between atoms: C_6  and  N_7 
ROOT
HETATM    1  N   UNL     1      40.754 -16.413   2.162  1.00  0.00    -0.367 N 
HETATM    2  C   UNL     1      41.396 -16.270   3.307  1.00  0.00     0.108 C 
HETATM    3  C   UNL     1      42.515 -17.187   3.640  1.00  0.00     0.014 A 
HETATM    4  C   UNL     1      42.939 -17.287   4.981  1.00  0.00    -0.042 A 
HETATM    5  C   UNL     1      43.983 -18.149   5.337  1.00  0.00     0.008 A 
HETATM    6  C   UNL     1      44.640 -18.888   4.358  1.00  0.00     0.001 A 
HETATM    7  C   UNL     1      44.257 -18.774   3.026  1.00  0.00     0.001 A 
HETATM    8  C   UNL     1      43.203 -17.931   2.667  1.00  0.00     0.016 A 
HETATM    9  C   UNL     1      42.227 -16.472   6.031  1.00  0.00     0.069 C 
HETATM   10  C   UNL     1      41.764 -15.112   5.470  1.00  0.00     0.028 C 
HETATM   11  C   UNL     1      40.750 -14.478   6.430  1.00  0.00     0.038 C 
HETATM   12  C   UNL     1      42.929 -14.143   5.239  1.00  0.00     0.038 C 
HETATM   13  N   UNL     1      41.073 -15.309   4.166  1.00  0.00    -0.367 N 
HETATM   14  H   UNL     1      40.302 -14.697   3.948  1.00  0.00     0.162 HD
HETATM   15  H   UNL     1      40.932 -17.262   1.625  1.00  0.00     0.161 HD
ENDROOT
BRANCH   1  16
HETATM   16  C   UNL     1      39.721 -15.527   1.605  1.00  0.00     0.224 C 
BRANCH  16  17
HETATM   17  C   UNL     1      40.438 -14.508   0.725  1.00  0.00     0.239 C 
HETATM   18  N   UNL     1      39.596 -13.627   0.073  1.00  0.00    -0.325 N 
HETATM   19  H   UNL     1      38.633 -13.567   0.377  1.00  0.00     0.169 HD
HETATM   20  O   UNL     1      41.666 -14.475   0.735  1.00  0.00    -0.271 OA
BRANCH  18  21
HETATM   21  C   UNL     1      39.974 -12.672  -0.901  1.00  0.00     0.040 A 
HETATM   22  C   UNL     1      39.950 -13.034  -2.266  1.00  0.00    -0.035 A 
HETATM   23  C   UNL     1      39.454 -14.372  -2.746  1.00  0.00     0.050 C 
HETATM   24  C   UNL     1      40.403 -12.115  -3.228  1.00  0.00     0.009 A 
HETATM   25  C   UNL     1      40.860 -10.853  -2.854  1.00  0.00     0.001 A 
HETATM   26  C   UNL     1      40.868 -10.493  -1.513  1.00  0.00     0.002 A 
HETATM   27  C   UNL     1      40.427 -11.395  -0.542  1.00  0.00     0.030 A 
ENDBRANCH  18  21
ENDBRANCH  16  17
ENDBRANCH   1  16
TORSDOF 3
ENDMDL
MODEL 6
REMARK VINA RESULT:      -8.2      1.209      2.856
REMARK  3 active torsions:
REMARK  status: ('A' for Active; 'I' for Inactive)
REMARK    1  A    between atoms: C_3  and  N_4 
REMARK       I    between atoms: N_4  and  C_5 
REMARK    2  A    between atoms: C_5  and  C_6 
REMARK    3  A    between atoms: C_6  and  N_7 
ROOT
HETATM    1  N   UNL     1      41.693 -13.128   4.142  1.00  0.00    -0.367 N 
HETATM    2  C   UNL     1      42.255 -14.245   4.566  1.00  0.00     0.108 C 
HETATM    3  C   UNL     1      42.644 -15.289   3.584  1.00  0.00     0.014 A 
HETATM    4  C   UNL     1      42.881 -16.601   4.042  1.00  0.00    -0.042 A 
HETATM    5  C   UNL     1      43.238 -17.616   3.146  1.00  0.00     0.008 A 
HETATM    6  C   UNL     1      43.401 -17.326   1.795  1.00  0.00     0.001 A 
HETATM    7  C   UNL     1      43.205 -16.029   1.333  1.00  0.00     0.001 A 
HETATM    8  C   UNL     1      42.830 -15.016   2.218  1.00  0.00     0.016 A 
HETATM    9  C   UNL     1      42.713 -16.900   5.510  1.00  0.00     0.069 C 
HETATM   10  C   UNL     1      43.124 -15.696   6.381  1.00  0.00     0.028 C 
HETATM   11  C   UNL     1      42.608 -15.895   7.811  1.00  0.00     0.038 C 
HETATM   12  C   UNL     1      44.641 -15.480   6.407  1.00  0.00     0.038 C 
HETATM   13  N   UNL     1      42.498 -14.452   5.856  1.00  0.00    -0.367 N 
HETATM   14  H   UNL     1      42.218 -13.750   6.524  1.00  0.00     0.162 HD
HETATM   15  H   UNL     1      41.382 -13.096   3.171  1.00  0.00     0.161 HD
ENDROOT
BRANCH   1  16
HETATM   16  C   UNL     1      41.367 -11.937   4.941  1.00  0.00     0.224 C 
BRANCH  16  17
HETATM   17  C   UNL     1      42.689 -11.257   5.284  1.00  0.00     0.239 C 
HETATM   18  N   UNL     1      43.006 -11.274   6.628  1.00  0.00    -0.325 N 
HETATM   19  H   UNL     1      42.491 -11.896   7.236  1.00  0.00     0.169 HD
HETATM   20  O   UNL     1      43.399 -10.847   4.369  1.00  0.00    -0.271 OA
BRANCH  18  21
HETATM   21  C   UNL     1      44.095 -10.606   7.241  1.00  0.00     0.040 A 
HETATM   22  C   UNL     1      43.862  -9.390   7.919  1.00  0.00    -0.035 A 
HETATM   23  C   UNL     1      42.487  -8.805   8.099  1.00  0.00     0.050 C 
HETATM   24  C   UNL     1      44.953  -8.685   8.457  1.00  0.00     0.009 A 
HETATM   25  C   UNL     1      46.251  -9.178   8.341  1.00  0.00     0.001 A 
HETATM   26  C   UNL     1      46.476 -10.382   7.687  1.00  0.00     0.002 A 
HETATM   27  C   UNL     1      45.404 -11.094   7.142  1.00  0.00     0.030 A 
ENDBRANCH  18  21
ENDBRANCH  16  17
ENDBRANCH   1  16
TORSDOF 3
ENDMDL
MODEL 7
REMARK VINA RESULT:      -8.0      2.287      7.360
REMARK  3 active torsions:
REMARK  status: ('A' for Active; 'I' for Inactive)
REMARK    1  A    between atoms: C_3  and  N_4 
REMARK       I    between atoms: N_4  and  C_5 
REMARK    2  A    between atoms: C_5  and  C_6 
REMARK    3  A    between atoms: C_6  and  N_7 
ROOT
HETATM    1  N   UNL     1      43.039 -13.790   3.001  1.00  0.00    -0.367 N 
HETATM    2  C   UNL     1      42.662 -13.777   4.266  1.00  0.00     0.108 C 
HETATM    3  C   UNL     1      43.386 -12.921   5.238  1.00  0.00     0.014 A 
HETATM    4  C   UNL     1      43.246 -13.184   6.616  1.00  0.00    -0.042 A 
HETATM    5  C   UNL     1      43.922 -12.407   7.564  1.00  0.00     0.008 A 
HETATM    6  C   UNL     1      44.710 -11.337   7.152  1.00  0.00     0.001 A 
HETATM    7  C   UNL     1      44.831 -11.042   5.798  1.00  0.00     0.001 A 
HETATM    8  C   UNL     1      44.175 -11.825   4.847  1.00  0.00     0.016 A 
HETATM    9  C   UNL     1      42.379 -14.339   7.050  1.00  0.00     0.069 C 
HETATM   10  C   UNL     1      41.176 -14.527   6.106  1.00  0.00     0.028 C 
HETATM   11  C   UNL     1      40.535 -15.897   6.355  1.00  0.00     0.038 C 
HETATM   12  C   UNL     1      40.120 -13.427   6.272  1.00  0.00     0.038 C 
HETATM   13  N   UNL     1      41.634 -14.504   4.689  1.00  0.00    -0.367 N 
HETATM   14  H   UNL     1      41.152 -15.099   4.032  1.00  0.00     0.162 HD
HETATM   15  H   UNL     1      43.928 -13.347   2.769  1.00  0.00     0.161 HD
ENDROOT
BRANCH   1  16
HETATM   16  C   UNL     1      42.366 -14.462   1.879  1.00  0.00     0.224 C 
BRANCH  16  17
HETATM   17  C   UNL     1      42.956 -15.865   1.783  1.00  0.00     0.239 C 
HETATM   18  N   UNL     1      42.501 -16.741   2.749  1.00  0.00    -0.325 N 
HETATM   19  H   UNL     1      41.684 -16.482   3.287  1.00  0.00     0.169 HD
HETATM   20  O   UNL     1      43.687 -16.138   0.834  1.00  0.00    -0.271 OA
BRANCH  18  21
HETATM   21  C   UNL     1      42.975 -18.056   2.980  1.00  0.00     0.040 A 
HETATM   22  C   UNL     1      43.716 -18.324   4.151  1.00  0.00    -0.035 A 
HETATM   23  C   UNL     1      43.956 -17.293   5.220  1.00  0.00     0.050 C 
HETATM   24  C   UNL     1      44.257 -19.608   4.341  1.00  0.00     0.009 A 
HETATM   25  C   UNL     1      44.059 -20.615   3.399  1.00  0.00     0.001 A 
HETATM   26  C   UNL     1      43.316 -20.353   2.256  1.00  0.00     0.002 A 
HETATM   27  C   UNL     1      42.775 -19.082   2.047  1.00  0.00     0.030 A 
ENDBRANCH  18  21
ENDBRANCH  16  17
ENDBRANCH   1  16
TORSDOF 3
ENDMDL
MODEL 8
REMARK VINA RESULT:      -7.9      1.748      7.654
REMARK  3 active torsions:
REMARK  status: ('A' for Active; 'I' for Inactive)
REMARK    1  A    between atoms: C_3  and  N_4 
REMARK       I    between atoms: N_4  and  C_5 
REMARK    2  A    between atoms: C_5  and  C_6 
REMARK    3  A    between atoms: C_6  and  N_7 
ROOT
HETATM    1  N   UNL     1      41.807 -11.981   6.471  1.00  0.00    -0.367 N 
HETATM    2  C   UNL     1      42.184 -10.864   7.065  1.00  0.00     0.108 C 
HETATM    3  C   UNL     1      43.626 -10.625   7.329  1.00  0.00     0.014 A 
HETATM    4  C   UNL     1      43.992  -9.647   8.276  1.00  0.00    -0.042 A 
HETATM    5  C   UNL     1      45.340  -9.399   8.561  1.00  0.00     0.008 A 
HETATM    6  C   UNL     1      46.335 -10.093   7.879  1.00  0.00     0.001 A 
HETATM    7  C   UNL     1      45.991 -11.036   6.916  1.00  0.00     0.001 A 
HETATM    8  C   UNL     1      44.647 -11.301   6.641  1.00  0.00     0.016 A 
HETATM    9  C   UNL     1      42.906  -8.893   8.999  1.00  0.00     0.069 C 
HETATM   10  C   UNL     1      41.679  -8.664   8.094  1.00  0.00     0.028 C 
HETATM   11  C   UNL     1      40.482  -8.231   8.948  1.00  0.00     0.038 C 
HETATM   12  C   UNL     1      41.940  -7.617   7.004  1.00  0.00     0.038 C 
HETATM   13  N   UNL     1      41.302  -9.936   7.418  1.00  0.00    -0.367 N 
HETATM   14  H   UNL     1      40.322 -10.106   7.254  1.00  0.00     0.162 HD
HETATM   15  H   UNL     1      42.502 -12.722   6.376  1.00  0.00     0.161 HD
ENDROOT
BRANCH   1  16
HETATM   16  C   UNL     1      40.455 -12.331   6.010  1.00  0.00     0.224 C 
BRANCH  16  17
HETATM   17  C   UNL     1      40.621 -13.257   4.810  1.00  0.00     0.239 C 
HETATM   18  N   UNL     1      41.732 -14.075   4.871  1.00  0.00    -0.325 N 
HETATM   19  H   UNL     1      42.214 -14.168   5.756  1.00  0.00     0.169 HD
HETATM   20  O   UNL     1      39.737 -13.285   3.956  1.00  0.00    -0.271 OA
BRANCH  18  21
HETATM   21  C   UNL     1      42.202 -14.930   3.844  1.00  0.00     0.040 A 
HETATM   22  C   UNL     1      43.041 -14.402   2.839  1.00  0.00    -0.035 A 
HETATM   23  C   UNL     1      43.537 -12.981   2.853  1.00  0.00     0.050 C 
HETATM   24  C   UNL     1      43.441 -15.229   1.775  1.00  0.00     0.009 A 
HETATM   25  C   UNL     1      43.032 -16.559   1.709  1.00  0.00     0.001 A 
HETATM   26  C   UNL     1      42.219 -17.081   2.707  1.00  0.00     0.002 A 
HETATM   27  C   UNL     1      41.808 -16.273   3.770  1.00  0.00     0.030 A 
ENDBRANCH  18  21
ENDBRANCH  16  17
ENDBRANCH   1  16
TORSDOF 3
ENDMDL
MODEL 9
REMARK VINA RESULT:      -7.8      3.299      7.294
REMARK  3 active torsions:
REMARK  status: ('A' for Active; 'I' for Inactive)
REMARK    1  A    between atoms: C_3  and  N_4 
REMARK       I    between atoms: N_4  and  C_5 
REMARK    2  A    between atoms: C_5  and  C_6 
REMARK    3  A    between atoms: C_6  and  N_7 
ROOT
HETATM    1  N   UNL     1      41.853 -14.309   6.552  1.00  0.00    -0.367 N 
HETATM    2  C   UNL     1      41.822 -13.544   5.477  1.00  0.00     0.108 C 
HETATM    3  C   UNL     1      40.749 -12.528   5.331  1.00  0.00     0.014 A 
HETATM    4  C   UNL     1      40.490 -11.989   4.055  1.00  0.00    -0.042 A 
HETATM    5  C   UNL     1      39.479 -11.037   3.873  1.00  0.00     0.008 A 
HETATM    6  C   UNL     1      38.745 -10.584   4.966  1.00  0.00     0.001 A 
HETATM    7  C   UNL     1      39.013 -11.080   6.238  1.00  0.00     0.001 A 
HETATM    8  C   UNL     1      40.007 -12.044   6.422  1.00  0.00     0.016 A 
HETATM    9  C   UNL     1      41.299 -12.479   2.881  1.00  0.00     0.069 C 
HETATM   10  C   UNL     1      42.746 -12.812   3.295  1.00  0.00     0.028 C 
HETATM   11  C   UNL     1      43.422 -13.632   2.189  1.00  0.00     0.038 C 
HETATM   12  C   UNL     1      43.579 -11.558   3.586  1.00  0.00     0.038 C 
HETATM   13  N   UNL     1      42.743 -13.649   4.526  1.00  0.00    -0.367 N 
HETATM   14  H   UNL     1      43.462 -14.351   4.617  1.00  0.00     0.162 HD
HETATM   15  H   UNL     1      41.035 -14.299   7.162  1.00  0.00     0.161 HD
ENDROOT
BRANCH   1  16
HETATM   16  C   UNL     1      42.902 -15.266   6.933  1.00  0.00     0.224 C 
BRANCH  16  17
HETATM   17  C   UNL     1      42.626 -16.557   6.168  1.00  0.00     0.239 C 
HETATM   18  N   UNL     1      43.759 -17.273   5.833  1.00  0.00    -0.325 N 
HETATM   19  H   UNL     1      44.632 -17.033   6.285  1.00  0.00     0.169 HD
HETATM   20  O   UNL     1      41.461 -16.907   5.998  1.00  0.00    -0.271 OA
BRANCH  18  21
HETATM   21  C   UNL     1      43.809 -18.428   5.014  1.00  0.00     0.040 A 
HETATM   22  C   UNL     1      43.623 -18.292   3.622  1.00  0.00    -0.035 A 
HETATM   23  C   UNL     1      43.458 -16.958   2.946  1.00  0.00     0.050 C 
HETATM   24  C   UNL     1      43.590 -19.446   2.818  1.00  0.00     0.009 A 
HETATM   25  C   UNL     1      43.753 -20.712   3.377  1.00  0.00     0.001 A 
HETATM   26  C   UNL     1      43.952 -20.841   4.745  1.00  0.00     0.002 A 
HETATM   27  C   UNL     1      43.982 -19.707   5.560  1.00  0.00     0.030 A 
ENDBRANCH  18  21
ENDBRANCH  16  17
ENDBRANCH   1  16
TORSDOF 3
ENDMDL
MODEL 10
REMARK VINA RESULT:      -7.7      1.000      1.748
REMARK  3 active torsions:
REMARK  status: ('A' for Active; 'I' for Inactive)
REMARK    1  A    between atoms: C_3  and  N_4 
REMARK       I    between atoms: N_4  and  C_5 
REMARK    2  A    between atoms: C_5  and  C_6 
REMARK    3  A    between atoms: C_6  and  N_7 
ROOT
HETATM    1  N   UNL     1      41.480 -13.692   5.042  1.00  0.00    -0.367 N 
HETATM    2  C   UNL     1      41.589 -14.355   3.906  1.00  0.00     0.108 C 
HETATM    3  C   UNL     1      42.341 -15.634   3.873  1.00  0.00     0.014 A 
HETATM    4  C   UNL     1      42.778 -16.137   2.630  1.00  0.00    -0.042 A 
HETATM    5  C   UNL     1      43.500 -17.334   2.558  1.00  0.00     0.008 A 
HETATM    6  C   UNL     1      43.760 -18.061   3.716  1.00  0.00     0.001 A 
HETATM    7  C   UNL     1      43.305 -17.597   4.946  1.00  0.00     0.001 A 
HETATM    8  C   UNL     1      42.601 -16.394   5.027  1.00  0.00     0.016 A 
HETATM    9  C   UNL     1      42.480 -15.346   1.382  1.00  0.00     0.069 C 
HETATM   10  C   UNL     1      41.124 -14.621   1.484  1.00  0.00     0.028 C 
HETATM   11  C   UNL     1      41.022 -13.561   0.381  1.00  0.00     0.038 C 
HETATM   12  C   UNL     1      39.934 -15.583   1.384  1.00  0.00     0.038 C 
HETATM   13  N   UNL     1      41.024 -13.911   2.789  1.00  0.00    -0.367 N 
HETATM   14  H   UNL     1      40.527 -13.034   2.807  1.00  0.00     0.162 HD
HETATM   15  H   UNL     1      42.068 -13.990   5.821  1.00  0.00     0.161 HD
ENDROOT
BRANCH   1  16
HETATM   16  C   UNL     1      40.669 -12.492   5.297  1.00  0.00     0.224 C 
BRANCH  16  17
HETATM   17  C   UNL     1      41.641 -11.352   5.588  1.00  0.00     0.239 C 
HETATM   18  N   UNL     1      41.683 -10.964   6.913  1.00  0.00    -0.325 N 
HETATM   19  H   UNL     1      41.264 -11.571   7.606  1.00  0.00     0.169 HD
HETATM   20  O   UNL     1      42.363 -10.944   4.682  1.00  0.00    -0.271 OA
BRANCH  18  21
HETATM   21  C   UNL     1      42.388  -9.854   7.440  1.00  0.00     0.040 A 
HETATM   22  C   UNL     1      43.690 -10.046   7.950  1.00  0.00    -0.035 A 
HETATM   23  C   UNL     1      44.407 -11.368   7.882  1.00  0.00     0.050 C 
HETATM   24  C   UNL     1      44.359  -8.964   8.548  1.00  0.00     0.009 A 
HETATM   25  C   UNL     1      43.760  -7.709   8.629  1.00  0.00     0.001 A 
HETATM   26  C   UNL     1      42.485  -7.519   8.112  1.00  0.00     0.002 A 
HETATM   27  C   UNL     1      41.803  -8.584   7.519  1.00  0.00     0.030 A 
ENDBRANCH  18  21
ENDBRANCH  16  17
ENDBRANCH   1  16
TORSDOF 3
ENDMDL
