MODEL 1
REMARK VINA RESULT:      -8.6      0.000      0.000
REMARK  5 active torsions:
REMARK  status: ('A' for Active; 'I' for Inactive)
REMARK    1  A    between atoms: C_7  and  C_8 
REMARK    2  A    between atoms: N_9  and  C_10 
REMARK    3  A    between atoms: C_10  and  C_11 
REMARK       I    between atoms: C_11  and  N_12 
REMARK    4  A    between atoms: N_12  and  C_13 
REMARK    5  A    between atoms: C_13  and  C_14 
ROOT
HETATM    1  C   UNL     1      42.833 -13.774   2.771  1.00  0.00     0.158 A 
HETATM    2  N   UNL     1      42.917 -12.336   2.950  1.00  0.00    -0.326 N 
HETATM    3  C   UNL     1      42.006 -11.647   2.172  1.00  0.00     0.255 A 
HETATM    4  O   UNL     1      41.853 -10.445   2.086  1.00  0.00    -0.267 OA
HETATM    5  C   UNL     1      41.279 -12.645   1.381  1.00  0.00     0.040 A 
HETATM    6  C   UNL     1      41.769 -13.908   1.717  1.00  0.00    -0.015 A 
HETATM    7  C   UNL     1      40.303 -12.446   0.424  1.00  0.00     0.017 A 
HETATM    8  C   UNL     1      39.798 -13.576  -0.219  1.00  0.00     0.001 A 
HETATM    9  C   UNL     1      40.280 -14.859   0.102  1.00  0.00     0.001 A 
HETATM   10  C   UNL     1      41.275 -15.032   1.073  1.00  0.00     0.011 A 
ENDROOT
BRANCH   1  11
HETATM   11  C   UNL     1      42.310 -14.505   3.980  1.00  0.00     0.004 A 
HETATM   12  C   UNL     1      41.225 -14.215   4.814  1.00  0.00     0.017 A 
HETATM   13  C   UNL     1      40.274 -13.061   4.806  1.00  0.00     0.069 C 
HETATM   14  N   UNL     1      41.092 -15.260   5.707  1.00  0.00    -0.354 N 
HETATM   15  C   UNL     1      40.025 -15.405   6.679  1.00  0.00     0.156 C 
HETATM   16  C   UNL     1      42.109 -16.177   5.540  1.00  0.00     0.045 A 
HETATM   17  C   UNL     1      42.883 -15.734   4.468  1.00  0.00     0.001 A 
HETATM   18  C   UNL     1      42.401 -17.366   6.230  1.00  0.00     0.030 A 
HETATM   19  C   UNL     1      43.987 -16.522   4.066  1.00  0.00     0.014 A 
HETATM   20  C   UNL     1      44.282 -17.710   4.743  1.00  0.00     0.001 A 
HETATM   21  C   UNL     1      43.498 -18.125   5.812  1.00  0.00     0.002 A 
ENDBRANCH   1  11
BRANCH   2  22
HETATM   22  C   UNL     1      43.917 -11.700   3.796  1.00  0.00     0.229 C 
BRANCH  22  23
HETATM   23  C   UNL     1      43.462 -11.366   5.225  1.00  0.00     0.235 C 
HETATM   24  N   UNL     1      43.969 -12.170   6.216  1.00  0.00    -0.357 N 
HETATM   25  H   UNL     1      44.558 -12.946   5.953  1.00  0.00     0.162 HD
HETATM   26  O   UNL     1      42.758 -10.384   5.462  1.00  0.00    -0.272 OA
BRANCH  24  27
HETATM   27  C   UNL     1      43.846 -11.882   7.633  1.00  0.00     0.154 C 
BRANCH  27  28
HETATM   28  C   UNL     1      44.963 -10.997   8.191  1.00  0.00     0.139 C 
HETATM   29  O   UNL     1      44.443  -9.749   8.701  1.00  0.00    -0.384 OA
HETATM   30  C   UNL     1      45.386  -8.714   8.376  1.00  0.00     0.168 C 
HETATM   31  C   UNL     1      46.635  -9.398   7.862  1.00  0.00     0.029 C 
HETATM   32  C   UNL     1      46.063 -10.633   7.210  1.00  0.00     0.035 C 
ENDBRANCH  27  28
ENDBRANCH  24  27
ENDBRANCH  22  23
ENDBRANCH   2  22
TORSDOF 5
ENDMDL
MODEL 2
REMARK VINA RESULT:      -8.4      2.334      4.903
REMARK  5 active torsions:
REMARK  status: ('A' for Active; 'I' for Inactive)
REMARK    1  A    between atoms: C_7  and  C_8 
REMARK    2  A    between atoms: N_9  and  C_10 
REMARK    3  A    between atoms: C_10  and  C_11 
REMARK       I    between atoms: C_11  and  N_12 
REMARK    4  A    between atoms: N_12  and  C_13 
REMARK    5  A    between atoms: C_13  and  C_14 
ROOT
HETATM    1  C   UNL     1      41.666 -14.657   5.339  1.00  0.00     0.158 A 
HETATM    2  N   UNL     1      42.903 -14.819   6.083  1.00  0.00    -0.326 N 
HETATM    3  C   UNL     1      43.745 -15.758   5.520  1.00  0.00     0.255 A 
HETATM    4  O   UNL     1      44.830 -16.128   5.923  1.00  0.00    -0.267 OA
HETATM    5  C   UNL     1      43.051 -16.309   4.352  1.00  0.00     0.040 A 
HETATM    6  C   UNL     1      41.812 -15.675   4.242  1.00  0.00    -0.015 A 
HETATM    7  C   UNL     1      43.463 -17.309   3.493  1.00  0.00     0.017 A 
HETATM    8  C   UNL     1      42.584 -17.681   2.475  1.00  0.00     0.001 A 
HETATM    9  C   UNL     1      41.330 -17.055   2.348  1.00  0.00     0.001 A 
HETATM   10  C   UNL     1      40.934 -16.048   3.237  1.00  0.00     0.011 A 
ENDROOT
BRANCH   1  11
HETATM   11  C   UNL     1      41.545 -13.322   4.650  1.00  0.00     0.004 A 
HETATM   12  C   UNL     1      42.245 -12.801   3.558  1.00  0.00     0.017 A 
HETATM   13  C   UNL     1      43.371 -13.377   2.760  1.00  0.00     0.069 C 
HETATM   14  N   UNL     1      41.675 -11.584   3.236  1.00  0.00    -0.354 N 
HETATM   15  C   UNL     1      42.035 -10.762   2.097  1.00  0.00     0.156 C 
HETATM   16  C   UNL     1      40.686 -11.256   4.140  1.00  0.00     0.045 A 
HETATM   17  C   UNL     1      40.581 -12.322   5.032  1.00  0.00     0.001 A 
HETATM   18  C   UNL     1      39.865 -10.119   4.235  1.00  0.00     0.030 A 
HETATM   19  C   UNL     1      39.605 -12.249   6.054  1.00  0.00     0.014 A 
HETATM   20  C   UNL     1      38.780 -11.124   6.153  1.00  0.00     0.001 A 
HETATM   21  C   UNL     1      38.910 -10.073   5.255  1.00  0.00     0.002 A 
ENDBRANCH   1  11
BRANCH   2  22
HETATM   22  C   UNL     1      43.172 -14.122   7.334  1.00  0.00     0.229 C 
BRANCH  22  23
HETATM   23  C   UNL     1      43.903 -12.777   7.199  1.00  0.00     0.235 C 
HETATM   24  N   UNL     1      43.458 -11.772   8.022  1.00  0.00    -0.357 N 
HETATM   25  H   UNL     1      42.664 -11.954   8.619  1.00  0.00     0.162 HD
HETATM   26  O   UNL     1      44.879 -12.647   6.462  1.00  0.00    -0.272 OA
BRANCH  24  27
HETATM   27  C   UNL     1      44.155 -10.514   8.212  1.00  0.00     0.154 C 
BRANCH  27  28
HETATM   28  C   UNL     1      44.419 -10.158   9.676  1.00  0.00     0.139 C 
HETATM   29  O   UNL     1      43.854 -11.143  10.569  1.00  0.00    -0.384 OA
HETATM   30  C   UNL     1      43.333 -10.452  11.715  1.00  0.00     0.168 C 
HETATM   31  C   UNL     1      43.813  -9.018  11.624  1.00  0.00     0.029 C 
HETATM   32  C   UNL     1      43.883  -8.812  10.131  1.00  0.00     0.035 C 
ENDBRANCH  27  28
ENDBRANCH  24  27
ENDBRANCH  22  23
ENDBRANCH   2  22
TORSDOF 5
ENDMDL
MODEL 3
REMARK VINA RESULT:      -8.2      2.759      5.812
REMARK  5 active torsions:
REMARK  status: ('A' for Active; 'I' for Inactive)
REMARK    1  A    between atoms: C_7  and  C_8 
REMARK    2  A    between atoms: N_9  and  C_10 
REMARK    3  A    between atoms: C_10  and  C_11 
REMARK       I    between atoms: C_11  and  N_12 
REMARK    4  A    between atoms: N_12  and  C_13 
REMARK    5  A    between atoms: C_13  and  C_14 
ROOT
HETATM    1  C   UNL     1      40.449 -12.933   3.784  1.00  0.00     0.158 A 
HETATM    2  N   UNL     1      40.730 -12.474   2.436  1.00  0.00    -0.326 N 
HETATM    3  C   UNL     1      40.247 -11.203   2.192  1.00  0.00     0.255 A 
HETATM    4  O   UNL     1      40.305 -10.565   1.159  1.00  0.00    -0.267 OA
HETATM    5  C   UNL     1      39.560 -10.766   3.411  1.00  0.00     0.040 A 
HETATM    6  C   UNL     1      39.660 -11.788   4.357  1.00  0.00    -0.015 A 
HETATM    7  C   UNL     1      38.874  -9.590   3.644  1.00  0.00     0.017 A 
HETATM    8  C   UNL     1      38.267  -9.439   4.890  1.00  0.00     0.001 A 
HETATM    9  C   UNL     1      38.354 -10.457   5.858  1.00  0.00     0.001 A 
HETATM   10  C   UNL     1      39.050 -11.643   5.594  1.00  0.00     0.011 A 
ENDROOT
BRANCH   1  11
HETATM   11  C   UNL     1      41.676 -13.061   4.648  1.00  0.00     0.004 A 
HETATM   12  C   UNL     1      42.781 -12.214   4.784  1.00  0.00     0.017 A 
HETATM   13  C   UNL     1      43.123 -10.942   4.077  1.00  0.00     0.069 C 
HETATM   14  N   UNL     1      43.576 -12.720   5.794  1.00  0.00    -0.354 N 
HETATM   15  C   UNL     1      44.767 -12.085   6.324  1.00  0.00     0.156 C 
HETATM   16  C   UNL     1      43.071 -13.917   6.258  1.00  0.00     0.045 A 
HETATM   17  C   UNL     1      41.885 -14.154   5.564  1.00  0.00     0.001 A 
HETATM   18  C   UNL     1      43.549 -14.800   7.242  1.00  0.00     0.030 A 
HETATM   19  C   UNL     1      41.145 -15.318   5.878  1.00  0.00     0.014 A 
HETATM   20  C   UNL     1      41.610 -16.200   6.860  1.00  0.00     0.001 A 
HETATM   21  C   UNL     1      42.798 -15.942   7.531  1.00  0.00     0.002 A 
ENDBRANCH   1  11
BRANCH   2  22
HETATM   22  C   UNL     1      41.377 -13.311   1.433  1.00  0.00     0.229 C 
BRANCH  22  23
HETATM   23  C   UNL     1      41.061 -14.812   1.518  1.00  0.00     0.235 C 
HETATM   24  N   UNL     1      42.079 -15.610   1.979  1.00  0.00    -0.357 N 
HETATM   25  H   UNL     1      42.971 -15.183   2.184  1.00  0.00     0.162 HD
HETATM   26  O   UNL     1      39.938 -15.247   1.270  1.00  0.00    -0.272 OA
BRANCH  24  27
HETATM   27  C   UNL     1      41.911 -17.003   2.347  1.00  0.00     0.154 C 
BRANCH  27  28
HETATM   28  C   UNL     1      43.216 -17.722   2.693  1.00  0.00     0.139 C 
HETATM   29  O   UNL     1      43.160 -19.121   2.336  1.00  0.00    -0.384 OA
HETATM   30  C   UNL     1      43.850 -19.863   3.354  1.00  0.00     0.168 C 
HETATM   31  C   UNL     1      44.557 -18.855   4.236  1.00  0.00     0.029 C 
HETATM   32  C   UNL     1      43.627 -17.670   4.154  1.00  0.00     0.035 C 
ENDBRANCH  27  28
ENDBRANCH  24  27
ENDBRANCH  22  23
ENDBRANCH   2  22
TORSDOF 5
ENDMDL
MODEL 4
REMARK VINA RESULT:      -8.2      2.044      2.993
REMARK  5 active torsions:
REMARK  status: ('A' for Active; 'I' for Inactive)
REMARK    1  A    between atoms: C_7  and  C_8 
REMARK    2  A    between atoms: N_9  and  C_10 
REMARK    3  A    between atoms: C_10  and  C_11 
REMARK       I    between atoms: C_11  and  N_12 
REMARK    4  A    between atoms: N_12  and  C_13 
REMARK    5  A    between atoms: C_13  and  C_14 
ROOT
HETATM    1  C   UNL     1      42.154 -12.068   3.462  1.00  0.00     0.158 A 
HETATM    2  N   UNL     1      42.853 -11.274   4.457  1.00  0.00    -0.326 N 
HETATM    3  C   UNL     1      42.053 -10.299   5.020  1.00  0.00     0.255 A 
HETATM    4  O   UNL     1      42.357  -9.471   5.856  1.00  0.00    -0.267 OA
HETATM    5  C   UNL     1      40.746 -10.386   4.362  1.00  0.00     0.040 A 
HETATM    6  C   UNL     1      40.797 -11.421   3.426  1.00  0.00    -0.015 A 
HETATM    7  C   UNL     1      39.629  -9.593   4.546  1.00  0.00     0.017 A 
HETATM    8  C   UNL     1      38.516  -9.862   3.752  1.00  0.00     0.001 A 
HETATM    9  C   UNL     1      38.547 -10.900   2.801  1.00  0.00     0.001 A 
HETATM   10  C   UNL     1      39.694 -11.685   2.630  1.00  0.00     0.011 A 
ENDROOT
BRANCH   1  11
HETATM   11  C   UNL     1      41.919 -13.495   3.882  1.00  0.00     0.004 A 
HETATM   12  C   UNL     1      41.222 -14.013   4.978  1.00  0.00     0.017 A 
HETATM   13  C   UNL     1      40.534 -13.319   6.110  1.00  0.00     0.069 C 
HETATM   14  N   UNL     1      41.196 -15.388   4.847  1.00  0.00    -0.354 N 
HETATM   15  C   UNL     1      40.482 -16.302   5.718  1.00  0.00     0.156 C 
HETATM   16  C   UNL     1      41.931 -15.787   3.750  1.00  0.00     0.045 A 
HETATM   17  C   UNL     1      42.392 -14.628   3.127  1.00  0.00     0.001 A 
HETATM   18  C   UNL     1      42.213 -17.068   3.245  1.00  0.00     0.030 A 
HETATM   19  C   UNL     1      43.157 -14.760   1.945  1.00  0.00     0.014 A 
HETATM   20  C   UNL     1      43.438 -16.031   1.432  1.00  0.00     0.001 A 
HETATM   21  C   UNL     1      42.972 -17.169   2.076  1.00  0.00     0.002 A 
ENDBRANCH   1  11
BRANCH   2  22
HETATM   22  C   UNL     1      44.269 -11.444   4.755  1.00  0.00     0.229 C 
BRANCH  22  23
HETATM   23  C   UNL     1      44.607 -11.748   6.222  1.00  0.00     0.235 C 
HETATM   24  N   UNL     1      45.282 -10.761   6.895  1.00  0.00    -0.357 N 
HETATM   25  H   UNL     1      45.555  -9.931   6.388  1.00  0.00     0.162 HD
HETATM   26  O   UNL     1      44.215 -12.777   6.772  1.00  0.00    -0.272 OA
BRANCH  24  27
HETATM   27  C   UNL     1      45.488 -10.757   8.332  1.00  0.00     0.154 C 
BRANCH  27  28
HETATM   28  C   UNL     1      44.357 -10.098   9.125  1.00  0.00     0.139 C 
HETATM   29  O   UNL     1      43.954  -8.845   8.530  1.00  0.00    -0.384 OA
HETATM   30  C   UNL     1      43.655  -7.928   9.594  1.00  0.00     0.168 C 
HETATM   31  C   UNL     1      43.645  -8.729  10.880  1.00  0.00     0.029 C 
HETATM   32  C   UNL     1      44.665  -9.800  10.582  1.00  0.00     0.035 C 
ENDBRANCH  27  28
ENDBRANCH  24  27
ENDBRANCH  22  23
ENDBRANCH   2  22
TORSDOF 5
ENDMDL
MODEL 5
REMARK VINA RESULT:      -8.2      2.934      6.387
REMARK  5 active torsions:
REMARK  status: ('A' for Active; 'I' for Inactive)
REMARK    1  A    between atoms: C_7  and  C_8 
REMARK    2  A    between atoms: N_9  and  C_10 
REMARK    3  A    between atoms: C_10  and  C_11 
REMARK       I    between atoms: C_11  and  N_12 
REMARK    4  A    between atoms: N_12  and  C_13 
REMARK    5  A    between atoms: C_13  and  C_14 
ROOT
HETATM    1  C   UNL     1      39.844 -13.891   3.571  1.00  0.00     0.158 A 
HETATM    2  N   UNL     1      40.292 -15.267   3.443  1.00  0.00    -0.326 N 
HETATM    3  C   UNL     1      40.561 -15.621   2.135  1.00  0.00     0.255 A 
HETATM    4  O   UNL     1      40.926 -16.700   1.711  1.00  0.00    -0.267 OA
HETATM    5  C   UNL     1      40.250 -14.454   1.304  1.00  0.00     0.040 A 
HETATM    6  C   UNL     1      39.811 -13.427   2.141  1.00  0.00    -0.015 A 
HETATM    7  C   UNL     1      40.311 -14.330  -0.071  1.00  0.00     0.017 A 
HETATM    8  C   UNL     1      39.914 -13.112  -0.621  1.00  0.00     0.001 A 
HETATM    9  C   UNL     1      39.466 -12.064   0.205  1.00  0.00     0.001 A 
HETATM   10  C   UNL     1      39.408 -12.218   1.595  1.00  0.00     0.011 A 
ENDROOT
BRANCH   1  11
HETATM   11  C   UNL     1      40.833 -12.996   4.272  1.00  0.00     0.004 A 
HETATM   12  C   UNL     1      42.213 -12.858   4.095  1.00  0.00     0.017 A 
HETATM   13  C   UNL     1      43.156 -13.591   3.195  1.00  0.00     0.069 C 
HETATM   14  N   UNL     1      42.637 -11.817   4.898  1.00  0.00    -0.354 N 
HETATM   15  C   UNL     1      43.983 -11.278   4.934  1.00  0.00     0.156 C 
HETATM   16  C   UNL     1      41.593 -11.333   5.658  1.00  0.00     0.045 A 
HETATM   17  C   UNL     1      40.455 -12.047   5.288  1.00  0.00     0.001 A 
HETATM   18  C   UNL     1      41.553 -10.315   6.627  1.00  0.00     0.030 A 
HETATM   19  C   UNL     1      39.226 -11.719   5.906  1.00  0.00     0.014 A 
HETATM   20  C   UNL     1      39.175 -10.703   6.867  1.00  0.00     0.001 A 
HETATM   21  C   UNL     1      40.326 -10.012   7.222  1.00  0.00     0.002 A 
ENDBRANCH   1  11
BRANCH   2  22
HETATM   22  C   UNL     1      40.360 -16.186   4.571  1.00  0.00     0.229 C 
BRANCH  22  23
HETATM   23  C   UNL     1      41.769 -16.461   5.119  1.00  0.00     0.235 C 
HETATM   24  N   UNL     1      42.589 -17.206   4.308  1.00  0.00    -0.357 N 
HETATM   25  H   UNL     1      42.214 -17.564   3.442  1.00  0.00     0.162 HD
HETATM   26  O   UNL     1      42.155 -15.965   6.177  1.00  0.00    -0.272 OA
BRANCH  24  27
HETATM   27  C   UNL     1      44.012 -17.377   4.536  1.00  0.00     0.154 C 
BRANCH  27  28
HETATM   28  C   UNL     1      44.472 -18.836   4.550  1.00  0.00     0.139 C 
HETATM   29  O   UNL     1      44.198 -19.489   3.290  1.00  0.00    -0.384 OA
HETATM   30  C   UNL     1      43.794 -20.838   3.573  1.00  0.00     0.168 C 
HETATM   31  C   UNL     1      44.065 -21.084   5.043  1.00  0.00     0.029 C 
HETATM   32  C   UNL     1      43.854 -19.710   5.627  1.00  0.00     0.035 C 
ENDBRANCH  27  28
ENDBRANCH  24  27
ENDBRANCH  22  23
ENDBRANCH   2  22
TORSDOF 5
ENDMDL
MODEL 6
REMARK VINA RESULT:      -8.2      2.175      6.954
REMARK  5 active torsions:
REMARK  status: ('A' for Active; 'I' for Inactive)
REMARK    1  A    between atoms: C_7  and  C_8 
REMARK    2  A    between atoms: N_9  and  C_10 
REMARK    3  A    between atoms: C_10  and  C_11 
REMARK       I    between atoms: C_11  and  N_12 
REMARK    4  A    between atoms: N_12  and  C_13 
REMARK    5  A    between atoms: C_13  and  C_14 
ROOT
HETATM    1  C   UNL     1      43.541 -12.678   5.330  1.00  0.00     0.158 A 
HETATM    2  N   UNL     1      42.849 -12.665   4.054  1.00  0.00    -0.326 N 
HETATM    3  C   UNL     1      41.911 -13.674   3.945  1.00  0.00     0.255 A 
HETATM    4  O   UNL     1      41.198 -13.934   2.997  1.00  0.00    -0.267 OA
HETATM    5  C   UNL     1      41.977 -14.454   5.185  1.00  0.00     0.040 A 
HETATM    6  C   UNL     1      42.949 -13.882   6.008  1.00  0.00    -0.015 A 
HETATM    7  C   UNL     1      41.270 -15.589   5.532  1.00  0.00     0.017 A 
HETATM    8  C   UNL     1      41.557 -16.169   6.767  1.00  0.00     0.001 A 
HETATM    9  C   UNL     1      42.535 -15.610   7.612  1.00  0.00     0.001 A 
HETATM   10  C   UNL     1      43.241 -14.462   7.233  1.00  0.00     0.011 A 
ENDROOT
BRANCH   1  11
HETATM   11  C   UNL     1      43.207 -11.503   6.212  1.00  0.00     0.004 A 
HETATM   12  C   UNL     1      41.969 -10.938   6.537  1.00  0.00     0.017 A 
HETATM   13  C   UNL     1      40.591 -11.284   6.073  1.00  0.00     0.069 C 
HETATM   14  N   UNL     1      42.192  -9.953   7.479  1.00  0.00    -0.354 N 
HETATM   15  C   UNL     1      41.162  -9.192   8.160  1.00  0.00     0.156 C 
HETATM   16  C   UNL     1      43.543  -9.797   7.710  1.00  0.00     0.045 A 
HETATM   17  C   UNL     1      44.201 -10.751   6.936  1.00  0.00     0.001 A 
HETATM   18  C   UNL     1      44.238  -8.908   8.548  1.00  0.00     0.030 A 
HETATM   19  C   UNL     1      45.611 -10.824   7.014  1.00  0.00     0.014 A 
HETATM   20  C   UNL     1      46.312  -9.948   7.850  1.00  0.00     0.001 A 
HETATM   21  C   UNL     1      45.632  -9.002   8.606  1.00  0.00     0.002 A 
ENDBRANCH   1  11
BRANCH   2  22
HETATM   22  C   UNL     1      43.181 -11.737   2.982  1.00  0.00     0.229 C 
BRANCH  22  23
HETATM   23  C   UNL     1      41.992 -10.984   2.364  1.00  0.00     0.235 C 
HETATM   24  N   UNL     1      41.561 -11.449   1.146  1.00  0.00    -0.357 N 
HETATM   25  H   UNL     1      42.067 -12.207   0.712  1.00  0.00     0.162 HD
HETATM   26  O   UNL     1      41.417 -10.082   2.972  1.00  0.00    -0.272 OA
BRANCH  24  27
HETATM   27  C   UNL     1      40.325 -11.029   0.512  1.00  0.00     0.154 C 
BRANCH  27  28
HETATM   28  C   UNL     1      39.770 -12.030  -0.503  1.00  0.00     0.139 C 
HETATM   29  O   UNL     1      39.455 -13.295   0.120  1.00  0.00    -0.384 OA
HETATM   30  C   UNL     1      39.806 -14.340  -0.801  1.00  0.00     0.168 C 
HETATM   31  C   UNL     1      40.123 -13.676  -2.125  1.00  0.00     0.029 C 
HETATM   32  C   UNL     1      40.681 -12.348  -1.676  1.00  0.00     0.035 C 
ENDBRANCH  27  28
ENDBRANCH  24  27
ENDBRANCH  22  23
ENDBRANCH   2  22
TORSDOF 5
ENDMDL
MODEL 7
REMARK VINA RESULT:      -8.1     16.593     18.660
REMARK  5 active torsions:
REMARK  status: ('A' for Active; 'I' for Inactive)
REMARK    1  A    between atoms: C_7  and  C_8 
REMARK    2  A    between atoms: N_9  and  C_10 
REMARK    3  A    between atoms: C_10  and  C_11 
REMARK       I    between atoms: C_11  and  N_12 
REMARK    4  A    between atoms: N_12  and  C_13 
REMARK    5  A    between atoms: C_13  and  C_14 
ROOT
HETATM    1  C   UNL     1      45.294 -28.985  -0.838  1.00  0.00     0.158 A 
HETATM    2  N   UNL     1      46.514 -28.657  -0.123  1.00  0.00    -0.326 N 
HETATM    3  C   UNL     1      46.369 -28.743   1.248  1.00  0.00     0.255 A 
HETATM    4  O   UNL     1      47.198 -28.507   2.105  1.00  0.00    -0.267 OA
HETATM    5  C   UNL     1      44.974 -29.108   1.508  1.00  0.00     0.040 A 
HETATM    6  C   UNL     1      44.322 -29.241   0.280  1.00  0.00    -0.015 A 
HETATM    7  C   UNL     1      44.332 -29.267   2.721  1.00  0.00     0.017 A 
HETATM    8  C   UNL     1      42.973 -29.577   2.690  1.00  0.00     0.001 A 
HETATM    9  C   UNL     1      42.296 -29.713   1.463  1.00  0.00     0.001 A 
HETATM   10  C   UNL     1      42.969 -29.541   0.248  1.00  0.00     0.011 A 
ENDROOT
BRANCH   1  11
HETATM   11  C   UNL     1      45.376 -30.272  -1.616  1.00  0.00     0.004 A 
HETATM   12  C   UNL     1      45.868 -31.527  -1.242  1.00  0.00     0.017 A 
HETATM   13  C   UNL     1      46.519 -31.977   0.027  1.00  0.00     0.069 C 
HETATM   14  N   UNL     1      45.605 -32.406  -2.274  1.00  0.00    -0.354 N 
HETATM   15  C   UNL     1      45.859 -33.834  -2.248  1.00  0.00     0.156 C 
HETATM   16  C   UNL     1      45.038 -31.745  -3.344  1.00  0.00     0.045 A 
HETATM   17  C   UNL     1      44.881 -30.414  -2.962  1.00  0.00     0.001 A 
HETATM   18  C   UNL     1      44.636 -32.212  -4.608  1.00  0.00     0.030 A 
HETATM   19  C   UNL     1      44.286 -29.517  -3.881  1.00  0.00     0.014 A 
HETATM   20  C   UNL     1      43.877 -29.974  -5.139  1.00  0.00     0.001 A 
HETATM   21  C   UNL     1      44.052 -31.304  -5.496  1.00  0.00     0.002 A 
ENDBRANCH   1  11
BRANCH   2  22
HETATM   22  C   UNL     1      47.727 -28.204  -0.792  1.00  0.00     0.229 C 
BRANCH  22  23
HETATM   23  C   UNL     1      48.872 -29.227  -0.855  1.00  0.00     0.235 C 
HETATM   24  N   UNL     1      49.578 -29.403   0.309  1.00  0.00    -0.357 N 
HETATM   25  H   UNL     1      49.344 -28.830   1.107  1.00  0.00     0.162 HD
HETATM   26  O   UNL     1      49.076 -29.901  -1.863  1.00  0.00    -0.272 OA
BRANCH  24  27
HETATM   27  C   UNL     1      50.534 -30.474   0.520  1.00  0.00     0.154 C 
BRANCH  27  28
HETATM   28  C   UNL     1      50.562 -31.015   1.951  1.00  0.00     0.139 C 
HETATM   29  O   UNL     1      49.251 -31.446   2.379  1.00  0.00    -0.384 OA
HETATM   30  C   UNL     1      49.101 -31.095   3.763  1.00  0.00     0.168 C 
HETATM   31  C   UNL     1      50.463 -30.650   4.257  1.00  0.00     0.029 C 
HETATM   32  C   UNL     1      51.059 -30.047   3.010  1.00  0.00     0.035 C 
ENDBRANCH  27  28
ENDBRANCH  24  27
ENDBRANCH  22  23
ENDBRANCH   2  22
TORSDOF 5
ENDMDL
MODEL 8
REMARK VINA RESULT:      -8.0      1.711      2.760
REMARK  5 active torsions:
REMARK  status: ('A' for Active; 'I' for Inactive)
REMARK    1  A    between atoms: C_7  and  C_8 
REMARK    2  A    between atoms: N_9  and  C_10 
REMARK    3  A    between atoms: C_10  and  C_11 
REMARK       I    between atoms: C_11  and  N_12 
REMARK    4  A    between atoms: N_12  and  C_13 
REMARK    5  A    between atoms: C_13  and  C_14 
ROOT
HETATM    1  C   UNL     1      42.848 -13.980   2.723  1.00  0.00     0.158 A 
HETATM    2  N   UNL     1      42.992 -12.544   2.883  1.00  0.00    -0.326 N 
HETATM    3  C   UNL     1      42.078 -11.829   2.134  1.00  0.00     0.255 A 
HETATM    4  O   UNL     1      41.966 -10.622   2.041  1.00  0.00    -0.267 OA
HETATM    5  C   UNL     1      41.283 -12.805   1.383  1.00  0.00     0.040 A 
HETATM    6  C   UNL     1      41.738 -14.083   1.713  1.00  0.00    -0.015 A 
HETATM    7  C   UNL     1      40.277 -12.579   0.463  1.00  0.00     0.017 A 
HETATM    8  C   UNL     1      39.706 -13.695  -0.147  1.00  0.00     0.001 A 
HETATM    9  C   UNL     1      40.152 -14.992   0.169  1.00  0.00     0.001 A 
HETATM   10  C   UNL     1      41.177 -15.193   1.101  1.00  0.00     0.011 A 
ENDROOT
BRANCH   1  11
HETATM   11  C   UNL     1      42.346 -14.679   3.959  1.00  0.00     0.004 A 
HETATM   12  C   UNL     1      41.278 -14.366   4.806  1.00  0.00     0.017 A 
HETATM   13  C   UNL     1      40.328 -13.211   4.787  1.00  0.00     0.069 C 
HETATM   14  N   UNL     1      41.160 -15.388   5.728  1.00  0.00    -0.354 N 
HETATM   15  C   UNL     1      40.111 -15.506   6.722  1.00  0.00     0.156 C 
HETATM   16  C   UNL     1      42.172 -16.311   5.564  1.00  0.00     0.045 A 
HETATM   17  C   UNL     1      42.927 -15.896   4.467  1.00  0.00     0.001 A 
HETATM   18  C   UNL     1      42.476 -17.483   6.279  1.00  0.00     0.030 A 
HETATM   19  C   UNL     1      44.022 -16.696   4.065  1.00  0.00     0.014 A 
HETATM   20  C   UNL     1      44.328 -17.867   4.766  1.00  0.00     0.001 A 
HETATM   21  C   UNL     1      43.564 -18.253   5.859  1.00  0.00     0.002 A 
ENDBRANCH   1  11
BRANCH   2  22
HETATM   22  C   UNL     1      44.049 -11.938   3.682  1.00  0.00     0.229 C 
BRANCH  22  23
HETATM   23  C   UNL     1      43.653 -11.542   5.113  1.00  0.00     0.235 C 
HETATM   24  N   UNL     1      42.762 -10.503   5.219  1.00  0.00    -0.357 N 
HETATM   25  H   UNL     1      42.461 -10.037   4.375  1.00  0.00     0.162 HD
HETATM   26  O   UNL     1      44.049 -12.179   6.089  1.00  0.00    -0.272 OA
BRANCH  24  27
HETATM   27  C   UNL     1      42.095 -10.133   6.454  1.00  0.00     0.154 C 
BRANCH  27  28
HETATM   28  C   UNL     1      40.682  -9.578   6.260  1.00  0.00     0.139 C 
HETATM   29  O   UNL     1      39.700 -10.375   6.959  1.00  0.00    -0.384 OA
HETATM   30  C   UNL     1      38.522 -10.440   6.140  1.00  0.00     0.168 C 
HETATM   31  C   UNL     1      38.711  -9.447   5.012  1.00  0.00     0.029 C 
HETATM   32  C   UNL     1      40.207  -9.480   4.821  1.00  0.00     0.035 C 
ENDBRANCH  27  28
ENDBRANCH  24  27
ENDBRANCH  22  23
ENDBRANCH   2  22
TORSDOF 5
ENDMDL
MODEL 9
REMARK VINA RESULT:      -7.7      3.372      6.258
REMARK  5 active torsions:
REMARK  status: ('A' for Active; 'I' for Inactive)
REMARK    1  A    between atoms: C_7  and  C_8 
REMARK    2  A    between atoms: N_9  and  C_10 
REMARK    3  A    between atoms: C_10  and  C_11 
REMARK       I    between atoms: C_11  and  N_12 
REMARK    4  A    between atoms: N_12  and  C_13 
REMARK    5  A    between atoms: C_13  and  C_14 
ROOT
HETATM    1  C   UNL     1      42.346 -10.879   7.336  1.00  0.00     0.158 A 
HETATM    2  N   UNL     1      41.605  -9.683   7.697  1.00  0.00    -0.326 N 
HETATM    3  C   UNL     1      42.428  -8.635   8.061  1.00  0.00     0.255 A 
HETATM    4  O   UNL     1      42.105  -7.524   8.433  1.00  0.00    -0.267 OA
HETATM    5  C   UNL     1      43.806  -9.130   7.993  1.00  0.00     0.040 A 
HETATM    6  C   UNL     1      43.770 -10.463   7.578  1.00  0.00    -0.015 A 
HETATM    7  C   UNL     1      44.978  -8.472   8.309  1.00  0.00     0.017 A 
HETATM    8  C   UNL     1      46.167  -9.192   8.197  1.00  0.00     0.001 A 
HETATM    9  C   UNL     1      46.153 -10.537   7.783  1.00  0.00     0.001 A 
HETATM   10  C   UNL     1      44.950 -11.183   7.474  1.00  0.00     0.011 A 
ENDROOT
BRANCH   1  11
HETATM   11  C   UNL     1      42.260 -11.226   5.873  1.00  0.00     0.004 A 
HETATM   12  C   UNL     1      42.015 -10.412   4.762  1.00  0.00     0.017 A 
HETATM   13  C   UNL     1      41.707  -8.951   4.676  1.00  0.00     0.069 C 
HETATM   14  N   UNL     1      42.161 -11.191   3.631  1.00  0.00    -0.354 N 
HETATM   15  C   UNL     1      42.095 -10.710   2.264  1.00  0.00     0.156 C 
HETATM   16  C   UNL     1      42.403 -12.505   3.973  1.00  0.00     0.045 A 
HETATM   17  C   UNL     1      42.473 -12.557   5.364  1.00  0.00     0.001 A 
HETATM   18  C   UNL     1      42.584 -13.648   3.173  1.00  0.00     0.030 A 
HETATM   19  C   UNL     1      42.746 -13.803   5.977  1.00  0.00     0.014 A 
HETATM   20  C   UNL     1      42.933 -14.944   5.189  1.00  0.00     0.001 A 
HETATM   21  C   UNL     1      42.852 -14.865   3.805  1.00  0.00     0.002 A 
ENDBRANCH   1  11
BRANCH   2  22
HETATM   22  C   UNL     1      40.150  -9.638   7.747  1.00  0.00     0.229 C 
BRANCH  22  23
HETATM   23  C   UNL     1      39.541  -9.382   9.134  1.00  0.00     0.235 C 
HETATM   24  N   UNL     1      40.122 -10.064  10.175  1.00  0.00    -0.357 N 
HETATM   25  H   UNL     1      40.866 -10.716   9.969  1.00  0.00     0.162 HD
HETATM   26  O   UNL     1      38.649  -8.551   9.302  1.00  0.00    -0.272 OA
BRANCH  24  27
HETATM   27  C   UNL     1      39.850  -9.790  11.573  1.00  0.00     0.154 C 
BRANCH  27  28
HETATM   28  C   UNL     1      40.988  -9.076  12.305  1.00  0.00     0.139 C 
HETATM   29  O   UNL     1      41.020  -7.667  11.986  1.00  0.00    -0.384 OA
HETATM   30  C   UNL     1      42.396  -7.267  11.895  1.00  0.00     0.168 C 
HETATM   31  C   UNL     1      43.229  -8.420  12.414  1.00  0.00     0.029 C 
HETATM   32  C   UNL     1      42.383  -9.608  12.026  1.00  0.00     0.035 C 
ENDBRANCH  27  28
ENDBRANCH  24  27
ENDBRANCH  22  23
ENDBRANCH   2  22
TORSDOF 5
ENDMDL
MODEL 10
REMARK VINA RESULT:      -7.7      2.757      6.049
REMARK  5 active torsions:
REMARK  status: ('A' for Active; 'I' for Inactive)
REMARK    1  A    between atoms: C_7  and  C_8 
REMARK    2  A    between atoms: N_9  and  C_10 
REMARK    3  A    between atoms: C_10  and  C_11 
REMARK       I    between atoms: C_11  and  N_12 
REMARK    4  A    between atoms: N_12  and  C_13 
REMARK    5  A    between atoms: C_13  and  C_14 
ROOT
HETATM    1  C   UNL     1      40.522 -13.528   3.939  1.00  0.00     0.158 A 
HETATM    2  N   UNL     1      41.214 -13.304   2.682  1.00  0.00    -0.326 N 
HETATM    3  C   UNL     1      41.086 -12.007   2.226  1.00  0.00     0.255 A 
HETATM    4  O   UNL     1      41.527 -11.527   1.200  1.00  0.00    -0.267 OA
HETATM    5  C   UNL     1      40.233 -11.298   3.185  1.00  0.00     0.040 A 
HETATM    6  C   UNL     1      39.880 -12.193   4.198  1.00  0.00    -0.015 A 
HETATM    7  C   UNL     1      39.778  -9.995   3.140  1.00  0.00     0.017 A 
HETATM    8  C   UNL     1      38.933  -9.577   4.167  1.00  0.00     0.001 A 
HETATM    9  C   UNL     1      38.563 -10.463   5.197  1.00  0.00     0.001 A 
HETATM   10  C   UNL     1      39.034 -11.781   5.215  1.00  0.00     0.011 A 
ENDROOT
BRANCH   1  11
HETATM   11  C   UNL     1      41.447 -13.773   5.103  1.00  0.00     0.004 A 
HETATM   12  C   UNL     1      41.412 -14.758   6.095  1.00  0.00     0.017 A 
HETATM   13  C   UNL     1      40.420 -15.848   6.349  1.00  0.00     0.069 C 
HETATM   14  N   UNL     1      42.554 -14.623   6.861  1.00  0.00    -0.354 N 
HETATM   15  C   UNL     1      42.959 -15.514   7.931  1.00  0.00     0.156 C 
HETATM   16  C   UNL     1      43.285 -13.525   6.455  1.00  0.00     0.045 A 
HETATM   17  C   UNL     1      42.620 -12.976   5.360  1.00  0.00     0.001 A 
HETATM   18  C   UNL     1      44.483 -12.981   6.951  1.00  0.00     0.030 A 
HETATM   19  C   UNL     1      43.186 -11.844   4.730  1.00  0.00     0.014 A 
HETATM   20  C   UNL     1      44.381 -11.299   5.212  1.00  0.00     0.001 A 
HETATM   21  C   UNL     1      45.019 -11.862   6.309  1.00  0.00     0.002 A 
ENDBRANCH   1  11
BRANCH   2  22
HETATM   22  C   UNL     1      41.891 -14.367   1.951  1.00  0.00     0.229 C 
BRANCH  22  23
HETATM   23  C   UNL     1      41.943 -15.730   2.658  1.00  0.00     0.235 C 
HETATM   24  N   UNL     1      43.167 -16.093   3.163  1.00  0.00    -0.357 N 
HETATM   25  H   UNL     1      43.956 -15.482   3.002  1.00  0.00     0.162 HD
HETATM   26  O   UNL     1      40.928 -16.403   2.832  1.00  0.00    -0.272 OA
BRANCH  24  27
HETATM   27  C   UNL     1      43.373 -17.219   4.054  1.00  0.00     0.154 C 
BRANCH  27  28
HETATM   28  C   UNL     1      43.933 -18.466   3.369  1.00  0.00     0.139 C 
HETATM   29  O   UNL     1      43.206 -18.776   2.158  1.00  0.00    -0.384 OA
HETATM   30  C   UNL     1      43.096 -20.205   2.063  1.00  0.00     0.168 C 
HETATM   31  C   UNL     1      43.997 -20.791   3.131  1.00  0.00     0.029 C 
HETATM   32  C   UNL     1      43.927 -19.734   4.205  1.00  0.00     0.035 C 
ENDBRANCH  27  28
ENDBRANCH  24  27
ENDBRANCH  22  23
ENDBRANCH   2  22
TORSDOF 5
ENDMDL
