MODEL 1
REMARK VINA RESULT:     -10.2      0.000      0.000
REMARK  8 active torsions:
REMARK  status: ('A' for Active; 'I' for Inactive)
REMARK    1  A    between atoms: C_3  and  C_4 
REMARK    2  A    between atoms: N_5  and  N_6 
REMARK    3  A    between atoms: C_17  and  C_18 
REMARK       I    between atoms: C_18  and  N_19 
REMARK    4  A    between atoms: N_19  and  C_20 
REMARK    5  A    between atoms: C_20  and  C_21 
REMARK    6  A    between atoms: C_21  and  C_22 
REMARK    7  A    between atoms: C_29  and  N_30 
REMARK    8  A    between atoms: C_31  and  O_32 
ROOT
HETATM    1  N   UNL     1      41.297 -15.026   2.924  1.00  0.00    -0.202 N 
HETATM    2  C   UNL     1      41.938 -16.222   3.187  1.00  0.00     0.183 A 
HETATM    3  C   UNL     1      42.234 -16.229   4.549  1.00  0.00     0.124 A 
HETATM    4  N   UNL     1      42.948 -17.244   5.098  1.00  0.00    -0.242 NA
HETATM    5  C   UNL     1      43.254 -18.247   4.260  1.00  0.00     0.086 A 
HETATM    6  C   UNL     1      42.909 -18.228   2.883  1.00  0.00     0.088 A 
HETATM    7  N   UNL     1      42.269 -17.196   2.307  1.00  0.00    -0.225 NA
HETATM    8  C   UNL     1      43.920 -19.357   4.768  1.00  0.00     0.034 A 
HETATM    9  C   UNL     1      44.242 -20.451   3.961  1.00  0.00     0.002 A 
HETATM   10  C   UNL     1      43.896 -20.435   2.619  1.00  0.00     0.002 A 
HETATM   11  C   UNL     1      43.238 -19.323   2.092  1.00  0.00     0.034 A 
HETATM   12  C   UNL     1      41.682 -15.049   5.130  1.00  0.00     0.099 C 
HETATM   13  C   UNL     1      40.865 -14.507   4.142  1.00  0.00     0.122 C 
ENDROOT
BRANCH  12  14
HETATM   14  C   UNL     1      41.961 -14.487   6.452  1.00  0.00     0.236 C 
HETATM   15  N   UNL     1      41.796 -13.109   6.558  1.00  0.00    -0.258 NA
HETATM   16  H   UNL     1      41.080 -12.810   5.910  1.00  0.00     0.130 HD
HETATM   17  O   UNL     1      42.396 -15.151   7.387  1.00  0.00    -0.274 OA
BRANCH  15  18
HETATM   18  C   UNL     1      42.959 -12.273   6.277  1.00  0.00     0.099 C 
BRANCH  18  19
HETATM   19  C   UNL     1      44.198 -12.498   7.144  1.00  0.00     0.048 C 
BRANCH  19  20
HETATM   20  C   UNL     1      44.644 -11.183   7.754  1.00  0.00    -0.083 C 
HETATM   21  C   UNL     1      45.853 -10.511   7.147  1.00  0.00     0.034 C 
HETATM   22  C   UNL     1      46.440  -9.396   8.021  1.00  0.00     0.005 C 
HETATM   23  C   UNL     1      45.346  -8.534   8.644  1.00  0.00     0.004 C 
HETATM   24  C   UNL     1      44.392  -9.378   9.486  1.00  0.00     0.027 C 
HETATM   25  C   UNL     1      43.999 -10.660   8.814  1.00  0.00    -0.024 C 
ENDBRANCH  19  20
ENDBRANCH  18  19
ENDBRANCH  15  18
ENDBRANCH  12  14
BRANCH  13  26
HETATM   26  N   UNL     1      39.909 -13.524   4.180  1.00  0.00    -0.286 NA
HETATM   27  H   UNL     1      40.110 -12.724   4.781  1.00  0.00     0.125 HD
HETATM   28  H   UNL     1      38.972 -13.854   4.429  1.00  0.00     0.125 HD
ENDBRANCH  13  26
BRANCH   1  29
HETATM   29  N   UNL     1      41.092 -14.318   1.759  1.00  0.00    -0.176 NA
HETATM   30  C   UNL     1      40.104 -14.705   1.014  1.00  0.00     0.153 C 
BRANCH  30  31
HETATM   31  C   UNL     1      39.940 -14.158  -0.354  1.00  0.00     0.016 A 
HETATM   32  C   UNL     1      39.339 -14.967  -1.324  1.00  0.00     0.016 A 
HETATM   33  C   UNL     1      39.255 -14.519  -2.646  1.00  0.00     0.001 A 
HETATM   34  C   UNL     1      39.771 -13.270  -2.999  1.00  0.00     0.003 A 
HETATM   35  C   UNL     1      40.370 -12.462  -2.034  1.00  0.00     0.037 A 
HETATM   36  C   UNL     1      40.455 -12.906  -0.717  1.00  0.00     0.077 A 
BRANCH  36  37
HETATM   37  O   UNL     1      41.090 -12.078   0.169  1.00  0.00    -0.360 OA
HETATM   38  H   UNL     1      40.423 -11.849   0.852  1.00  0.00     0.217 HD
ENDBRANCH  36  37
ENDBRANCH  30  31
ENDBRANCH   1  29
TORSDOF 8
ENDMDL
MODEL 2
REMARK VINA RESULT:     -10.2      0.938      1.483
REMARK  8 active torsions:
REMARK  status: ('A' for Active; 'I' for Inactive)
REMARK    1  A    between atoms: C_3  and  C_4 
REMARK    2  A    between atoms: N_5  and  N_6 
REMARK    3  A    between atoms: C_17  and  C_18 
REMARK       I    between atoms: C_18  and  N_19 
REMARK    4  A    between atoms: N_19  and  C_20 
REMARK    5  A    between atoms: C_20  and  C_21 
REMARK    6  A    between atoms: C_21  and  C_22 
REMARK    7  A    between atoms: C_29  and  N_30 
REMARK    8  A    between atoms: C_31  and  O_32 
ROOT
HETATM    1  N   UNL     1      41.136 -15.037   2.878  1.00  0.00    -0.202 N 
HETATM    2  C   UNL     1      41.815 -16.213   3.137  1.00  0.00     0.183 A 
HETATM    3  C   UNL     1      42.150 -16.194   4.489  1.00  0.00     0.124 A 
HETATM    4  N   UNL     1      42.907 -17.183   5.031  1.00  0.00    -0.242 NA
HETATM    5  C   UNL     1      43.214 -18.188   4.197  1.00  0.00     0.086 A 
HETATM    6  C   UNL     1      42.830 -18.197   2.830  1.00  0.00     0.088 A 
HETATM    7  N   UNL     1      42.147 -17.190   2.260  1.00  0.00    -0.225 NA
HETATM    8  C   UNL     1      43.924 -19.274   4.698  1.00  0.00     0.034 A 
HETATM    9  C   UNL     1      44.251 -20.370   3.897  1.00  0.00     0.002 A 
HETATM   10  C   UNL     1      43.866 -20.381   2.565  1.00  0.00     0.002 A 
HETATM   11  C   UNL     1      43.164 -19.293   2.044  1.00  0.00     0.034 A 
HETATM   12  C   UNL     1      41.584 -15.021   5.072  1.00  0.00     0.099 C 
HETATM   13  C   UNL     1      40.726 -14.514   4.101  1.00  0.00     0.122 C 
ENDROOT
BRANCH  12  14
HETATM   14  C   UNL     1      41.887 -14.435   6.377  1.00  0.00     0.236 C 
HETATM   15  N   UNL     1      41.732 -13.053   6.458  1.00  0.00    -0.258 NA
HETATM   16  H   UNL     1      41.008 -12.763   5.815  1.00  0.00     0.130 HD
HETATM   17  O   UNL     1      42.331 -15.082   7.320  1.00  0.00    -0.274 OA
BRANCH  15  18
HETATM   18  C   UNL     1      42.896 -12.231   6.143  1.00  0.00     0.099 C 
BRANCH  18  19
HETATM   19  C   UNL     1      44.127 -12.406   7.033  1.00  0.00     0.048 C 
BRANCH  19  20
HETATM   20  C   UNL     1      44.574 -11.056   7.562  1.00  0.00    -0.083 C 
HETATM   21  C   UNL     1      43.510 -10.140   8.120  1.00  0.00     0.034 C 
HETATM   22  C   UNL     1      43.979  -8.692   8.302  1.00  0.00     0.005 C 
HETATM   23  C   UNL     1      45.391  -8.626   8.878  1.00  0.00     0.004 C 
HETATM   24  C   UNL     1      46.385  -9.364   7.983  1.00  0.00     0.027 C 
HETATM   25  C   UNL     1      45.868 -10.687   7.502  1.00  0.00    -0.024 C 
ENDBRANCH  19  20
ENDBRANCH  18  19
ENDBRANCH  15  18
ENDBRANCH  12  14
BRANCH  13  26
HETATM   26  N   UNL     1      39.746 -13.556   4.154  1.00  0.00    -0.286 NA
HETATM   27  H   UNL     1      39.359 -13.358   5.078  1.00  0.00     0.125 HD
HETATM   28  H   UNL     1      38.951 -13.727   3.531  1.00  0.00     0.125 HD
ENDBRANCH  13  26
BRANCH   1  29
HETATM   29  N   UNL     1      40.879 -14.351   1.710  1.00  0.00    -0.176 NA
HETATM   30  C   UNL     1      40.113 -14.943   0.849  1.00  0.00     0.153 C 
BRANCH  30  31
HETATM   31  C   UNL     1      39.958 -14.391  -0.519  1.00  0.00     0.016 A 
HETATM   32  C   UNL     1      40.459 -13.111  -0.778  1.00  0.00     0.016 A 
HETATM   33  C   UNL     1      40.246 -12.523  -2.028  1.00  0.00     0.001 A 
HETATM   34  C   UNL     1      39.532 -13.206  -3.014  1.00  0.00     0.003 A 
HETATM   35  C   UNL     1      39.032 -14.482  -2.759  1.00  0.00     0.037 A 
HETATM   36  C   UNL     1      39.243 -15.070  -1.514  1.00  0.00     0.077 A 
BRANCH  36  37
HETATM   37  O   UNL     1      38.690 -16.307  -1.320  1.00  0.00    -0.360 OA
HETATM   38  H   UNL     1      39.444 -16.931  -1.240  1.00  0.00     0.217 HD
ENDBRANCH  36  37
ENDBRANCH  30  31
ENDBRANCH   1  29
TORSDOF 8
ENDMDL
MODEL 3
REMARK VINA RESULT:     -10.1      1.848      5.912
REMARK  8 active torsions:
REMARK  status: ('A' for Active; 'I' for Inactive)
REMARK    1  A    between atoms: C_3  and  C_4 
REMARK    2  A    between atoms: N_5  and  N_6 
REMARK    3  A    between atoms: C_17  and  C_18 
REMARK       I    between atoms: C_18  and  N_19 
REMARK    4  A    between atoms: N_19  and  C_20 
REMARK    5  A    between atoms: C_20  and  C_21 
REMARK    6  A    between atoms: C_21  and  C_22 
REMARK    7  A    between atoms: C_29  and  N_30 
REMARK    8  A    between atoms: C_31  and  O_32 
ROOT
HETATM    1  N   UNL     1      41.351 -15.150   3.747  1.00  0.00    -0.202 N 
HETATM    2  C   UNL     1      40.790 -14.515   2.654  1.00  0.00     0.183 A 
HETATM    3  C   UNL     1      40.150 -13.376   3.136  1.00  0.00     0.124 A 
HETATM    4  N   UNL     1      39.425 -12.584   2.305  1.00  0.00    -0.242 NA
HETATM    5  C   UNL     1      39.454 -12.936   1.010  1.00  0.00     0.086 A 
HETATM    6  C   UNL     1      40.145 -14.085   0.543  1.00  0.00     0.088 A 
HETATM    7  N   UNL     1      40.803 -14.921   1.363  1.00  0.00    -0.225 NA
HETATM    8  C   UNL     1      38.796 -12.130   0.088  1.00  0.00     0.034 A 
HETATM    9  C   UNL     1      38.812 -12.416  -1.279  1.00  0.00     0.002 A 
HETATM   10  C   UNL     1      39.494 -13.534  -1.735  1.00  0.00     0.002 A 
HETATM   11  C   UNL     1      40.150 -14.359  -0.820  1.00  0.00     0.034 A 
HETATM   12  C   UNL     1      40.406 -13.280   4.536  1.00  0.00     0.099 C 
HETATM   13  C   UNL     1      41.392 -14.227   4.789  1.00  0.00     0.122 C 
ENDROOT
BRANCH  12  14
HETATM   14  C   UNL     1      39.733 -12.422   5.512  1.00  0.00     0.236 C 
HETATM   15  N   UNL     1      39.549 -11.101   5.113  1.00  0.00    -0.258 NA
HETATM   16  H   UNL     1      39.453 -11.068   4.108  1.00  0.00     0.130 HD
HETATM   17  O   UNL     1      39.424 -12.797   6.638  1.00  0.00    -0.274 OA
BRANCH  15  18
HETATM   18  C   UNL     1      40.607 -10.151   5.442  1.00  0.00     0.099 C 
BRANCH  18  19
HETATM   19  C   UNL     1      41.965 -10.368   4.772  1.00  0.00     0.048 C 
BRANCH  19  20
HETATM   20  C   UNL     1      43.011 -10.689   5.823  1.00  0.00    -0.083 C 
HETATM   21  C   UNL     1      44.224 -11.472   5.379  1.00  0.00     0.034 C 
HETATM   22  C   UNL     1      45.042 -12.049   6.540  1.00  0.00     0.005 C 
HETATM   23  C   UNL     1      45.183 -11.047   7.682  1.00  0.00     0.004 C 
HETATM   24  C   UNL     1      43.815 -10.611   8.203  1.00  0.00     0.027 C 
HETATM   25  C   UNL     1      42.839 -10.313   7.105  1.00  0.00    -0.024 C 
ENDBRANCH  19  20
ENDBRANCH  18  19
ENDBRANCH  15  18
ENDBRANCH  12  14
BRANCH  13  26
HETATM   26  N   UNL     1      42.199 -14.444   5.878  1.00  0.00    -0.286 NA
HETATM   27  H   UNL     1      43.131 -14.809   5.681  1.00  0.00     0.125 HD
HETATM   28  H   UNL     1      41.789 -15.049   6.595  1.00  0.00     0.125 HD
ENDBRANCH  13  26
BRANCH   1  29
HETATM   29  N   UNL     1      41.781 -16.444   3.951  1.00  0.00    -0.176 NA
HETATM   30  C   UNL     1      42.903 -16.774   3.393  1.00  0.00     0.153 C 
BRANCH  30  31
HETATM   31  C   UNL     1      43.336 -18.192   3.366  1.00  0.00     0.016 A 
HETATM   32  C   UNL     1      43.143 -18.923   2.189  1.00  0.00     0.016 A 
HETATM   33  C   UNL     1      43.452 -20.286   2.160  1.00  0.00     0.001 A 
HETATM   34  C   UNL     1      43.947 -20.919   3.302  1.00  0.00     0.003 A 
HETATM   35  C   UNL     1      44.141 -20.193   4.475  1.00  0.00     0.037 A 
HETATM   36  C   UNL     1      43.834 -18.835   4.507  1.00  0.00     0.077 A 
BRANCH  36  37
HETATM   37  O   UNL     1      44.013 -18.195   5.703  1.00  0.00    -0.360 OA
HETATM   38  H   UNL     1      43.351 -17.470   5.724  1.00  0.00     0.217 HD
ENDBRANCH  36  37
ENDBRANCH  30  31
ENDBRANCH   1  29
TORSDOF 8
ENDMDL
MODEL 4
REMARK VINA RESULT:      -9.7      3.187      6.911
REMARK  8 active torsions:
REMARK  status: ('A' for Active; 'I' for Inactive)
REMARK    1  A    between atoms: C_3  and  C_4 
REMARK    2  A    between atoms: N_5  and  N_6 
REMARK    3  A    between atoms: C_17  and  C_18 
REMARK       I    between atoms: C_18  and  N_19 
REMARK    4  A    between atoms: N_19  and  C_20 
REMARK    5  A    between atoms: C_20  and  C_21 
REMARK    6  A    between atoms: C_21  and  C_22 
REMARK    7  A    between atoms: C_29  and  N_30 
REMARK    8  A    between atoms: C_31  and  O_32 
ROOT
HETATM    1  N   UNL     1      41.636 -12.660   5.651  1.00  0.00    -0.202 N 
HETATM    2  C   UNL     1      42.493 -11.787   6.296  1.00  0.00     0.183 A 
HETATM    3  C   UNL     1      41.700 -10.796   6.869  1.00  0.00     0.124 A 
HETATM    4  N   UNL     1      42.264  -9.736   7.503  1.00  0.00    -0.242 NA
HETATM    5  C   UNL     1      43.602  -9.776   7.602  1.00  0.00     0.086 A 
HETATM    6  C   UNL     1      44.383 -10.819   7.037  1.00  0.00     0.088 A 
HETATM    7  N   UNL     1      43.845 -11.834   6.340  1.00  0.00    -0.225 NA
HETATM    8  C   UNL     1      44.247  -8.763   8.303  1.00  0.00     0.034 A 
HETATM    9  C   UNL     1      45.633  -8.757   8.475  1.00  0.00     0.002 A 
HETATM   10  C   UNL     1      46.393  -9.781   7.929  1.00  0.00     0.002 A 
HETATM   11  C   UNL     1      45.761 -10.798   7.212  1.00  0.00     0.034 A 
HETATM   12  C   UNL     1      40.332 -11.128   6.635  1.00  0.00     0.099 C 
HETATM   13  C   UNL     1      40.355 -12.431   6.148  1.00  0.00     0.122 C 
ENDROOT
BRANCH  12  14
HETATM   14  C   UNL     1      39.161 -10.269   6.804  1.00  0.00     0.236 C 
HETATM   15  N   UNL     1      39.336  -9.190   7.666  1.00  0.00    -0.258 NA
HETATM   16  H   UNL     1      40.304  -8.900   7.642  1.00  0.00     0.130 HD
HETATM   17  O   UNL     1      38.069 -10.512   6.301  1.00  0.00    -0.274 OA
BRANCH  15  18
HETATM   18  C   UNL     1      39.021  -9.403   9.075  1.00  0.00     0.099 C 
BRANCH  18  19
HETATM   19  C   UNL     1      39.386  -8.277  10.044  1.00  0.00     0.048 C 
BRANCH  19  20
HETATM   20  C   UNL     1      40.573  -8.694  10.891  1.00  0.00    -0.083 C 
HETATM   21  C   UNL     1      40.385  -9.870  11.820  1.00  0.00     0.034 C 
HETATM   22  C   UNL     1      41.489 -10.004  12.875  1.00  0.00     0.005 C 
HETATM   23  C   UNL     1      42.870  -9.741  12.281  1.00  0.00     0.004 C 
HETATM   24  C   UNL     1      42.943  -8.350  11.654  1.00  0.00     0.027 C 
HETATM   25  C   UNL     1      41.734  -8.014  10.833  1.00  0.00    -0.024 C 
ENDBRANCH  19  20
ENDBRANCH  18  19
ENDBRANCH  15  18
ENDBRANCH  12  14
BRANCH  13  26
HETATM   26  N   UNL     1      39.363 -13.360   5.965  1.00  0.00    -0.286 NA
HETATM   27  H   UNL     1      38.427 -12.990   5.793  1.00  0.00     0.125 HD
HETATM   28  H   UNL     1      39.277 -14.043   6.724  1.00  0.00     0.125 HD
ENDBRANCH  13  26
BRANCH   1  29
HETATM   29  N   UNL     1      41.835 -13.589   4.651  1.00  0.00    -0.176 NA
HETATM   30  C   UNL     1      42.374 -14.713   5.007  1.00  0.00     0.153 C 
BRANCH  30  31
HETATM   31  C   UNL     1      42.830 -15.681   3.981  1.00  0.00     0.016 A 
HETATM   32  C   UNL     1      42.911 -15.251   2.653  1.00  0.00     0.016 A 
HETATM   33  C   UNL     1      43.245 -16.164   1.647  1.00  0.00     0.001 A 
HETATM   34  C   UNL     1      43.492 -17.501   1.965  1.00  0.00     0.003 A 
HETATM   35  C   UNL     1      43.413 -17.932   3.289  1.00  0.00     0.037 A 
HETATM   36  C   UNL     1      43.080 -17.025   4.291  1.00  0.00     0.077 A 
BRANCH  36  37
HETATM   37  O   UNL     1      42.982 -17.525   5.562  1.00  0.00    -0.360 OA
HETATM   38  H   UNL     1      43.810 -17.266   6.020  1.00  0.00     0.217 HD
ENDBRANCH  36  37
ENDBRANCH  30  31
ENDBRANCH   1  29
TORSDOF 8
ENDMDL
MODEL 5
REMARK VINA RESULT:      -9.5      1.868      8.033
REMARK  8 active torsions:
REMARK  status: ('A' for Active; 'I' for Inactive)
REMARK    1  A    between atoms: C_3  and  C_4 
REMARK    2  A    between atoms: N_5  and  N_6 
REMARK    3  A    between atoms: C_17  and  C_18 
REMARK       I    between atoms: C_18  and  N_19 
REMARK    4  A    between atoms: N_19  and  C_20 
REMARK    5  A    between atoms: C_20  and  C_21 
REMARK    6  A    between atoms: C_21  and  C_22 
REMARK    7  A    between atoms: C_29  and  N_30 
REMARK    8  A    between atoms: C_31  and  O_32 
ROOT
HETATM    1  N   UNL     1      42.506 -13.509   4.345  1.00  0.00    -0.202 N 
HETATM    2  C   UNL     1      42.701 -14.821   3.956  1.00  0.00     0.183 A 
HETATM    3  C   UNL     1      41.797 -15.073   2.926  1.00  0.00     0.124 A 
HETATM    4  N   UNL     1      41.685 -16.315   2.389  1.00  0.00    -0.242 NA
HETATM    5  C   UNL     1      42.555 -17.222   2.861  1.00  0.00     0.086 A 
HETATM    6  C   UNL     1      43.490 -16.926   3.888  1.00  0.00     0.088 A 
HETATM    7  N   UNL     1      43.561 -15.724   4.483  1.00  0.00    -0.225 NA
HETATM    8  C   UNL     1      42.552 -18.497   2.307  1.00  0.00     0.034 A 
HETATM    9  C   UNL     1      43.450 -19.481   2.725  1.00  0.00     0.002 A 
HETATM   10  C   UNL     1      44.369 -19.188   3.722  1.00  0.00     0.002 A 
HETATM   11  C   UNL     1      44.376 -17.916   4.297  1.00  0.00     0.034 A 
HETATM   12  C   UNL     1      41.104 -13.860   2.635  1.00  0.00     0.099 C 
HETATM   13  C   UNL     1      41.796 -12.873   3.330  1.00  0.00     0.122 C 
ENDROOT
BRANCH  12  14
HETATM   14  C   UNL     1      39.891 -13.692   1.835  1.00  0.00     0.236 C 
HETATM   15  N   UNL     1      39.637 -14.712   0.921  1.00  0.00    -0.258 NA
HETATM   16  H   UNL     1      40.014 -15.579   1.278  1.00  0.00     0.130 HD
HETATM   17  O   UNL     1      39.183 -12.693   1.887  1.00  0.00    -0.274 OA
BRANCH  15  18
HETATM   18  C   UNL     1      40.193 -14.560  -0.420  1.00  0.00     0.099 C 
BRANCH  18  19
HETATM   19  C   UNL     1      39.196 -14.418  -1.570  1.00  0.00     0.048 C 
BRANCH  19  20
HETATM   20  C   UNL     1      39.217 -12.996  -2.096  1.00  0.00    -0.083 C 
HETATM   21  C   UNL     1      40.438 -12.560  -2.871  1.00  0.00     0.034 C 
HETATM   22  C   UNL     1      40.538 -11.042  -3.059  1.00  0.00     0.005 C 
HETATM   23  C   UNL     1      39.184 -10.426  -3.401  1.00  0.00     0.004 C 
HETATM   24  C   UNL     1      38.153 -10.729  -2.316  1.00  0.00     0.027 C 
HETATM   25  C   UNL     1      38.195 -12.154  -1.850  1.00  0.00    -0.024 C 
ENDBRANCH  19  20
ENDBRANCH  18  19
ENDBRANCH  15  18
ENDBRANCH  12  14
BRANCH  13  26
HETATM   26  N   UNL     1      41.754 -11.504   3.263  1.00  0.00    -0.286 NA
HETATM   27  H   UNL     1      42.194 -11.080   2.445  1.00  0.00     0.125 HD
HETATM   28  H   UNL     1      42.137 -11.028   4.086  1.00  0.00     0.125 HD
ENDBRANCH  13  26
BRANCH   1  29
HETATM   29  N   UNL     1      42.831 -12.824   5.497  1.00  0.00    -0.176 NA
HETATM   30  C   UNL     1      43.904 -12.099   5.454  1.00  0.00     0.153 C 
BRANCH  30  31
HETATM   31  C   UNL     1      44.457 -11.506   6.695  1.00  0.00     0.016 A 
HETATM   32  C   UNL     1      43.578 -11.235   7.749  1.00  0.00     0.016 A 
HETATM   33  C   UNL     1      44.048 -10.588   8.896  1.00  0.00     0.001 A 
HETATM   34  C   UNL     1      45.389 -10.210   8.990  1.00  0.00     0.003 A 
HETATM   35  C   UNL     1      46.267 -10.479   7.941  1.00  0.00     0.037 A 
HETATM   36  C   UNL     1      45.801 -11.123   6.798  1.00  0.00     0.077 A 
BRANCH  36  37
HETATM   37  O   UNL     1      46.709 -11.320   5.793  1.00  0.00    -0.360 OA
HETATM   38  H   UNL     1      46.559 -10.596   5.147  1.00  0.00     0.217 HD
ENDBRANCH  36  37
ENDBRANCH  30  31
ENDBRANCH   1  29
TORSDOF 8
ENDMDL
MODEL 6
REMARK VINA RESULT:      -9.3      2.010      8.341
REMARK  8 active torsions:
REMARK  status: ('A' for Active; 'I' for Inactive)
REMARK    1  A    between atoms: C_3  and  C_4 
REMARK    2  A    between atoms: N_5  and  N_6 
REMARK    3  A    between atoms: C_17  and  C_18 
REMARK       I    between atoms: C_18  and  N_19 
REMARK    4  A    between atoms: N_19  and  C_20 
REMARK    5  A    between atoms: C_20  and  C_21 
REMARK    6  A    between atoms: C_21  and  C_22 
REMARK    7  A    between atoms: C_29  and  N_30 
REMARK    8  A    between atoms: C_31  and  O_32 
ROOT
HETATM    1  N   UNL     1      41.220 -13.887   3.842  1.00  0.00    -0.202 N 
HETATM    2  C   UNL     1      41.690 -12.949   4.743  1.00  0.00     0.183 A 
HETATM    3  C   UNL     1      40.906 -11.808   4.582  1.00  0.00     0.124 A 
HETATM    4  N   UNL     1      41.183 -10.673   5.273  1.00  0.00    -0.242 NA
HETATM    5  C   UNL     1      42.187 -10.774   6.158  1.00  0.00     0.086 A 
HETATM    6  C   UNL     1      42.947 -11.961   6.325  1.00  0.00     0.088 A 
HETATM    7  N   UNL     1      42.735 -13.069   5.595  1.00  0.00    -0.225 NA
HETATM    8  C   UNL     1      42.481  -9.674   6.957  1.00  0.00     0.034 A 
HETATM    9  C   UNL     1      43.490  -9.717   7.922  1.00  0.00     0.002 A 
HETATM   10  C   UNL     1      44.225 -10.881   8.090  1.00  0.00     0.002 A 
HETATM   11  C   UNL     1      43.950 -11.989   7.287  1.00  0.00     0.034 A 
HETATM   12  C   UNL     1      39.889 -12.099   3.624  1.00  0.00     0.099 C 
HETATM   13  C   UNL     1      39.953 -13.476   3.435  1.00  0.00     0.122 C 
ENDROOT
BRANCH  12  14
HETATM   14  C   UNL     1      39.012 -11.152   2.936  1.00  0.00     0.236 C 
HETATM   15  N   UNL     1      38.801 -11.414   1.584  1.00  0.00    -0.258 NA
HETATM   16  H   UNL     1      38.863 -12.410   1.426  1.00  0.00     0.130 HD
HETATM   17  O   UNL     1      38.557 -10.145   3.468  1.00  0.00    -0.274 OA
BRANCH  15  18
HETATM   18  C   UNL     1      39.725 -10.803   0.634  1.00  0.00     0.099 C 
BRANCH  18  19
HETATM   19  C   UNL     1      39.220 -10.615  -0.798  1.00  0.00     0.048 C 
BRANCH  19  20
HETATM   20  C   UNL     1      39.105 -11.963  -1.483  1.00  0.00    -0.083 C 
HETATM   21  C   UNL     1      40.373 -12.766  -1.654  1.00  0.00     0.034 C 
HETATM   22  C   UNL     1      40.237 -13.927  -2.647  1.00  0.00     0.005 C 
HETATM   23  C   UNL     1      38.910 -14.662  -2.475  1.00  0.00     0.004 C 
HETATM   24  C   UNL     1      37.728 -13.712  -2.652  1.00  0.00     0.027 C 
HETATM   25  C   UNL     1      37.919 -12.403  -1.945  1.00  0.00    -0.024 C 
ENDBRANCH  19  20
ENDBRANCH  18  19
ENDBRANCH  15  18
ENDBRANCH  12  14
BRANCH  13  26
HETATM   26  N   UNL     1      39.099 -14.358   2.825  1.00  0.00    -0.286 NA
HETATM   27  H   UNL     1      38.368 -14.758   3.416  1.00  0.00     0.125 HD
HETATM   28  H   UNL     1      39.563 -15.141   2.356  1.00  0.00     0.125 HD
ENDBRANCH  13  26
BRANCH   1  29
HETATM   29  N   UNL     1      41.786 -15.023   3.303  1.00  0.00    -0.176 NA
HETATM   30  C   UNL     1      41.984 -16.011   4.117  1.00  0.00     0.153 C 
BRANCH  30  31
HETATM   31  C   UNL     1      42.784 -17.184   3.688  1.00  0.00     0.016 A 
HETATM   32  C   UNL     1      42.447 -17.813   2.485  1.00  0.00     0.016 A 
HETATM   33  C   UNL     1      43.117 -18.977   2.100  1.00  0.00     0.001 A 
HETATM   34  C   UNL     1      44.117 -19.515   2.913  1.00  0.00     0.003 A 
HETATM   35  C   UNL     1      44.456 -18.889   4.111  1.00  0.00     0.037 A 
HETATM   36  C   UNL     1      43.789 -17.730   4.498  1.00  0.00     0.077 A 
BRANCH  36  37
HETATM   37  O   UNL     1      44.145 -17.192   5.705  1.00  0.00    -0.360 OA
HETATM   38  H   UNL     1      43.387 -16.637   5.989  1.00  0.00     0.217 HD
ENDBRANCH  36  37
ENDBRANCH  30  31
ENDBRANCH   1  29
TORSDOF 8
ENDMDL
MODEL 7
REMARK VINA RESULT:      -9.1      2.561      8.392
REMARK  8 active torsions:
REMARK  status: ('A' for Active; 'I' for Inactive)
REMARK    1  A    between atoms: C_3  and  C_4 
REMARK    2  A    between atoms: N_5  and  N_6 
REMARK    3  A    between atoms: C_17  and  C_18 
REMARK       I    between atoms: C_18  and  N_19 
REMARK    4  A    between atoms: N_19  and  C_20 
REMARK    5  A    between atoms: C_20  and  C_21 
REMARK    6  A    between atoms: C_21  and  C_22 
REMARK    7  A    between atoms: C_29  and  N_30 
REMARK    8  A    between atoms: C_31  and  O_32 
ROOT
HETATM    1  N   UNL     1      42.489 -11.290   4.115  1.00  0.00    -0.202 N 
HETATM    2  C   UNL     1      42.238 -12.562   3.634  1.00  0.00     0.183 A 
HETATM    3  C   UNL     1      40.921 -12.568   3.182  1.00  0.00     0.124 A 
HETATM    4  N   UNL     1      40.349 -13.713   2.728  1.00  0.00    -0.242 NA
HETATM    5  C   UNL     1      41.165 -14.776   2.672  1.00  0.00     0.086 A 
HETATM    6  C   UNL     1      42.515 -14.731   3.108  1.00  0.00     0.088 A 
HETATM    7  N   UNL     1      43.075 -13.627   3.631  1.00  0.00    -0.225 NA
HETATM    8  C   UNL     1      40.671 -15.966   2.148  1.00  0.00     0.034 A 
HETATM    9  C   UNL     1      41.473 -17.103   2.029  1.00  0.00     0.002 A 
HETATM   10  C   UNL     1      42.794 -17.055   2.447  1.00  0.00     0.002 A 
HETATM   11  C   UNL     1      43.301 -15.871   2.986  1.00  0.00     0.034 A 
HETATM   12  C   UNL     1      40.398 -11.247   3.317  1.00  0.00     0.099 C 
HETATM   13  C   UNL     1      41.499 -10.450   3.611  1.00  0.00     0.122 C 
ENDROOT
BRANCH  12  14
HETATM   14  C   UNL     1      38.999 -10.826   3.233  1.00  0.00     0.236 C 
HETATM   15  N   UNL     1      38.252 -11.447   2.236  1.00  0.00    -0.258 NA
HETATM   16  H   UNL     1      38.617 -12.376   2.077  1.00  0.00     0.130 HD
HETATM   17  O   UNL     1      38.523  -9.930   3.922  1.00  0.00    -0.274 OA
BRANCH  15  18
HETATM   18  C   UNL     1      38.221 -10.804   0.926  1.00  0.00     0.099 C 
BRANCH  18  19
HETATM   19  C   UNL     1      37.692 -11.638  -0.242  1.00  0.00     0.048 C 
BRANCH  19  20
HETATM   20  C   UNL     1      38.848 -12.100  -1.108  1.00  0.00    -0.083 C 
HETATM   21  C   UNL     1      38.665 -13.382  -1.887  1.00  0.00     0.034 C 
HETATM   22  C   UNL     1      39.973 -13.954  -2.446  1.00  0.00     0.005 C 
HETATM   23  C   UNL     1      40.867 -12.859  -3.020  1.00  0.00     0.004 C 
HETATM   24  C   UNL     1      41.194 -11.806  -1.964  1.00  0.00     0.027 C 
HETATM   25  C   UNL     1      40.000 -11.403  -1.151  1.00  0.00    -0.024 C 
ENDBRANCH  19  20
ENDBRANCH  18  19
ENDBRANCH  15  18
ENDBRANCH  12  14
BRANCH  13  26
HETATM   26  N   UNL     1      41.670  -9.090   3.622  1.00  0.00    -0.286 NA
HETATM   27  H   UNL     1      42.241  -8.714   4.381  1.00  0.00     0.125 HD
HETATM   28  H   UNL     1      40.797  -8.553   3.615  1.00  0.00     0.125 HD
ENDBRANCH  13  26
BRANCH   1  29
HETATM   29  N   UNL     1      43.446 -10.794   4.976  1.00  0.00    -0.176 NA
HETATM   30  C   UNL     1      43.363 -11.174   6.211  1.00  0.00     0.153 C 
BRANCH  30  31
HETATM   31  C   UNL     1      44.200 -10.528   7.250  1.00  0.00     0.016 A 
HETATM   32  C   UNL     1      43.560  -9.841   8.287  1.00  0.00     0.016 A 
HETATM   33  C   UNL     1      44.320  -9.141   9.229  1.00  0.00     0.001 A 
HETATM   34  C   UNL     1      45.713  -9.122   9.135  1.00  0.00     0.003 A 
HETATM   35  C   UNL     1      46.353  -9.806   8.103  1.00  0.00     0.037 A 
HETATM   36  C   UNL     1      45.599 -10.504   7.164  1.00  0.00     0.077 A 
BRANCH  36  37
HETATM   37  O   UNL     1      46.292 -11.120   6.157  1.00  0.00    -0.360 OA
HETATM   38  H   UNL     1      46.222 -12.084   6.329  1.00  0.00     0.217 HD
ENDBRANCH  36  37
ENDBRANCH  30  31
ENDBRANCH   1  29
TORSDOF 8
ENDMDL
MODEL 8
REMARK VINA RESULT:      -9.0      2.108      8.694
REMARK  8 active torsions:
REMARK  status: ('A' for Active; 'I' for Inactive)
REMARK    1  A    between atoms: C_3  and  C_4 
REMARK    2  A    between atoms: N_5  and  N_6 
REMARK    3  A    between atoms: C_17  and  C_18 
REMARK       I    between atoms: C_18  and  N_19 
REMARK    4  A    between atoms: N_19  and  C_20 
REMARK    5  A    between atoms: C_20  and  C_21 
REMARK    6  A    between atoms: C_21  and  C_22 
REMARK    7  A    between atoms: C_29  and  N_30 
REMARK    8  A    between atoms: C_31  and  O_32 
ROOT
HETATM    1  N   UNL     1      41.880 -11.957   5.061  1.00  0.00    -0.202 N 
HETATM    2  C   UNL     1      42.020 -13.204   4.480  1.00  0.00     0.183 A 
HETATM    3  C   UNL     1      41.106 -13.263   3.430  1.00  0.00     0.124 A 
HETATM    4  N   UNL     1      40.943 -14.407   2.716  1.00  0.00    -0.242 NA
HETATM    5  C   UNL     1      41.776 -15.408   3.043  1.00  0.00     0.086 A 
HETATM    6  C   UNL     1      42.722 -15.306   4.097  1.00  0.00     0.088 A 
HETATM    7  N   UNL     1      42.843 -14.209   4.863  1.00  0.00    -0.225 NA
HETATM    8  C   UNL     1      41.719 -16.585   2.306  1.00  0.00     0.034 A 
HETATM    9  C   UNL     1      42.577 -17.656   2.568  1.00  0.00     0.002 A 
HETATM   10  C   UNL     1      43.506 -17.552   3.592  1.00  0.00     0.002 A 
HETATM   11  C   UNL     1      43.566 -16.381   4.349  1.00  0.00     0.034 A 
HETATM   12  C   UNL     1      40.465 -11.993   3.326  1.00  0.00     0.099 C 
HETATM   13  C   UNL     1      41.196 -11.149   4.155  1.00  0.00     0.122 C 
ENDROOT
BRANCH  12  14
HETATM   14  C   UNL     1      39.259 -11.659   2.567  1.00  0.00     0.236 C 
HETATM   15  N   UNL     1      39.222 -12.152   1.265  1.00  0.00    -0.258 NA
HETATM   16  H   UNL     1      39.748 -13.014   1.222  1.00  0.00     0.130 HD
HETATM   17  O   UNL     1      38.374 -10.927   2.996  1.00  0.00    -0.274 OA
BRANCH  15  18
HETATM   18  C   UNL     1      39.769 -11.301   0.213  1.00  0.00     0.099 C 
BRANCH  18  19
HETATM   19  C   UNL     1      40.553 -11.995  -0.901  1.00  0.00     0.048 C 
BRANCH  19  20
HETATM   20  C   UNL     1      39.634 -12.914  -1.681  1.00  0.00    -0.083 C 
HETATM   21  C   UNL     1      38.461 -12.283  -2.394  1.00  0.00     0.034 C 
HETATM   22  C   UNL     1      37.404 -13.294  -2.853  1.00  0.00     0.005 C 
HETATM   23  C   UNL     1      38.043 -14.548  -3.444  1.00  0.00     0.004 C 
HETATM   24  C   UNL     1      38.971 -15.219  -2.434  1.00  0.00     0.027 C 
HETATM   25  C   UNL     1      39.846 -14.244  -1.705  1.00  0.00    -0.024 C 
ENDBRANCH  19  20
ENDBRANCH  18  19
ENDBRANCH  15  18
ENDBRANCH  12  14
BRANCH  13  26
HETATM   26  N   UNL     1      41.211  -9.785   4.292  1.00  0.00    -0.286 NA
HETATM   27  H   UNL     1      40.302  -9.334   4.405  1.00  0.00     0.125 HD
HETATM   28  H   UNL     1      41.696  -9.289   3.538  1.00  0.00     0.125 HD
ENDBRANCH  13  26
BRANCH   1  29
HETATM   29  N   UNL     1      42.233 -11.463   6.299  1.00  0.00    -0.176 NA
HETATM   30  C   UNL     1      43.325 -10.768   6.353  1.00  0.00     0.153 C 
BRANCH  30  31
HETATM   31  C   UNL     1      43.904 -10.385   7.663  1.00  0.00     0.016 A 
HETATM   32  C   UNL     1      45.278 -10.560   7.859  1.00  0.00     0.016 A 
HETATM   33  C   UNL     1      45.839 -10.300   9.112  1.00  0.00     0.001 A 
HETATM   34  C   UNL     1      45.033  -9.870  10.168  1.00  0.00     0.003 A 
HETATM   35  C   UNL     1      43.664  -9.694   9.976  1.00  0.00     0.037 A 
HETATM   36  C   UNL     1      43.102  -9.953   8.729  1.00  0.00     0.077 A 
BRANCH  36  37
HETATM   37  O   UNL     1      41.746  -9.796   8.623  1.00  0.00    -0.360 OA
HETATM   38  H   UNL     1      41.486  -9.192   9.352  1.00  0.00     0.217 HD
ENDBRANCH  36  37
ENDBRANCH  30  31
ENDBRANCH   1  29
TORSDOF 8
ENDMDL
MODEL 9
REMARK VINA RESULT:      -8.8      3.693      7.591
REMARK  8 active torsions:
REMARK  status: ('A' for Active; 'I' for Inactive)
REMARK    1  A    between atoms: C_3  and  C_4 
REMARK    2  A    between atoms: N_5  and  N_6 
REMARK    3  A    between atoms: C_17  and  C_18 
REMARK       I    between atoms: C_18  and  N_19 
REMARK    4  A    between atoms: N_19  and  C_20 
REMARK    5  A    between atoms: C_20  and  C_21 
REMARK    6  A    between atoms: C_21  and  C_22 
REMARK    7  A    between atoms: C_29  and  N_30 
REMARK    8  A    between atoms: C_31  and  O_32 
ROOT
HETATM    1  N   UNL     1      43.572 -11.320   5.372  1.00  0.00    -0.202 N 
HETATM    2  C   UNL     1      42.581 -10.456   5.799  1.00  0.00     0.183 A 
HETATM    3  C   UNL     1      42.988  -9.956   7.034  1.00  0.00     0.124 A 
HETATM    4  N   UNL     1      42.176  -9.140   7.754  1.00  0.00    -0.242 NA
HETATM    5  C   UNL     1      41.026  -8.801   7.150  1.00  0.00     0.086 A 
HETATM    6  C   UNL     1      40.653  -9.300   5.875  1.00  0.00     0.088 A 
HETATM    7  N   UNL     1      41.410 -10.168   5.183  1.00  0.00    -0.225 NA
HETATM    8  C   UNL     1      40.176  -7.909   7.794  1.00  0.00     0.034 A 
HETATM    9  C   UNL     1      38.979  -7.486   7.211  1.00  0.00     0.002 A 
HETATM   10  C   UNL     1      38.620  -7.967   5.962  1.00  0.00     0.002 A 
HETATM   11  C   UNL     1      39.458  -8.873   5.308  1.00  0.00     0.034 A 
HETATM   12  C   UNL     1      44.291 -10.465   7.312  1.00  0.00     0.099 C 
HETATM   13  C   UNL     1      44.713 -11.049   6.122  1.00  0.00     0.122 C 
ENDROOT
BRANCH  12  14
HETATM   14  C   UNL     1      45.007 -10.442   8.588  1.00  0.00     0.236 C 
HETATM   15  N   UNL     1      44.407 -11.162   9.618  1.00  0.00    -0.258 NA
HETATM   16  H   UNL     1      43.892 -11.937   9.224  1.00  0.00     0.130 HD
HETATM   17  O   UNL     1      46.016  -9.772   8.783  1.00  0.00    -0.274 OA
BRANCH  15  18
HETATM   18  C   UNL     1      43.460 -10.448  10.468  1.00  0.00     0.099 C 
BRANCH  18  19
HETATM   19  C   UNL     1      43.964  -9.173  11.146  1.00  0.00     0.048 C 
BRANCH  19  20
HETATM   20  C   UNL     1      43.123  -8.877  12.373  1.00  0.00    -0.083 C 
HETATM   21  C   UNL     1      41.971  -9.809  12.668  1.00  0.00     0.034 C 
HETATM   22  C   UNL     1      40.978  -9.254  13.696  1.00  0.00     0.005 C 
HETATM   23  C   UNL     1      41.694  -8.569  14.857  1.00  0.00     0.004 C 
HETATM   24  C   UNL     1      42.586  -7.434  14.360  1.00  0.00     0.027 C 
HETATM   25  C   UNL     1      43.383  -7.805  13.146  1.00  0.00    -0.024 C 
ENDBRANCH  19  20
ENDBRANCH  18  19
ENDBRANCH  15  18
ENDBRANCH  12  14
BRANCH  13  26
HETATM   26  N   UNL     1      45.942 -11.490   5.702  1.00  0.00    -0.286 NA
HETATM   27  H   UNL     1      46.746 -10.940   6.008  1.00  0.00     0.125 HD
HETATM   28  H   UNL     1      46.028 -11.602   4.688  1.00  0.00     0.125 HD
ENDBRANCH  13  26
BRANCH   1  29
HETATM   29  N   UNL     1      43.579 -12.342   4.445  1.00  0.00    -0.176 NA
HETATM   30  C   UNL     1      42.860 -13.382   4.728  1.00  0.00     0.153 C 
BRANCH  30  31
HETATM   31  C   UNL     1      42.975 -14.614   3.912  1.00  0.00     0.016 A 
HETATM   32  C   UNL     1      43.183 -14.481   2.535  1.00  0.00     0.016 A 
HETATM   33  C   UNL     1      43.200 -15.619   1.722  1.00  0.00     0.001 A 
HETATM   34  C   UNL     1      43.005 -16.884   2.280  1.00  0.00     0.003 A 
HETATM   35  C   UNL     1      42.798 -17.019   3.652  1.00  0.00     0.037 A 
HETATM   36  C   UNL     1      42.781 -15.888   4.463  1.00  0.00     0.077 A 
BRANCH  36  37
HETATM   37  O   UNL     1      42.533 -16.092   5.794  1.00  0.00    -0.360 OA
HETATM   38  H   UNL     1      43.404 -16.041   6.243  1.00  0.00     0.217 HD
ENDBRANCH  36  37
ENDBRANCH  30  31
ENDBRANCH   1  29
TORSDOF 8
ENDMDL
MODEL 10
REMARK VINA RESULT:      -8.8      2.946      6.765
REMARK  8 active torsions:
REMARK  status: ('A' for Active; 'I' for Inactive)
REMARK    1  A    between atoms: C_3  and  C_4 
REMARK    2  A    between atoms: N_5  and  N_6 
REMARK    3  A    between atoms: C_17  and  C_18 
REMARK       I    between atoms: C_18  and  N_19 
REMARK    4  A    between atoms: N_19  and  C_20 
REMARK    5  A    between atoms: C_20  and  C_21 
REMARK    6  A    between atoms: C_21  and  C_22 
REMARK    7  A    between atoms: C_29  and  N_30 
REMARK    8  A    between atoms: C_31  and  O_32 
ROOT
HETATM    1  N   UNL     1      41.299 -14.357   3.527  1.00  0.00    -0.202 N 
HETATM    2  C   UNL     1      41.824 -13.415   4.393  1.00  0.00     0.183 A 
HETATM    3  C   UNL     1      41.253 -12.192   4.051  1.00  0.00     0.124 A 
HETATM    4  N   UNL     1      41.639 -11.048   4.672  1.00  0.00    -0.242 NA
HETATM    5  C   UNL     1      42.523 -11.210   5.669  1.00  0.00     0.086 A 
HETATM    6  C   UNL     1      43.063 -12.475   6.018  1.00  0.00     0.088 A 
HETATM    7  N   UNL     1      42.749 -13.606   5.364  1.00  0.00    -0.225 NA
HETATM    8  C   UNL     1      42.910 -10.093   6.400  1.00  0.00     0.034 A 
HETATM    9  C   UNL     1      43.800 -10.190   7.472  1.00  0.00     0.002 A 
HETATM   10  C   UNL     1      44.320 -11.429   7.818  1.00  0.00     0.002 A 
HETATM   11  C   UNL     1      43.950 -12.557   7.085  1.00  0.00     0.034 A 
HETATM   12  C   UNL     1      40.300 -12.420   3.013  1.00  0.00     0.099 C 
HETATM   13  C   UNL     1      40.161 -13.803   2.948  1.00  0.00     0.122 C 
ENDROOT
BRANCH  12  14
HETATM   14  C   UNL     1      39.658 -11.425   2.154  1.00  0.00     0.236 C 
HETATM   15  N   UNL     1      39.547 -10.151   2.703  1.00  0.00    -0.258 NA
HETATM   16  H   UNL     1      40.315  -9.996   3.342  1.00  0.00     0.130 HD
HETATM   17  O   UNL     1      39.166 -11.694   1.063  1.00  0.00    -0.274 OA
BRANCH  15  18
HETATM   18  C   UNL     1      38.335  -9.853   3.461  1.00  0.00     0.099 C 
BRANCH  18  19
HETATM   19  C   UNL     1      38.364  -8.609   4.350  1.00  0.00     0.048 C 
BRANCH  19  20
HETATM   20  C   UNL     1      38.811  -8.988   5.749  1.00  0.00    -0.083 C 
HETATM   21  C   UNL     1      39.390  -7.893   6.614  1.00  0.00     0.034 C 
HETATM   22  C   UNL     1      40.127  -8.413   7.854  1.00  0.00     0.005 C 
HETATM   23  C   UNL     1      39.371  -9.561   8.517  1.00  0.00     0.004 C 
HETATM   24  C   UNL     1      39.158 -10.716   7.542  1.00  0.00     0.027 C 
HETATM   25  C   UNL     1      38.718 -10.260   6.183  1.00  0.00    -0.024 C 
ENDBRANCH  19  20
ENDBRANCH  18  19
ENDBRANCH  15  18
ENDBRANCH  12  14
BRANCH  13  26
HETATM   26  N   UNL     1      39.240 -14.603   2.322  1.00  0.00    -0.286 NA
HETATM   27  H   UNL     1      39.200 -15.574   2.636  1.00  0.00     0.125 HD
HETATM   28  H   UNL     1      39.321 -14.625   1.301  1.00  0.00     0.125 HD
ENDBRANCH  13  26
BRANCH   1  29
HETATM   29  N   UNL     1      41.726 -15.613   3.151  1.00  0.00    -0.176 NA
HETATM   30  C   UNL     1      42.254 -16.346   4.080  1.00  0.00     0.153 C 
BRANCH  30  31
HETATM   31  C   UNL     1      42.939 -17.614   3.734  1.00  0.00     0.016 A 
HETATM   32  C   UNL     1      42.750 -18.142   2.453  1.00  0.00     0.016 A 
HETATM   33  C   UNL     1      43.304 -19.384   2.125  1.00  0.00     0.001 A 
HETATM   34  C   UNL     1      44.040 -20.097   3.073  1.00  0.00     0.003 A 
HETATM   35  C   UNL     1      44.230 -19.573   4.350  1.00  0.00     0.037 A 
HETATM   36  C   UNL     1      43.680 -18.337   4.679  1.00  0.00     0.077 A 
BRANCH  36  37
HETATM   37  O   UNL     1      43.873 -17.902   5.963  1.00  0.00    -0.360 OA
HETATM   38  H   UNL     1      44.773 -17.511   5.983  1.00  0.00     0.217 HD
ENDBRANCH  36  37
ENDBRANCH  30  31
ENDBRANCH   1  29
TORSDOF 8
ENDMDL
