MODEL 1
REMARK VINA RESULT:      -7.9      0.000      0.000
REMARK  6 active torsions:
REMARK  status: ('A' for Active; 'I' for Inactive)
REMARK    1  A    between atoms: C_2  and  N_3 
REMARK    2  A    between atoms: C_2  and  C_21 
REMARK    3  A    between atoms: N_3  and  C_6 
REMARK    4  A    between atoms: C_6  and  C_7 
REMARK       I    between atoms: C_7  and  N_8 
REMARK    5  A    between atoms: N_8  and  C_9 
REMARK    6  A    between atoms: C_16  and  C_17 
REMARK       I    between atoms: C_17  and  N_18 
ROOT
HETATM    1  C   UNL     1      42.261 -14.086   5.936  1.00  0.00     0.248 C 
HETATM    2  N   UNL     1      43.102 -14.595   4.974  1.00  0.00    -0.319 N 
HETATM    3  O   UNL     1      41.431 -14.670   6.628  1.00  0.00    -0.271 OA
HETATM    4  H   UNL     1      43.764 -13.976   4.501  1.00  0.00     0.169 HD
ENDROOT
BRANCH   2   5
HETATM    5  C   UNL     1      43.297 -15.930   4.647  1.00  0.00     0.093 A 
HETATM    6  S   UNL     1      43.915 -17.050   5.778  1.00  0.00    -0.075 SA
HETATM    7  C   UNL     1      43.892 -18.257   4.630  1.00  0.00    -0.008 A 
HETATM    8  C   UNL     1      43.407 -17.869   3.410  1.00  0.00    -0.026 A 
HETATM    9  C   UNL     1      44.345 -19.665   4.701  1.00  0.00     0.047 C 
HETATM   10  C   UNL     1      43.467 -19.005   2.449  1.00  0.00     0.041 C 
HETATM   11  C   UNL     1      43.043 -16.490   3.388  1.00  0.00     0.072 A 
HETATM   12  C   UNL     1      43.775 -20.228   3.369  1.00  0.00     0.010 C 
BRANCH  11  13
HETATM   13  C   UNL     1      42.536 -15.667   2.289  1.00  0.00     0.252 C 
HETATM   14  N   UNL     1      43.290 -15.589   1.160  1.00  0.00    -0.366 N 
HETATM   15  H   UNL     1      44.087 -16.181   0.989  1.00  0.00     0.159 HD
HETATM   16  H   UNL     1      42.903 -15.090   0.369  1.00  0.00     0.159 HD
HETATM   17  O   UNL     1      41.456 -15.078   2.362  1.00  0.00    -0.268 OA
ENDBRANCH  11  13
ENDBRANCH   2   5
BRANCH   1  18
HETATM   18  C   UNL     1      42.496 -12.605   6.222  1.00  0.00     0.335 C 
BRANCH  18  19
HETATM   19  N   UNL     1      43.580 -12.422   7.259  1.00  0.00    -0.057 N 
HETATM   20  H   UNL     1      44.234 -13.213   7.102  1.00  0.00     0.278 HD
HETATM   21  H   UNL     1      43.201 -12.550   8.201  1.00  0.00     0.278 HD
BRANCH  19  22
HETATM   22  C   UNL     1      44.428 -11.180   7.203  1.00  0.00     0.239 C 
HETATM   23  C   UNL     1      45.728 -11.456   6.458  1.00  0.00     0.047 C 
BRANCH  22  24
HETATM   24  C   UNL     1      44.616 -10.566   8.544  1.00  0.00     0.082 A 
HETATM   25  O   UNL     1      43.926 -11.180   9.550  1.00  0.00    -0.325 OA
HETATM   26  C   UNL     1      44.226 -10.527  10.701  1.00  0.00     0.142 A 
HETATM   27  C   UNL     1      45.101  -9.497  10.450  1.00  0.00     0.027 A 
HETATM   28  C   UNL     1      45.354  -9.518   9.056  1.00  0.00     0.037 A 
ENDBRANCH  22  24
ENDBRANCH  19  22
ENDBRANCH  18  19
ENDBRANCH   1  18
TORSDOF 6
ENDMDL
MODEL 2
REMARK VINA RESULT:      -7.5      1.743      2.900
REMARK  6 active torsions:
REMARK  status: ('A' for Active; 'I' for Inactive)
REMARK    1  A    between atoms: C_2  and  N_3 
REMARK    2  A    between atoms: C_2  and  C_21 
REMARK    3  A    between atoms: N_3  and  C_6 
REMARK    4  A    between atoms: C_6  and  C_7 
REMARK       I    between atoms: C_7  and  N_8 
REMARK    5  A    between atoms: N_8  and  C_9 
REMARK    6  A    between atoms: C_16  and  C_17 
REMARK       I    between atoms: C_17  and  N_18 
ROOT
HETATM    1  C   UNL     1      41.921 -14.534   4.008  1.00  0.00     0.248 C 
HETATM    2  N   UNL     1      43.134 -15.182   3.961  1.00  0.00    -0.319 N 
HETATM    3  O   UNL     1      40.792 -14.989   3.846  1.00  0.00    -0.271 OA
HETATM    4  H   UNL     1      43.994 -14.662   4.148  1.00  0.00     0.169 HD
ENDROOT
BRANCH   2   5
HETATM    5  C   UNL     1      43.355 -16.548   3.840  1.00  0.00     0.093 A 
HETATM    6  S   UNL     1      43.194 -17.352   2.343  1.00  0.00    -0.075 SA
HETATM    7  C   UNL     1      43.531 -18.814   3.068  1.00  0.00    -0.008 A 
HETATM    8  C   UNL     1      43.794 -18.735   4.409  1.00  0.00    -0.026 A 
HETATM    9  C   UNL     1      43.555 -20.186   2.509  1.00  0.00     0.047 C 
HETATM   10  C   UNL     1      44.041 -20.094   4.965  1.00  0.00     0.041 C 
HETATM   11  C   UNL     1      43.699 -17.399   4.898  1.00  0.00     0.072 A 
HETATM   12  C   UNL     1      44.193 -20.976   3.686  1.00  0.00     0.010 C 
BRANCH  11  13
HETATM   13  C   UNL     1      43.851 -16.880   6.259  1.00  0.00     0.252 C 
HETATM   14  N   UNL     1      43.371 -17.640   7.280  1.00  0.00    -0.366 N 
HETATM   15  H   UNL     1      43.063 -18.592   7.160  1.00  0.00     0.159 HD
HETATM   16  H   UNL     1      43.550 -17.325   8.225  1.00  0.00     0.159 HD
HETATM   17  O   UNL     1      44.411 -15.807   6.487  1.00  0.00    -0.268 OA
ENDBRANCH  11  13
ENDBRANCH   2   5
BRANCH   1  18
HETATM   18  C   UNL     1      42.036 -13.069   4.422  1.00  0.00     0.335 C 
BRANCH  18  19
HETATM   19  N   UNL     1      43.065 -12.896   5.514  1.00  0.00    -0.057 N 
HETATM   20  H   UNL     1      43.966 -12.774   5.013  1.00  0.00     0.278 HD
HETATM   21  H   UNL     1      43.159 -13.758   6.060  1.00  0.00     0.278 HD
BRANCH  19  22
HETATM   22  C   UNL     1      42.949 -11.710   6.432  1.00  0.00     0.239 C 
HETATM   23  C   UNL     1      42.149 -10.597   5.765  1.00  0.00     0.047 C 
BRANCH  22  24
HETATM   24  C   UNL     1      44.269 -11.275   6.959  1.00  0.00     0.082 A 
HETATM   25  O   UNL     1      44.253 -10.865   8.262  1.00  0.00    -0.325 OA
HETATM   26  C   UNL     1      45.525 -10.535   8.596  1.00  0.00     0.142 A 
HETATM   27  C   UNL     1      46.365 -10.725   7.525  1.00  0.00     0.027 A 
HETATM   28  C   UNL     1      45.556 -11.202   6.463  1.00  0.00     0.037 A 
ENDBRANCH  22  24
ENDBRANCH  19  22
ENDBRANCH  18  19
ENDBRANCH   1  18
TORSDOF 6
ENDMDL
MODEL 3
REMARK VINA RESULT:      -7.5      1.356      1.855
REMARK  6 active torsions:
REMARK  status: ('A' for Active; 'I' for Inactive)
REMARK    1  A    between atoms: C_2  and  N_3 
REMARK    2  A    between atoms: C_2  and  C_21 
REMARK    3  A    between atoms: N_3  and  C_6 
REMARK    4  A    between atoms: C_6  and  C_7 
REMARK       I    between atoms: C_7  and  N_8 
REMARK    5  A    between atoms: N_8  and  C_9 
REMARK    6  A    between atoms: C_16  and  C_17 
REMARK       I    between atoms: C_17  and  N_18 
ROOT
HETATM    1  C   UNL     1      41.803 -14.513   5.383  1.00  0.00     0.248 C 
HETATM    2  N   UNL     1      42.991 -15.082   4.986  1.00  0.00    -0.319 N 
HETATM    3  O   UNL     1      40.669 -14.984   5.352  1.00  0.00    -0.271 OA
HETATM    4  H   UNL     1      43.865 -14.565   5.104  1.00  0.00     0.169 HD
ENDROOT
BRANCH   2   5
HETATM    5  C   UNL     1      43.200 -16.389   4.568  1.00  0.00     0.093 A 
HETATM    6  S   UNL     1      43.727 -17.602   5.648  1.00  0.00    -0.075 SA
HETATM    7  C   UNL     1      43.780 -18.714   4.408  1.00  0.00    -0.008 A 
HETATM    8  C   UNL     1      43.388 -18.225   3.191  1.00  0.00    -0.026 A 
HETATM    9  C   UNL     1      44.217 -20.129   4.399  1.00  0.00     0.047 C 
HETATM   10  C   UNL     1      43.510 -19.282   2.149  1.00  0.00     0.041 C 
HETATM   11  C   UNL     1      43.035 -16.844   3.253  1.00  0.00     0.072 A 
HETATM   12  C   UNL     1      43.743 -20.578   2.988  1.00  0.00     0.010 C 
BRANCH  11  13
HETATM   13  C   UNL     1      42.614 -15.931   2.190  1.00  0.00     0.252 C 
HETATM   14  N   UNL     1      43.568 -15.483   1.330  1.00  0.00    -0.366 N 
HETATM   15  H   UNL     1      44.500 -15.864   1.296  1.00  0.00     0.159 HD
HETATM   16  H   UNL     1      43.267 -14.919   0.546  1.00  0.00     0.159 HD
HETATM   17  O   UNL     1      41.439 -15.588   2.054  1.00  0.00    -0.268 OA
ENDBRANCH  11  13
ENDBRANCH   2   5
BRANCH   1  18
HETATM   18  C   UNL     1      41.978 -13.146   6.040  1.00  0.00     0.335 C 
BRANCH  18  19
HETATM   19  N   UNL     1      41.912 -12.042   5.011  1.00  0.00    -0.057 N 
HETATM   20  H   UNL     1      41.225 -11.363   5.394  1.00  0.00     0.278 HD
HETATM   21  H   UNL     1      41.510 -12.389   4.136  1.00  0.00     0.278 HD
BRANCH  19  22
HETATM   22  C   UNL     1      43.156 -11.243   4.731  1.00  0.00     0.239 C 
HETATM   23  C   UNL     1      43.891 -11.810   3.522  1.00  0.00     0.047 C 
BRANCH  22  24
HETATM   24  C   UNL     1      44.007 -11.085   5.939  1.00  0.00     0.082 A 
HETATM   25  O   UNL     1      43.476 -10.280   6.906  1.00  0.00    -0.325 OA
HETATM   26  C   UNL     1      44.351 -10.264   7.942  1.00  0.00     0.142 A 
HETATM   27  C   UNL     1      45.443 -11.049   7.657  1.00  0.00     0.027 A 
HETATM   28  C   UNL     1      45.225 -11.581   6.361  1.00  0.00     0.037 A 
ENDBRANCH  22  24
ENDBRANCH  19  22
ENDBRANCH  18  19
ENDBRANCH   1  18
TORSDOF 6
ENDMDL
MODEL 4
REMARK VINA RESULT:      -7.4      1.788      2.650
REMARK  6 active torsions:
REMARK  status: ('A' for Active; 'I' for Inactive)
REMARK    1  A    between atoms: C_2  and  N_3 
REMARK    2  A    between atoms: C_2  and  C_21 
REMARK    3  A    between atoms: N_3  and  C_6 
REMARK    4  A    between atoms: C_6  and  C_7 
REMARK       I    between atoms: C_7  and  N_8 
REMARK    5  A    between atoms: N_8  and  C_9 
REMARK    6  A    between atoms: C_16  and  C_17 
REMARK       I    between atoms: C_17  and  N_18 
ROOT
HETATM    1  C   UNL     1      42.881 -13.275   4.866  1.00  0.00     0.248 C 
HETATM    2  N   UNL     1      42.682 -14.554   5.330  1.00  0.00    -0.319 N 
HETATM    3  O   UNL     1      43.410 -12.902   3.822  1.00  0.00    -0.271 OA
HETATM    4  H   UNL     1      42.194 -14.702   6.216  1.00  0.00     0.169 HD
ENDROOT
BRANCH   2   5
HETATM    5  C   UNL     1      42.926 -15.743   4.654  1.00  0.00     0.093 A 
HETATM    6  S   UNL     1      42.375 -15.995   3.058  1.00  0.00    -0.075 SA
HETATM    7  C   UNL     1      42.982 -17.547   3.070  1.00  0.00    -0.008 A 
HETATM    8  C   UNL     1      43.620 -17.897   4.229  1.00  0.00    -0.026 A 
HETATM    9  C   UNL     1      42.910 -18.619   2.051  1.00  0.00     0.047 C 
HETATM   10  C   UNL     1      44.087 -19.309   4.153  1.00  0.00     0.041 C 
HETATM   11  C   UNL     1      43.606 -16.843   5.191  1.00  0.00     0.072 A 
HETATM   12  C   UNL     1      43.903 -19.659   2.643  1.00  0.00     0.010 C 
BRANCH  11  13
HETATM   13  C   UNL     1      44.123 -16.810   6.560  1.00  0.00     0.252 C 
HETATM   14  N   UNL     1      43.455 -17.528   7.504  1.00  0.00    -0.366 N 
HETATM   15  H   UNL     1      42.730 -18.190   7.279  1.00  0.00     0.159 HD
HETATM   16  H   UNL     1      43.857 -17.575   8.431  1.00  0.00     0.159 HD
HETATM   17  O   UNL     1      45.137 -16.178   6.858  1.00  0.00    -0.268 OA
ENDBRANCH  11  13
ENDBRANCH   2   5
BRANCH   1  18
HETATM   18  C   UNL     1      42.252 -12.206   5.755  1.00  0.00     0.335 C 
BRANCH  18  19
HETATM   19  N   UNL     1      43.025 -12.054   7.045  1.00  0.00    -0.057 N 
HETATM   20  H   UNL     1      43.517 -12.960   7.168  1.00  0.00     0.278 HD
HETATM   21  H   UNL     1      42.385 -11.968   7.839  1.00  0.00     0.278 HD
BRANCH  19  22
HETATM   22  C   UNL     1      44.096 -11.000   7.123  1.00  0.00     0.239 C 
HETATM   23  C   UNL     1      45.421 -11.549   6.608  1.00  0.00     0.047 C 
BRANCH  22  24
HETATM   24  C   UNL     1      44.179 -10.381   8.472  1.00  0.00     0.082 A 
HETATM   25  O   UNL     1      45.256 -10.778   9.213  1.00  0.00    -0.325 OA
HETATM   26  C   UNL     1      45.203 -10.107  10.391  1.00  0.00     0.142 A 
HETATM   27  C   UNL     1      44.105  -9.281  10.421  1.00  0.00     0.027 A 
HETATM   28  C   UNL     1      43.439  -9.457   9.182  1.00  0.00     0.037 A 
ENDBRANCH  22  24
ENDBRANCH  19  22
ENDBRANCH  18  19
ENDBRANCH   1  18
TORSDOF 6
ENDMDL
MODEL 5
REMARK VINA RESULT:      -7.3      1.762      2.432
REMARK  6 active torsions:
REMARK  status: ('A' for Active; 'I' for Inactive)
REMARK    1  A    between atoms: C_2  and  N_3 
REMARK    2  A    between atoms: C_2  and  C_21 
REMARK    3  A    between atoms: N_3  and  C_6 
REMARK    4  A    between atoms: C_6  and  C_7 
REMARK       I    between atoms: C_7  and  N_8 
REMARK    5  A    between atoms: N_8  and  C_9 
REMARK    6  A    between atoms: C_16  and  C_17 
REMARK       I    between atoms: C_17  and  N_18 
ROOT
HETATM    1  C   UNL     1      40.393 -13.726   5.589  1.00  0.00     0.248 C 
HETATM    2  N   UNL     1      41.291 -13.971   4.577  1.00  0.00    -0.319 N 
HETATM    3  O   UNL     1      39.902 -14.510   6.397  1.00  0.00    -0.271 OA
HETATM    4  H   UNL     1      41.630 -13.197   4.001  1.00  0.00     0.169 HD
ENDROOT
BRANCH   2   5
HETATM    5  C   UNL     1      41.956 -15.161   4.310  1.00  0.00     0.093 A 
HETATM    6  S   UNL     1      42.992 -15.885   5.458  1.00  0.00    -0.075 SA
HETATM    7  C   UNL     1      43.374 -17.097   4.381  1.00  0.00    -0.008 A 
HETATM    8  C   UNL     1      42.731 -17.009   3.176  1.00  0.00    -0.026 A 
HETATM    9  C   UNL     1      44.322 -18.229   4.500  1.00  0.00     0.047 C 
HETATM   10  C   UNL     1      43.171 -18.111   2.277  1.00  0.00     0.041 C 
HETATM   11  C   UNL     1      41.878 -15.867   3.103  1.00  0.00     0.072 A 
HETATM   12  C   UNL     1      43.950 -19.061   3.240  1.00  0.00     0.010 C 
BRANCH  11  13
HETATM   13  C   UNL     1      41.057 -15.374   1.997  1.00  0.00     0.252 C 
HETATM   14  N   UNL     1      41.702 -14.899   0.896  1.00  0.00    -0.366 N 
HETATM   15  H   UNL     1      42.691 -15.013   0.747  1.00  0.00     0.159 HD
HETATM   16  H   UNL     1      41.138 -14.637   0.098  1.00  0.00     0.159 HD
HETATM   17  O   UNL     1      39.826 -15.401   2.037  1.00  0.00    -0.268 OA
ENDBRANCH  11  13
ENDBRANCH   2   5
BRANCH   1  18
HETATM   18  C   UNL     1      40.065 -12.245   5.761  1.00  0.00     0.335 C 
BRANCH  18  19
HETATM   19  N   UNL     1      41.039 -11.584   6.707  1.00  0.00    -0.057 N 
HETATM   20  H   UNL     1      41.660 -12.352   7.029  1.00  0.00     0.278 HD
HETATM   21  H   UNL     1      40.554 -11.243   7.542  1.00  0.00     0.278 HD
BRANCH  19  22
HETATM   22  C   UNL     1      41.959 -10.521   6.169  1.00  0.00     0.239 C 
HETATM   23  C   UNL     1      41.577 -10.163   4.738  1.00  0.00     0.047 C 
BRANCH  22  24
HETATM   24  C   UNL     1      43.392 -10.875   6.344  1.00  0.00     0.082 A 
HETATM   25  O   UNL     1      43.958 -10.398   7.492  1.00  0.00    -0.325 OA
HETATM   26  C   UNL     1      45.244 -10.830   7.515  1.00  0.00     0.142 A 
HETATM   27  C   UNL     1      45.517 -11.579   6.396  1.00  0.00     0.027 A 
HETATM   28  C   UNL     1      44.322 -11.609   5.635  1.00  0.00     0.037 A 
ENDBRANCH  22  24
ENDBRANCH  19  22
ENDBRANCH  18  19
ENDBRANCH   1  18
TORSDOF 6
ENDMDL
MODEL 6
REMARK VINA RESULT:      -7.3      4.533      7.019
REMARK  6 active torsions:
REMARK  status: ('A' for Active; 'I' for Inactive)
REMARK    1  A    between atoms: C_2  and  N_3 
REMARK    2  A    between atoms: C_2  and  C_21 
REMARK    3  A    between atoms: N_3  and  C_6 
REMARK    4  A    between atoms: C_6  and  C_7 
REMARK       I    between atoms: C_7  and  N_8 
REMARK    5  A    between atoms: N_8  and  C_9 
REMARK    6  A    between atoms: C_16  and  C_17 
REMARK       I    between atoms: C_17  and  N_18 
ROOT
HETATM    1  C   UNL     1      40.284 -12.925   3.745  1.00  0.00     0.248 C 
HETATM    2  N   UNL     1      40.035 -14.272   3.876  1.00  0.00    -0.319 N 
HETATM    3  O   UNL     1      41.361 -12.335   3.713  1.00  0.00    -0.271 OA
HETATM    4  H   UNL     1      39.072 -14.613   3.856  1.00  0.00     0.169 HD
ENDROOT
BRANCH   2   5
HETATM    5  C   UNL     1      40.964 -15.304   3.877  1.00  0.00     0.093 A 
HETATM    6  S   UNL     1      41.717 -15.830   5.317  1.00  0.00    -0.075 SA
HETATM    7  C   UNL     1      42.635 -16.926   4.462  1.00  0.00    -0.008 A 
HETATM    8  C   UNL     1      42.388 -16.946   3.116  1.00  0.00    -0.026 A 
HETATM    9  C   UNL     1      43.699 -17.853   4.913  1.00  0.00     0.047 C 
HETATM   10  C   UNL     1      43.284 -17.926   2.443  1.00  0.00     0.041 C 
HETATM   11  C   UNL     1      41.396 -15.992   2.737  1.00  0.00     0.072 A 
HETATM   12  C   UNL     1      43.897 -18.721   3.638  1.00  0.00     0.010 C 
BRANCH  11  13
HETATM   13  C   UNL     1      40.875 -15.651   1.412  1.00  0.00     0.252 C 
HETATM   14  N   UNL     1      41.690 -14.957   0.573  1.00  0.00    -0.366 N 
HETATM   15  H   UNL     1      42.669 -14.805   0.759  1.00  0.00     0.159 HD
HETATM   16  H   UNL     1      41.365 -14.793  -0.370  1.00  0.00     0.159 HD
HETATM   17  O   UNL     1      39.749 -15.993   1.049  1.00  0.00    -0.268 OA
ENDBRANCH  11  13
ENDBRANCH   2   5
BRANCH   1  18
HETATM   18  C   UNL     1      39.023 -12.099   3.508  1.00  0.00     0.335 C 
BRANCH  18  19
HETATM   19  N   UNL     1      38.481 -12.329   2.117  1.00  0.00    -0.057 N 
HETATM   20  H   UNL     1      37.619 -11.753   2.068  1.00  0.00     0.278 HD
HETATM   21  H   UNL     1      38.179 -13.301   2.005  1.00  0.00     0.278 HD
BRANCH  19  22
HETATM   22  C   UNL     1      39.316 -11.906   0.939  1.00  0.00     0.239 C 
HETATM   23  C   UNL     1      39.550 -10.400   0.966  1.00  0.00     0.047 C 
BRANCH  22  24
HETATM   24  C   UNL     1      38.772 -12.412  -0.349  1.00  0.00     0.082 A 
HETATM   25  O   UNL     1      39.445 -13.480  -0.869  1.00  0.00    -0.325 OA
HETATM   26  C   UNL     1      38.811 -13.836  -2.014  1.00  0.00     0.142 A 
HETATM   27  C   UNL     1      37.737 -13.010  -2.242  1.00  0.00     0.027 A 
HETATM   28  C   UNL     1      37.709 -12.086  -1.167  1.00  0.00     0.037 A 
ENDBRANCH  22  24
ENDBRANCH  19  22
ENDBRANCH  18  19
ENDBRANCH   1  18
TORSDOF 6
ENDMDL
MODEL 7
REMARK VINA RESULT:      -7.2      2.135      3.287
REMARK  6 active torsions:
REMARK  status: ('A' for Active; 'I' for Inactive)
REMARK    1  A    between atoms: C_2  and  N_3 
REMARK    2  A    between atoms: C_2  and  C_21 
REMARK    3  A    between atoms: N_3  and  C_6 
REMARK    4  A    between atoms: C_6  and  C_7 
REMARK       I    between atoms: C_7  and  N_8 
REMARK    5  A    between atoms: N_8  and  C_9 
REMARK    6  A    between atoms: C_16  and  C_17 
REMARK       I    between atoms: C_17  and  N_18 
ROOT
HETATM    1  C   UNL     1      41.137 -12.340   4.892  1.00  0.00     0.248 C 
HETATM    2  N   UNL     1      42.381 -12.922   4.955  1.00  0.00    -0.319 N 
HETATM    3  O   UNL     1      40.109 -12.762   4.370  1.00  0.00    -0.271 OA
HETATM    4  H   UNL     1      43.137 -12.450   5.457  1.00  0.00     0.169 HD
ENDROOT
BRANCH   2   5
HETATM    5  C   UNL     1      42.735 -14.200   4.543  1.00  0.00     0.093 A 
HETATM    6  S   UNL     1      42.840 -14.611   2.889  1.00  0.00    -0.075 SA
HETATM    7  C   UNL     1      43.208 -16.188   3.282  1.00  0.00    -0.008 A 
HETATM    8  C   UNL     1      43.288 -16.434   4.626  1.00  0.00    -0.026 A 
HETATM    9  C   UNL     1      43.424 -17.371   2.418  1.00  0.00     0.047 C 
HETATM   10  C   UNL     1      43.580 -17.873   4.868  1.00  0.00     0.041 C 
HETATM   11  C   UNL     1      43.013 -15.269   5.403  1.00  0.00     0.072 A 
HETATM   12  C   UNL     1      43.973 -18.396   3.451  1.00  0.00     0.010 C 
BRANCH  11  13
HETATM   13  C   UNL     1      42.943 -15.102   6.856  1.00  0.00     0.252 C 
HETATM   14  N   UNL     1      42.494 -16.155   7.591  1.00  0.00    -0.366 N 
HETATM   15  H   UNL     1      42.358 -17.076   7.206  1.00  0.00     0.159 HD
HETATM   16  H   UNL     1      42.523 -16.072   8.599  1.00  0.00     0.159 HD
HETATM   17  O   UNL     1      43.295 -14.059   7.408  1.00  0.00    -0.268 OA
ENDBRANCH  11  13
ENDBRANCH   2   5
BRANCH   1  18
HETATM   18  C   UNL     1      41.039 -11.036   5.681  1.00  0.00     0.335 C 
BRANCH  18  19
HETATM   19  N   UNL     1      41.711 -11.170   7.028  1.00  0.00    -0.057 N 
HETATM   20  H   UNL     1      42.356 -11.977   6.924  1.00  0.00     0.278 HD
HETATM   21  H   UNL     1      41.031 -11.440   7.743  1.00  0.00     0.278 HD
BRANCH  19  22
HETATM   22  C   UNL     1      42.563 -10.033   7.524  1.00  0.00     0.239 C 
HETATM   23  C   UNL     1      42.173  -8.734   6.830  1.00  0.00     0.047 C 
BRANCH  22  24
HETATM   24  C   UNL     1      44.015 -10.346   7.453  1.00  0.00     0.082 A 
HETATM   25  O   UNL     1      44.368 -11.169   6.422  1.00  0.00    -0.325 OA
HETATM   26  C   UNL     1      45.714 -11.330   6.479  1.00  0.00     0.142 A 
HETATM   27  C   UNL     1      46.236 -10.621   7.534  1.00  0.00     0.027 A 
HETATM   28  C   UNL     1      45.139  -9.984   8.168  1.00  0.00     0.037 A 
ENDBRANCH  22  24
ENDBRANCH  19  22
ENDBRANCH  18  19
ENDBRANCH   1  18
TORSDOF 6
ENDMDL
MODEL 8
REMARK VINA RESULT:      -7.2      2.488      3.678
REMARK  6 active torsions:
REMARK  status: ('A' for Active; 'I' for Inactive)
REMARK    1  A    between atoms: C_2  and  N_3 
REMARK    2  A    between atoms: C_2  and  C_21 
REMARK    3  A    between atoms: N_3  and  C_6 
REMARK    4  A    between atoms: C_6  and  C_7 
REMARK       I    between atoms: C_7  and  N_8 
REMARK    5  A    between atoms: N_8  and  C_9 
REMARK    6  A    between atoms: C_16  and  C_17 
REMARK       I    between atoms: C_17  and  N_18 
ROOT
HETATM    1  C   UNL     1      43.612 -11.815   7.149  1.00  0.00     0.248 C 
HETATM    2  N   UNL     1      42.606 -12.243   6.314  1.00  0.00    -0.319 N 
HETATM    3  O   UNL     1      44.721 -12.306   7.343  1.00  0.00    -0.271 OA
HETATM    4  H   UNL     1      41.742 -11.701   6.242  1.00  0.00     0.169 HD
ENDROOT
BRANCH   2   5
HETATM    5  C   UNL     1      42.662 -13.278   5.390  1.00  0.00     0.093 A 
HETATM    6  S   UNL     1      42.285 -14.886   5.822  1.00  0.00    -0.075 SA
HETATM    7  C   UNL     1      42.654 -15.409   4.284  1.00  0.00    -0.008 A 
HETATM    8  C   UNL     1      43.031 -14.415   3.422  1.00  0.00    -0.026 A 
HETATM    9  C   UNL     1      42.677 -16.774   3.708  1.00  0.00     0.047 C 
HETATM   10  C   UNL     1      43.375 -14.991   2.093  1.00  0.00     0.041 C 
HETATM   11  C   UNL     1      43.044 -13.134   4.050  1.00  0.00     0.072 A 
HETATM   12  C   UNL     1      42.847 -16.456   2.196  1.00  0.00     0.010 C 
BRANCH  11  13
HETATM   13  C   UNL     1      43.427 -11.827   3.515  1.00  0.00     0.252 C 
HETATM   14  N   UNL     1      42.582 -11.236   2.627  1.00  0.00    -0.366 N 
HETATM   15  H   UNL     1      41.652 -11.577   2.444  1.00  0.00     0.159 HD
HETATM   16  H   UNL     1      42.803 -10.298   2.321  1.00  0.00     0.159 HD
HETATM   17  O   UNL     1      44.464 -11.260   3.864  1.00  0.00    -0.268 OA
ENDBRANCH  11  13
ENDBRANCH   2   5
BRANCH   1  18
HETATM   18  C   UNL     1      43.304 -10.485   7.832  1.00  0.00     0.335 C 
BRANCH  18  19
HETATM   19  N   UNL     1      43.328 -10.634   9.335  1.00  0.00    -0.057 N 
HETATM   20  H   UNL     1      43.867 -11.504   9.508  1.00  0.00     0.278 HD
HETATM   21  H   UNL     1      42.385 -10.808   9.694  1.00  0.00     0.278 HD
BRANCH  19  22
HETATM   22  C   UNL     1      44.008  -9.570  10.154  1.00  0.00     0.239 C 
HETATM   23  C   UNL     1      45.511  -9.818  10.207  1.00  0.00     0.047 C 
BRANCH  22  24
HETATM   24  C   UNL     1      43.375  -9.395  11.488  1.00  0.00     0.082 A 
HETATM   25  O   UNL     1      43.580  -8.171  12.057  1.00  0.00    -0.325 OA
HETATM   26  C   UNL     1      42.920  -8.162  13.242  1.00  0.00     0.142 A 
HETATM   27  C   UNL     1      42.291  -9.367  13.446  1.00  0.00     0.027 A 
HETATM   28  C   UNL     1      42.584 -10.168  12.314  1.00  0.00     0.037 A 
ENDBRANCH  22  24
ENDBRANCH  19  22
ENDBRANCH  18  19
ENDBRANCH   1  18
TORSDOF 6
ENDMDL
MODEL 9
REMARK VINA RESULT:      -7.1      3.525      5.286
REMARK  6 active torsions:
REMARK  status: ('A' for Active; 'I' for Inactive)
REMARK    1  A    between atoms: C_2  and  N_3 
REMARK    2  A    between atoms: C_2  and  C_21 
REMARK    3  A    between atoms: N_3  and  C_6 
REMARK    4  A    between atoms: C_6  and  C_7 
REMARK       I    between atoms: C_7  and  N_8 
REMARK    5  A    between atoms: N_8  and  C_9 
REMARK    6  A    between atoms: C_16  and  C_17 
REMARK       I    between atoms: C_17  and  N_18 
ROOT
HETATM    1  C   UNL     1      41.996 -14.780   4.733  1.00  0.00     0.248 C 
HETATM    2  N   UNL     1      43.094 -15.350   4.131  1.00  0.00    -0.319 N 
HETATM    3  O   UNL     1      40.944 -15.307   5.085  1.00  0.00    -0.271 OA
HETATM    4  H   UNL     1      43.914 -14.775   3.923  1.00  0.00     0.169 HD
ENDROOT
BRANCH   2   5
HETATM    5  C   UNL     1      43.319 -16.700   3.893  1.00  0.00     0.093 A 
HETATM    6  S   UNL     1      43.016 -17.403   2.367  1.00  0.00    -0.075 SA
HETATM    7  C   UNL     1      43.443 -18.905   2.950  1.00  0.00    -0.008 A 
HETATM    8  C   UNL     1      43.839 -18.913   4.260  1.00  0.00    -0.026 A 
HETATM    9  C   UNL     1      43.427 -20.233   2.296  1.00  0.00     0.047 C 
HETATM   10  C   UNL     1      44.159 -20.301   4.692  1.00  0.00     0.041 C 
HETATM   11  C   UNL     1      43.778 -17.615   4.849  1.00  0.00     0.072 A 
HETATM   12  C   UNL     1      44.191 -21.090   3.345  1.00  0.00     0.010 C 
BRANCH  11  13
HETATM   13  C   UNL     1      44.062 -17.188   6.220  1.00  0.00     0.252 C 
HETATM   14  N   UNL     1      43.311 -17.732   7.217  1.00  0.00    -0.366 N 
HETATM   15  H   UNL     1      42.690 -18.511   7.075  1.00  0.00     0.159 HD
HETATM   16  H   UNL     1      43.560 -17.503   8.171  1.00  0.00     0.159 HD
HETATM   17  O   UNL     1      44.958 -16.384   6.479  1.00  0.00    -0.268 OA
ENDBRANCH  11  13
ENDBRANCH   2   5
BRANCH   1  18
HETATM   18  C   UNL     1      42.197 -13.308   5.084  1.00  0.00     0.335 C 
BRANCH  18  19
HETATM   19  N   UNL     1      43.176 -12.657   4.136  1.00  0.00    -0.057 N 
HETATM   20  H   UNL     1      43.625 -13.447   3.633  1.00  0.00     0.278 HD
HETATM   21  H   UNL     1      43.924 -12.190   4.656  1.00  0.00     0.278 HD
BRANCH  19  22
HETATM   22  C   UNL     1      42.643 -11.747   3.063  1.00  0.00     0.239 C 
HETATM   23  C   UNL     1      42.171 -10.430   3.668  1.00  0.00     0.047 C 
BRANCH  22  24
HETATM   24  C   UNL     1      41.630 -12.418   2.206  1.00  0.00     0.082 A 
HETATM   25  O   UNL     1      40.372 -11.898   2.302  1.00  0.00    -0.325 OA
HETATM   26  C   UNL     1      39.582 -12.593   1.445  1.00  0.00     0.142 A 
HETATM   27  C   UNL     1      40.315 -13.558   0.798  1.00  0.00     0.027 A 
HETATM   28  C   UNL     1      41.641 -13.450   1.288  1.00  0.00     0.037 A 
ENDBRANCH  22  24
ENDBRANCH  19  22
ENDBRANCH  18  19
ENDBRANCH   1  18
TORSDOF 6
ENDMDL
MODEL 10
REMARK VINA RESULT:      -7.0      4.397      8.378
REMARK  6 active torsions:
REMARK  status: ('A' for Active; 'I' for Inactive)
REMARK    1  A    between atoms: C_2  and  N_3 
REMARK    2  A    between atoms: C_2  and  C_21 
REMARK    3  A    between atoms: N_3  and  C_6 
REMARK    4  A    between atoms: C_6  and  C_7 
REMARK       I    between atoms: C_7  and  N_8 
REMARK    5  A    between atoms: N_8  and  C_9 
REMARK    6  A    between atoms: C_16  and  C_17 
REMARK       I    between atoms: C_17  and  N_18 
ROOT
HETATM    1  C   UNL     1      40.837 -13.963   0.409  1.00  0.00     0.248 C 
HETATM    2  N   UNL     1      41.946 -13.940   1.222  1.00  0.00    -0.319 N 
HETATM    3  O   UNL     1      40.054 -14.884   0.191  1.00  0.00    -0.271 OA
HETATM    4  H   UNL     1      42.485 -13.077   1.320  1.00  0.00     0.169 HD
ENDROOT
BRANCH   2   5
HETATM    5  C   UNL     1      42.371 -14.933   2.096  1.00  0.00     0.093 A 
HETATM    6  S   UNL     1      43.223 -16.306   1.545  1.00  0.00    -0.075 SA
HETATM    7  C   UNL     1      43.258 -16.931   3.090  1.00  0.00    -0.008 A 
HETATM    8  C   UNL     1      42.673 -16.134   4.037  1.00  0.00    -0.026 A 
HETATM    9  C   UNL     1      43.783 -18.219   3.598  1.00  0.00     0.047 C 
HETATM   10  C   UNL     1      42.721 -16.799   5.368  1.00  0.00     0.041 C 
HETATM   11  C   UNL     1      42.136 -14.936   3.477  1.00  0.00     0.072 A 
HETATM   12  C   UNL     1      43.707 -17.986   5.133  1.00  0.00     0.010 C 
BRANCH  11  13
HETATM   13  C   UNL     1      41.395 -13.848   4.115  1.00  0.00     0.252 C 
HETATM   14  N   UNL     1      42.028 -13.141   5.090  1.00  0.00    -0.366 N 
HETATM   15  H   UNL     1      43.013 -13.229   5.281  1.00  0.00     0.159 HD
HETATM   16  H   UNL     1      41.549 -12.337   5.473  1.00  0.00     0.159 HD
HETATM   17  O   UNL     1      40.247 -13.557   3.776  1.00  0.00    -0.268 OA
ENDBRANCH  11  13
ENDBRANCH   2   5
BRANCH   1  18
HETATM   18  C   UNL     1      40.515 -12.606  -0.211  1.00  0.00     0.335 C 
BRANCH  18  19
HETATM   19  N   UNL     1      41.352 -12.364  -1.444  1.00  0.00    -0.057 N 
HETATM   20  H   UNL     1      41.851 -13.260  -1.607  1.00  0.00     0.278 HD
HETATM   21  H   UNL     1      42.077 -11.666  -1.255  1.00  0.00     0.278 HD
BRANCH  19  22
HETATM   22  C   UNL     1      40.653 -12.050  -2.739  1.00  0.00     0.239 C 
HETATM   23  C   UNL     1      40.506 -10.543  -2.912  1.00  0.00     0.047 C 
BRANCH  22  24
HETATM   24  C   UNL     1      39.382 -12.806  -2.891  1.00  0.00     0.082 A 
HETATM   25  O   UNL     1      39.536 -14.096  -3.311  1.00  0.00    -0.325 OA
HETATM   26  C   UNL     1      38.299 -14.651  -3.368  1.00  0.00     0.142 A 
HETATM   27  C   UNL     1      37.347 -13.734  -2.991  1.00  0.00     0.027 A 
HETATM   28  C   UNL     1      38.044 -12.538  -2.683  1.00  0.00     0.037 A 
ENDBRANCH  22  24
ENDBRANCH  19  22
ENDBRANCH  18  19
ENDBRANCH   1  18
TORSDOF 6
ENDMDL
