MODEL 1
REMARK VINA RESULT:      -8.9      0.000      0.000
REMARK  6 active torsions:
REMARK  status: ('A' for Active; 'I' for Inactive)
REMARK    1  A    between atoms: C_2  and  C_3 
REMARK    2  A    between atoms: C_3  and  C_4 
REMARK    3  A    between atoms: C_3  and  C_11 
REMARK    4  A    between atoms: C_11  and  C_12 
REMARK       I    between atoms: C_12  and  N_13 
REMARK    5  A    between atoms: N_13  and  C_14 
REMARK    6  A    between atoms: C_21  and  C_22 
REMARK       I    between atoms: C_22  and  N_23 
ROOT
HETATM    1  C   UNL     1      44.315 -12.263   6.913  1.00  0.00     0.035 A 
HETATM    2  C   UNL     1      43.837 -11.903   8.181  1.00  0.00     0.046 A 
HETATM    3  C   UNL     1      44.465 -10.860   8.896  1.00  0.00     0.030 A 
HETATM    4  C   UNL     1      45.552 -10.214   8.322  1.00  0.00     0.063 A 
HETATM    5  N   UNL     1      45.939  -9.275   9.237  1.00  0.00    -0.277 N 
HETATM    6  H   UNL     1      46.706  -8.618   9.155  1.00  0.00     0.189 HD
HETATM    7  N   UNL     1      45.194  -9.244  10.353  1.00  0.00    -0.168 NA
HETATM    8  C   UNL     1      44.275 -10.218  10.157  1.00  0.00     0.156 A 
HETATM    9  C   UNL     1      46.056 -10.543   7.062  1.00  0.00     0.034 A 
HETATM   10  C   UNL     1      45.411 -11.577   6.370  1.00  0.00     0.032 A 
ENDROOT
BRANCH   1  11
HETATM   11  N   UNL     1      43.739 -13.277   6.118  1.00  0.00    -0.327 N 
HETATM   12  C   UNL     1      42.678 -13.149   5.234  1.00  0.00     0.222 C 
HETATM   13  O   UNL     1      41.987 -12.151   5.078  1.00  0.00    -0.273 OA
HETATM   14  H   UNL     1      44.127 -14.206   6.229  1.00  0.00     0.169 HD
BRANCH  12  15
HETATM   15  C   UNL     1      42.411 -14.444   4.479  1.00  0.00     0.112 C 
BRANCH  15  16
HETATM   16  C   UNL     1      42.880 -15.692   5.253  1.00  0.00     0.027 C 
BRANCH  16  17
HETATM   17  C   UNL     1      41.962 -16.081   6.439  1.00  0.00     0.005 C 
HETATM   18  C   UNL     1      40.463 -15.987   6.184  1.00  0.00     0.006 C 
ENDBRANCH  16  17
BRANCH  16  19
HETATM   19  C   UNL     1      43.143 -16.889   4.346  1.00  0.00    -0.053 A 
HETATM   20  C   UNL     1      42.664 -16.966   3.031  1.00  0.00     0.008 A 
HETATM   21  C   UNL     1      42.911 -18.096   2.245  1.00  0.00     0.007 A 
HETATM   22  C   UNL     1      43.649 -19.170   2.752  1.00  0.00    -0.062 A 
HETATM   23  C   UNL     1      43.892 -20.398   1.927  1.00  0.00     0.048 C 
HETATM   24  C   UNL     1      44.120 -19.104   4.065  1.00  0.00     0.007 A 
HETATM   25  C   UNL     1      43.870 -17.978   4.852  1.00  0.00     0.008 A 
ENDBRANCH  16  19
ENDBRANCH  15  16
ENDBRANCH  12  15
ENDBRANCH   1  11
BRANCH   8  26
HETATM   26  C   UNL     1      43.244 -10.507  11.163  1.00  0.00     0.270 C 
HETATM   27  N   UNL     1      43.578 -11.508  12.034  1.00  0.00    -0.365 N 
HETATM   28  H   UNL     1      44.479 -11.960  11.933  1.00  0.00     0.159 HD
HETATM   29  H   UNL     1      42.934 -11.769  12.764  1.00  0.00     0.159 HD
HETATM   30  O   UNL     1      42.169  -9.923  11.254  1.00  0.00    -0.266 OA
ENDBRANCH   8  26
TORSDOF 6
ENDMDL
MODEL 2
REMARK VINA RESULT:      -8.7      5.863      9.309
REMARK  6 active torsions:
REMARK  status: ('A' for Active; 'I' for Inactive)
REMARK    1  A    between atoms: C_2  and  C_3 
REMARK    2  A    between atoms: C_3  and  C_4 
REMARK    3  A    between atoms: C_3  and  C_11 
REMARK    4  A    between atoms: C_11  and  C_12 
REMARK       I    between atoms: C_12  and  N_13 
REMARK    5  A    between atoms: N_13  and  C_14 
REMARK    6  A    between atoms: C_21  and  C_22 
REMARK       I    between atoms: C_22  and  N_23 
ROOT
HETATM    1  C   UNL     1      40.627 -13.415   0.210  1.00  0.00     0.035 A 
HETATM    2  C   UNL     1      40.004 -14.046  -0.876  1.00  0.00     0.046 A 
HETATM    3  C   UNL     1      38.881 -13.445  -1.484  1.00  0.00     0.030 A 
HETATM    4  C   UNL     1      38.414 -12.236  -0.984  1.00  0.00     0.063 A 
HETATM    5  N   UNL     1      37.335 -11.916  -1.760  1.00  0.00    -0.277 N 
HETATM    6  H   UNL     1      36.743 -11.097  -1.680  1.00  0.00     0.189 HD
HETATM    7  N   UNL     1      37.062 -12.804  -2.729  1.00  0.00    -0.168 NA
HETATM    8  C   UNL     1      38.012 -13.755  -2.575  1.00  0.00     0.156 A 
HETATM    9  C   UNL     1      39.008 -11.578   0.095  1.00  0.00     0.034 A 
HETATM   10  C   UNL     1      40.126 -12.191   0.676  1.00  0.00     0.032 A 
ENDROOT
BRANCH   1  11
HETATM   11  N   UNL     1      41.766 -13.930   0.866  1.00  0.00    -0.327 N 
HETATM   12  C   UNL     1      41.897 -15.172   1.468  1.00  0.00     0.222 C 
HETATM   13  O   UNL     1      41.003 -15.993   1.629  1.00  0.00    -0.273 OA
HETATM   14  H   UNL     1      42.564 -13.310   0.927  1.00  0.00     0.169 HD
BRANCH  12  15
HETATM   15  C   UNL     1      43.312 -15.408   1.978  1.00  0.00     0.112 C 
BRANCH  15  16
HETATM   16  C   UNL     1      43.387 -15.468   3.517  1.00  0.00     0.027 C 
BRANCH  16  17
HETATM   17  C   UNL     1      42.231 -14.728   4.234  1.00  0.00     0.005 C 
HETATM   18  C   UNL     1      42.423 -13.232   4.448  1.00  0.00     0.006 C 
ENDBRANCH  16  17
BRANCH  16  19
HETATM   19  C   UNL     1      43.545 -16.888   4.049  1.00  0.00    -0.053 A 
HETATM   20  C   UNL     1      43.507 -17.195   5.416  1.00  0.00     0.008 A 
HETATM   21  C   UNL     1      43.680 -18.512   5.858  1.00  0.00     0.007 A 
HETATM   22  C   UNL     1      43.888 -19.549   4.944  1.00  0.00    -0.062 A 
HETATM   23  C   UNL     1      44.106 -20.957   5.411  1.00  0.00     0.048 C 
HETATM   24  C   UNL     1      43.938 -19.247   3.581  1.00  0.00     0.007 A 
HETATM   25  C   UNL     1      43.769 -17.934   3.139  1.00  0.00     0.008 A 
ENDBRANCH  16  19
ENDBRANCH  15  16
ENDBRANCH  12  15
ENDBRANCH   1  11
BRANCH   8  26
HETATM   26  C   UNL     1      38.072 -14.924  -3.464  1.00  0.00     0.270 C 
HETATM   27  N   UNL     1      38.168 -16.121  -2.807  1.00  0.00    -0.365 N 
HETATM   28  H   UNL     1      38.184 -16.120  -1.794  1.00  0.00     0.159 HD
HETATM   29  H   UNL     1      38.206 -16.978  -3.336  1.00  0.00     0.159 HD
HETATM   30  O   UNL     1      38.037 -14.876  -4.688  1.00  0.00    -0.266 OA
ENDBRANCH   8  26
TORSDOF 6
ENDMDL
MODEL 3
REMARK VINA RESULT:      -8.7      4.916      8.141
REMARK  6 active torsions:
REMARK  status: ('A' for Active; 'I' for Inactive)
REMARK    1  A    between atoms: C_2  and  C_3 
REMARK    2  A    between atoms: C_3  and  C_4 
REMARK    3  A    between atoms: C_3  and  C_11 
REMARK    4  A    between atoms: C_11  and  C_12 
REMARK       I    between atoms: C_12  and  N_13 
REMARK    5  A    between atoms: N_13  and  C_14 
REMARK    6  A    between atoms: C_21  and  C_22 
REMARK       I    between atoms: C_22  and  N_23 
ROOT
HETATM    1  C   UNL     1      39.808 -13.455   2.098  1.00  0.00     0.035 A 
HETATM    2  C   UNL     1      40.108 -13.591   0.735  1.00  0.00     0.046 A 
HETATM    3  C   UNL     1      39.523 -12.712  -0.202  1.00  0.00     0.030 A 
HETATM    4  C   UNL     1      38.652 -11.730   0.253  1.00  0.00     0.063 A 
HETATM    5  N   UNL     1      38.252 -11.054  -0.866  1.00  0.00    -0.277 N 
HETATM    6  H   UNL     1      37.611 -10.271  -0.913  1.00  0.00     0.189 HD
HETATM    7  N   UNL     1      38.792 -11.502  -2.010  1.00  0.00    -0.168 NA
HETATM    8  C   UNL     1      39.584 -12.527  -1.616  1.00  0.00     0.156 A 
HETATM    9  C   UNL     1      38.330 -11.564   1.602  1.00  0.00     0.034 A 
HETATM   10  C   UNL     1      38.930 -12.444   2.512  1.00  0.00     0.032 A 
ENDROOT
BRANCH   1  11
HETATM   11  N   UNL     1      40.361 -14.273   3.106  1.00  0.00    -0.327 N 
HETATM   12  C   UNL     1      41.404 -13.957   3.964  1.00  0.00     0.222 C 
HETATM   13  O   UNL     1      42.097 -12.949   3.915  1.00  0.00    -0.273 OA
HETATM   14  H   UNL     1      39.971 -15.203   3.191  1.00  0.00     0.169 HD
BRANCH  12  15
HETATM   15  C   UNL     1      41.648 -15.057   4.988  1.00  0.00     0.112 C 
BRANCH  15  16
HETATM   16  C   UNL     1      43.104 -15.564   4.980  1.00  0.00     0.027 C 
BRANCH  16  17
HETATM   17  C   UNL     1      43.724 -15.725   6.391  1.00  0.00     0.005 C 
HETATM   18  C   UNL     1      42.738 -15.876   7.543  1.00  0.00     0.006 C 
ENDBRANCH  16  17
BRANCH  16  19
HETATM   19  C   UNL     1      43.286 -16.832   4.152  1.00  0.00    -0.053 A 
HETATM   20  C   UNL     1      42.692 -17.009   2.895  1.00  0.00     0.008 A 
HETATM   21  C   UNL     1      42.870 -18.200   2.182  1.00  0.00     0.007 A 
HETATM   22  C   UNL     1      43.649 -19.235   2.707  1.00  0.00    -0.062 A 
HETATM   23  C   UNL     1      43.819 -20.527   1.964  1.00  0.00     0.048 C 
HETATM   24  C   UNL     1      44.235 -19.068   3.964  1.00  0.00     0.007 A 
HETATM   25  C   UNL     1      44.056 -17.882   4.677  1.00  0.00     0.008 A 
ENDBRANCH  16  19
ENDBRANCH  15  16
ENDBRANCH  12  15
ENDBRANCH   1  11
BRANCH   8  26
HETATM   26  C   UNL     1      40.376 -13.294  -2.587  1.00  0.00     0.270 C 
HETATM   27  N   UNL     1      41.557 -12.700  -2.939  1.00  0.00    -0.365 N 
HETATM   28  H   UNL     1      41.797 -11.809  -2.519  1.00  0.00     0.159 HD
HETATM   29  H   UNL     1      42.170 -13.159  -3.594  1.00  0.00     0.159 HD
HETATM   30  O   UNL     1      40.048 -14.377  -3.060  1.00  0.00    -0.266 OA
ENDBRANCH   8  26
TORSDOF 6
ENDMDL
MODEL 4
REMARK VINA RESULT:      -8.6      1.804      1.862
REMARK  6 active torsions:
REMARK  status: ('A' for Active; 'I' for Inactive)
REMARK    1  A    between atoms: C_2  and  C_3 
REMARK    2  A    between atoms: C_3  and  C_4 
REMARK    3  A    between atoms: C_3  and  C_11 
REMARK    4  A    between atoms: C_11  and  C_12 
REMARK       I    between atoms: C_12  and  N_13 
REMARK    5  A    between atoms: N_13  and  C_14 
REMARK    6  A    between atoms: C_21  and  C_22 
REMARK       I    between atoms: C_22  and  N_23 
ROOT
HETATM    1  C   UNL     1      43.690 -11.893   6.661  1.00  0.00     0.035 A 
HETATM    2  C   UNL     1      43.105 -10.705   7.122  1.00  0.00     0.046 A 
HETATM    3  C   UNL     1      43.919  -9.689   7.667  1.00  0.00     0.030 A 
HETATM    4  C   UNL     1      45.291  -9.894   7.738  1.00  0.00     0.063 A 
HETATM    5  N   UNL     1      45.798  -8.759   8.305  1.00  0.00    -0.277 N 
HETATM    6  H   UNL     1      46.769  -8.558   8.513  1.00  0.00     0.189 HD
HETATM    7  N   UNL     1      44.879  -7.826   8.603  1.00  0.00    -0.168 NA
HETATM    8  C   UNL     1      43.711  -8.385   8.211  1.00  0.00     0.156 A 
HETATM    9  C   UNL     1      45.910 -11.063   7.288  1.00  0.00     0.034 A 
HETATM   10  C   UNL     1      45.081 -12.053   6.744  1.00  0.00     0.032 A 
ENDROOT
BRANCH   1  11
HETATM   11  N   UNL     1      42.959 -12.953   6.083  1.00  0.00    -0.327 N 
HETATM   12  C   UNL     1      42.886 -13.286   4.738  1.00  0.00     0.222 C 
HETATM   13  O   UNL     1      43.358 -12.643   3.810  1.00  0.00    -0.273 OA
HETATM   14  H   UNL     1      42.405 -13.512   6.719  1.00  0.00     0.169 HD
BRANCH  12  15
HETATM   15  C   UNL     1      42.082 -14.559   4.513  1.00  0.00     0.112 C 
BRANCH  15  16
HETATM   16  C   UNL     1      42.679 -15.777   5.247  1.00  0.00     0.027 C 
BRANCH  16  17
HETATM   17  C   UNL     1      41.854 -16.242   6.473  1.00  0.00     0.005 C 
HETATM   18  C   UNL     1      40.408 -15.764   6.527  1.00  0.00     0.006 C 
ENDBRANCH  16  17
BRANCH  16  19
HETATM   19  C   UNL     1      42.980 -16.944   4.312  1.00  0.00    -0.053 A 
HETATM   20  C   UNL     1      42.473 -17.023   3.008  1.00  0.00     0.008 A 
HETATM   21  C   UNL     1      42.757 -18.126   2.196  1.00  0.00     0.007 A 
HETATM   22  C   UNL     1      43.561 -19.169   2.666  1.00  0.00    -0.062 A 
HETATM   23  C   UNL     1      43.845 -20.369   1.813  1.00  0.00     0.048 C 
HETATM   24  C   UNL     1      44.060 -19.101   3.969  1.00  0.00     0.007 A 
HETATM   25  C   UNL     1      43.774 -18.003   4.781  1.00  0.00     0.008 A 
ENDBRANCH  16  19
ENDBRANCH  15  16
ENDBRANCH  12  15
ENDBRANCH   1  11
BRANCH   8  26
HETATM   26  C   UNL     1      42.436  -7.668   8.358  1.00  0.00     0.270 C 
HETATM   27  N   UNL     1      42.067  -7.444   9.656  1.00  0.00    -0.365 N 
HETATM   28  H   UNL     1      42.677  -7.770  10.398  1.00  0.00     0.159 HD
HETATM   29  H   UNL     1      41.211  -6.951   9.853  1.00  0.00     0.159 HD
HETATM   30  O   UNL     1      41.738  -7.282   7.427  1.00  0.00    -0.266 OA
ENDBRANCH   8  26
TORSDOF 6
ENDMDL
MODEL 5
REMARK VINA RESULT:      -8.3      6.323      8.889
REMARK  6 active torsions:
REMARK  status: ('A' for Active; 'I' for Inactive)
REMARK    1  A    between atoms: C_2  and  C_3 
REMARK    2  A    between atoms: C_3  and  C_4 
REMARK    3  A    between atoms: C_3  and  C_11 
REMARK    4  A    between atoms: C_11  and  C_12 
REMARK       I    between atoms: C_12  and  N_13 
REMARK    5  A    between atoms: N_13  and  C_14 
REMARK    6  A    between atoms: C_21  and  C_22 
REMARK       I    between atoms: C_22  and  N_23 
ROOT
HETATM    1  C   UNL     1      40.233 -13.720  -0.911  1.00  0.00     0.035 A 
HETATM    2  C   UNL     1      40.818 -12.449  -1.010  1.00  0.00     0.046 A 
HETATM    3  C   UNL     1      40.305 -11.511  -1.931  1.00  0.00     0.030 A 
HETATM    4  C   UNL     1      39.226 -11.875  -2.728  1.00  0.00     0.063 A 
HETATM    5  N   UNL     1      38.965 -10.782  -3.505  1.00  0.00    -0.277 N 
HETATM    6  H   UNL     1      38.243 -10.688  -4.210  1.00  0.00     0.189 HD
HETATM    7  N   UNL     1      39.771  -9.732  -3.280  1.00  0.00    -0.168 NA
HETATM    8  C   UNL     1      40.604 -10.166  -2.305  1.00  0.00     0.156 A 
HETATM    9  C   UNL     1      38.617 -13.130  -2.658  1.00  0.00     0.034 A 
HETATM   10  C   UNL     1      39.141 -14.040  -1.730  1.00  0.00     0.032 A 
ENDROOT
BRANCH   1  11
HETATM   11  N   UNL     1      40.665 -14.712  -0.006  1.00  0.00    -0.327 N 
HETATM   12  C   UNL     1      40.298 -14.851   1.325  1.00  0.00     0.222 C 
HETATM   13  O   UNL     1      39.619 -14.064   1.971  1.00  0.00    -0.273 OA
HETATM   14  H   UNL     1      41.339 -15.378  -0.362  1.00  0.00     0.169 HD
BRANCH  12  15
HETATM   15  C   UNL     1      40.890 -16.108   1.947  1.00  0.00     0.112 C 
BRANCH  15  16
HETATM   16  C   UNL     1      42.368 -15.933   2.349  1.00  0.00     0.027 C 
BRANCH  16  17
HETATM   17  C   UNL     1      42.643 -14.676   3.211  1.00  0.00     0.005 C 
HETATM   18  C   UNL     1      43.428 -13.559   2.536  1.00  0.00     0.006 C 
ENDBRANCH  16  17
BRANCH  16  19
HETATM   19  C   UNL     1      42.959 -17.183   2.995  1.00  0.00    -0.053 A 
HETATM   20  C   UNL     1      43.120 -18.391   2.303  1.00  0.00     0.008 A 
HETATM   21  C   UNL     1      43.645 -19.518   2.945  1.00  0.00     0.007 A 
HETATM   22  C   UNL     1      44.028 -19.459   4.289  1.00  0.00    -0.062 A 
HETATM   23  C   UNL     1      44.563 -20.670   4.993  1.00  0.00     0.048 C 
HETATM   24  C   UNL     1      43.860 -18.260   4.986  1.00  0.00     0.007 A 
HETATM   25  C   UNL     1      43.332 -17.137   4.348  1.00  0.00     0.008 A 
ENDBRANCH  16  19
ENDBRANCH  15  16
ENDBRANCH  12  15
ENDBRANCH   1  11
BRANCH   8  26
HETATM   26  C   UNL     1      41.653  -9.296  -1.756  1.00  0.00     0.270 C 
HETATM   27  N   UNL     1      41.914  -8.187  -2.514  1.00  0.00    -0.365 N 
HETATM   28  H   UNL     1      41.383  -8.045  -3.366  1.00  0.00     0.159 HD
HETATM   29  H   UNL     1      42.613  -7.529  -2.210  1.00  0.00     0.159 HD
HETATM   30  O   UNL     1      42.261  -9.504  -0.711  1.00  0.00    -0.266 OA
ENDBRANCH   8  26
TORSDOF 6
ENDMDL
MODEL 6
REMARK VINA RESULT:      -8.2      5.717      9.683
REMARK  6 active torsions:
REMARK  status: ('A' for Active; 'I' for Inactive)
REMARK    1  A    between atoms: C_2  and  C_3 
REMARK    2  A    between atoms: C_3  and  C_4 
REMARK    3  A    between atoms: C_3  and  C_11 
REMARK    4  A    between atoms: C_11  and  C_12 
REMARK       I    between atoms: C_12  and  N_13 
REMARK    5  A    between atoms: N_13  and  C_14 
REMARK    6  A    between atoms: C_21  and  C_22 
REMARK       I    between atoms: C_22  and  N_23 
ROOT
HETATM    1  C   UNL     1      40.710 -13.780   0.392  1.00  0.00     0.035 A 
HETATM    2  C   UNL     1      40.053 -14.322  -0.721  1.00  0.00     0.046 A 
HETATM    3  C   UNL     1      39.048 -13.576  -1.373  1.00  0.00     0.030 A 
HETATM    4  C   UNL     1      38.730 -12.313  -0.889  1.00  0.00     0.063 A 
HETATM    5  N   UNL     1      37.738 -11.851  -1.709  1.00  0.00    -0.277 N 
HETATM    6  H   UNL     1      37.260 -10.959  -1.651  1.00  0.00     0.189 HD
HETATM    7  N   UNL     1      37.388 -12.696  -2.691  1.00  0.00    -0.168 NA
HETATM    8  C   UNL     1      38.192 -13.768  -2.500  1.00  0.00     0.156 A 
HETATM    9  C   UNL     1      39.362 -11.740   0.216  1.00  0.00     0.034 A 
HETATM   10  C   UNL     1      40.361 -12.498   0.841  1.00  0.00     0.032 A 
ENDROOT
BRANCH   1  11
HETATM   11  N   UNL     1      41.740 -14.443   1.094  1.00  0.00    -0.327 N 
HETATM   12  C   UNL     1      41.668 -15.680   1.717  1.00  0.00     0.222 C 
HETATM   13  O   UNL     1      40.658 -16.359   1.858  1.00  0.00    -0.273 OA
HETATM   14  H   UNL     1      42.617 -13.946   1.174  1.00  0.00     0.169 HD
BRANCH  12  15
HETATM   15  C   UNL     1      43.016 -16.111   2.278  1.00  0.00     0.112 C 
BRANCH  15  16
HETATM   16  C   UNL     1      42.933 -16.551   3.753  1.00  0.00     0.027 C 
BRANCH  16  17
HETATM   17  C   UNL     1      43.770 -17.812   4.083  1.00  0.00     0.005 C 
HETATM   18  C   UNL     1      44.012 -18.777   2.930  1.00  0.00     0.006 C 
ENDBRANCH  16  17
BRANCH  16  19
HETATM   19  C   UNL     1      43.236 -15.419   4.729  1.00  0.00    -0.053 A 
HETATM   20  C   UNL     1      43.750 -15.640   6.013  1.00  0.00     0.008 A 
HETATM   21  C   UNL     1      43.989 -14.570   6.882  1.00  0.00     0.007 A 
HETATM   22  C   UNL     1      43.728 -13.256   6.483  1.00  0.00    -0.062 A 
HETATM   23  C   UNL     1      43.952 -12.106   7.418  1.00  0.00     0.048 C 
HETATM   24  C   UNL     1      43.205 -13.029   5.208  1.00  0.00     0.007 A 
HETATM   25  C   UNL     1      42.961 -14.097   4.342  1.00  0.00     0.008 A 
ENDBRANCH  16  19
ENDBRANCH  15  16
ENDBRANCH  12  15
ENDBRANCH   1  11
BRANCH   8  26
HETATM   26  C   UNL     1      38.129 -14.936  -3.389  1.00  0.00     0.270 C 
HETATM   27  N   UNL     1      38.157 -16.138  -2.736  1.00  0.00    -0.365 N 
HETATM   28  H   UNL     1      38.212 -16.140  -1.724  1.00  0.00     0.159 HD
HETATM   29  H   UNL     1      38.110 -16.994  -3.265  1.00  0.00     0.159 HD
HETATM   30  O   UNL     1      38.052 -14.883  -4.612  1.00  0.00    -0.266 OA
ENDBRANCH   8  26
TORSDOF 6
ENDMDL
MODEL 7
REMARK VINA RESULT:      -8.1      2.745      9.274
REMARK  6 active torsions:
REMARK  status: ('A' for Active; 'I' for Inactive)
REMARK    1  A    between atoms: C_2  and  C_3 
REMARK    2  A    between atoms: C_3  and  C_4 
REMARK    3  A    between atoms: C_3  and  C_11 
REMARK    4  A    between atoms: C_11  and  C_12 
REMARK       I    between atoms: C_12  and  N_13 
REMARK    5  A    between atoms: N_13  and  C_14 
REMARK    6  A    between atoms: C_21  and  C_22 
REMARK       I    between atoms: C_22  and  N_23 
ROOT
HETATM    1  C   UNL     1      43.220 -14.342   6.723  1.00  0.00     0.035 A 
HETATM    2  C   UNL     1      43.112 -14.549   5.340  1.00  0.00     0.046 A 
HETATM    3  C   UNL     1      43.221 -15.856   4.817  1.00  0.00     0.030 A 
HETATM    4  C   UNL     1      43.440 -16.912   5.692  1.00  0.00     0.063 A 
HETATM    5  N   UNL     1      43.504 -18.028   4.905  1.00  0.00    -0.277 N 
HETATM    6  H   UNL     1      43.657 -18.983   5.205  1.00  0.00     0.189 HD
HETATM    7  N   UNL     1      43.337 -17.794   3.593  1.00  0.00    -0.168 NA
HETATM    8  C   UNL     1      43.157 -16.455   3.523  1.00  0.00     0.156 A 
HETATM    9  C   UNL     1      43.553 -16.745   7.074  1.00  0.00     0.034 A 
HETATM   10  C   UNL     1      43.433 -15.440   7.569  1.00  0.00     0.032 A 
ENDROOT
BRANCH   1  11
HETATM   11  N   UNL     1      43.104 -13.076   7.336  1.00  0.00    -0.327 N 
HETATM   12  C   UNL     1      44.030 -12.045   7.312  1.00  0.00     0.222 C 
HETATM   13  O   UNL     1      45.160 -12.101   6.844  1.00  0.00    -0.273 OA
HETATM   14  H   UNL     1      42.263 -12.918   7.877  1.00  0.00     0.169 HD
BRANCH  12  15
HETATM   15  C   UNL     1      43.502 -10.793   8.000  1.00  0.00     0.112 C 
BRANCH  15  16
HETATM   16  C   UNL     1      44.515 -10.186   8.991  1.00  0.00     0.027 C 
BRANCH  16  17
HETATM   17  C   UNL     1      45.339  -9.010   8.409  1.00  0.00     0.005 C 
HETATM   18  C   UNL     1      46.725  -9.359   7.882  1.00  0.00     0.006 C 
ENDBRANCH  16  17
BRANCH  16  19
HETATM   19  C   UNL     1      43.885  -9.808  10.328  1.00  0.00    -0.053 A 
HETATM   20  C   UNL     1      43.612  -8.483  10.690  1.00  0.00     0.008 A 
HETATM   21  C   UNL     1      43.055  -8.184  11.939  1.00  0.00     0.007 A 
HETATM   22  C   UNL     1      42.752  -9.203  12.847  1.00  0.00    -0.062 A 
HETATM   23  C   UNL     1      42.184  -8.888  14.198  1.00  0.00     0.048 C 
HETATM   24  C   UNL     1      43.032 -10.525  12.495  1.00  0.00     0.007 A 
HETATM   25  C   UNL     1      43.592 -10.824  11.251  1.00  0.00     0.008 A 
ENDBRANCH  16  19
ENDBRANCH  15  16
ENDBRANCH  12  15
ENDBRANCH   1  11
BRANCH   8  26
HETATM   26  C   UNL     1      42.926 -15.783   2.236  1.00  0.00     0.270 C 
HETATM   27  N   UNL     1      41.620 -15.795   1.826  1.00  0.00    -0.365 N 
HETATM   28  H   UNL     1      40.929 -16.243   2.416  1.00  0.00     0.159 HD
HETATM   29  H   UNL     1      41.366 -15.351   0.958  1.00  0.00     0.159 HD
HETATM   30  O   UNL     1      43.795 -15.243   1.561  1.00  0.00    -0.266 OA
ENDBRANCH   8  26
TORSDOF 6
ENDMDL
MODEL 8
REMARK VINA RESULT:      -8.0      1.719      2.298
REMARK  6 active torsions:
REMARK  status: ('A' for Active; 'I' for Inactive)
REMARK    1  A    between atoms: C_2  and  C_3 
REMARK    2  A    between atoms: C_3  and  C_4 
REMARK    3  A    between atoms: C_3  and  C_11 
REMARK    4  A    between atoms: C_11  and  C_12 
REMARK       I    between atoms: C_12  and  N_13 
REMARK    5  A    between atoms: N_13  and  C_14 
REMARK    6  A    between atoms: C_21  and  C_22 
REMARK       I    between atoms: C_22  and  N_23 
ROOT
HETATM    1  C   UNL     1      43.977 -11.255   6.484  1.00  0.00     0.035 A 
HETATM    2  C   UNL     1      43.187 -10.659   7.478  1.00  0.00     0.046 A 
HETATM    3  C   UNL     1      43.800 -10.125   8.632  1.00  0.00     0.030 A 
HETATM    4  C   UNL     1      45.181 -10.209   8.758  1.00  0.00     0.063 A 
HETATM    5  N   UNL     1      45.471  -9.623   9.959  1.00  0.00    -0.277 N 
HETATM    6  H   UNL     1      46.385  -9.508  10.380  1.00  0.00     0.189 HD
HETATM    7  N   UNL     1      44.402  -9.155  10.623  1.00  0.00    -0.168 NA
HETATM    8  C   UNL     1      43.360  -9.455   9.814  1.00  0.00     0.156 A 
HETATM    9  C   UNL     1      45.999 -10.795   7.790  1.00  0.00     0.034 A 
HETATM   10  C   UNL     1      45.368 -11.310   6.651  1.00  0.00     0.032 A 
ENDROOT
BRANCH   1  11
HETATM   11  N   UNL     1      43.455 -11.795   5.289  1.00  0.00    -0.327 N 
HETATM   12  C   UNL     1      44.055 -11.801   4.039  1.00  0.00     0.222 C 
HETATM   13  O   UNL     1      45.097 -11.234   3.738  1.00  0.00    -0.273 OA
HETATM   14  H   UNL     1      42.527 -12.197   5.349  1.00  0.00     0.169 HD
BRANCH  12  15
HETATM   15  C   UNL     1      43.229 -12.571   3.018  1.00  0.00     0.112 C 
BRANCH  15  16
HETATM   16  C   UNL     1      42.247 -13.563   3.673  1.00  0.00     0.027 C 
BRANCH  16  17
HETATM   17  C   UNL     1      40.765 -13.328   3.292  1.00  0.00     0.005 C 
HETATM   18  C   UNL     1      39.860 -12.811   4.403  1.00  0.00     0.006 C 
ENDBRANCH  16  17
BRANCH  16  19
HETATM   19  C   UNL     1      42.646 -15.020   3.462  1.00  0.00    -0.053 A 
HETATM   20  C   UNL     1      42.839 -15.916   4.521  1.00  0.00     0.008 A 
HETATM   21  C   UNL     1      43.228 -17.238   4.278  1.00  0.00     0.007 A 
HETATM   22  C   UNL     1      43.424 -17.694   2.972  1.00  0.00    -0.062 A 
HETATM   23  C   UNL     1      43.870 -19.101   2.704  1.00  0.00     0.048 C 
HETATM   24  C   UNL     1      43.243 -16.803   1.912  1.00  0.00     0.007 A 
HETATM   25  C   UNL     1      42.859 -15.483   2.153  1.00  0.00     0.008 A 
ENDBRANCH  16  19
ENDBRANCH  15  16
ENDBRANCH  12  15
ENDBRANCH   1  11
BRANCH   8  26
HETATM   26  C   UNL     1      41.983  -9.095  10.180  1.00  0.00     0.270 C 
HETATM   27  N   UNL     1      41.321 -10.063  10.885  1.00  0.00    -0.365 N 
HETATM   28  H   UNL     1      41.808 -10.924  11.103  1.00  0.00     0.159 HD
HETATM   29  H   UNL     1      40.373  -9.899  11.186  1.00  0.00     0.159 HD
HETATM   30  O   UNL     1      41.439  -8.031   9.903  1.00  0.00    -0.266 OA
ENDBRANCH   8  26
TORSDOF 6
ENDMDL
MODEL 9
REMARK VINA RESULT:      -7.9      2.163      3.192
REMARK  6 active torsions:
REMARK  status: ('A' for Active; 'I' for Inactive)
REMARK    1  A    between atoms: C_2  and  C_3 
REMARK    2  A    between atoms: C_3  and  C_4 
REMARK    3  A    between atoms: C_3  and  C_11 
REMARK    4  A    between atoms: C_11  and  C_12 
REMARK       I    between atoms: C_12  and  N_13 
REMARK    5  A    between atoms: N_13  and  C_14 
REMARK    6  A    between atoms: C_21  and  C_22 
REMARK       I    between atoms: C_22  and  N_23 
ROOT
HETATM    1  C   UNL     1      42.497 -12.047   5.316  1.00  0.00     0.035 A 
HETATM    2  C   UNL     1      43.534 -11.613   6.155  1.00  0.00     0.046 A 
HETATM    3  C   UNL     1      43.298 -10.573   7.079  1.00  0.00     0.030 A 
HETATM    4  C   UNL     1      42.035  -9.997   7.133  1.00  0.00     0.063 A 
HETATM    5  N   UNL     1      42.117  -9.036   8.102  1.00  0.00    -0.277 N 
HETATM    6  H   UNL     1      41.380  -8.412   8.410  1.00  0.00     0.189 HD
HETATM    7  N   UNL     1      43.319  -8.940   8.692  1.00  0.00    -0.168 NA
HETATM    8  C   UNL     1      44.061  -9.887   8.073  1.00  0.00     0.156 A 
HETATM    9  C   UNL     1      40.978 -10.403   6.316  1.00  0.00     0.034 A 
HETATM   10  C   UNL     1      41.236 -11.442   5.412  1.00  0.00     0.032 A 
ENDROOT
BRANCH   1  11
HETATM   11  N   UNL     1      42.635 -13.092   4.378  1.00  0.00    -0.327 N 
HETATM   12  C   UNL     1      42.954 -12.975   3.033  1.00  0.00     0.222 C 
HETATM   13  O   UNL     1      43.062 -11.929   2.406  1.00  0.00    -0.273 OA
HETATM   14  H   UNL     1      42.451 -14.026   4.720  1.00  0.00     0.169 HD
BRANCH  12  15
HETATM   15  C   UNL     1      43.116 -14.335   2.369  1.00  0.00     0.112 C 
BRANCH  15  16
HETATM   16  C   UNL     1      42.101 -15.374   2.886  1.00  0.00     0.027 C 
BRANCH  16  17
HETATM   17  C   UNL     1      40.937 -15.660   1.905  1.00  0.00     0.005 C 
HETATM   18  C   UNL     1      40.914 -14.827   0.630  1.00  0.00     0.006 C 
ENDBRANCH  16  17
BRANCH  16  19
HETATM   19  C   UNL     1      42.760 -16.669   3.350  1.00  0.00    -0.053 A 
HETATM   20  C   UNL     1      43.030 -17.736   2.484  1.00  0.00     0.008 A 
HETATM   21  C   UNL     1      43.615 -18.914   2.961  1.00  0.00     0.007 A 
HETATM   22  C   UNL     1      43.949 -19.047   4.312  1.00  0.00    -0.062 A 
HETATM   23  C   UNL     1      44.548 -20.317   4.838  1.00  0.00     0.048 C 
HETATM   24  C   UNL     1      43.673 -17.990   5.183  1.00  0.00     0.007 A 
HETATM   25  C   UNL     1      43.086 -16.816   4.708  1.00  0.00     0.008 A 
ENDBRANCH  16  19
ENDBRANCH  15  16
ENDBRANCH  12  15
ENDBRANCH   1  11
BRANCH   8  26
HETATM   26  C   UNL     1      45.465 -10.117   8.442  1.00  0.00     0.270 C 
HETATM   27  N   UNL     1      46.362  -9.393   7.704  1.00  0.00    -0.365 N 
HETATM   28  H   UNL     1      46.011  -8.770   6.987  1.00  0.00     0.159 HD
HETATM   29  H   UNL     1      47.348  -9.481   7.893  1.00  0.00     0.159 HD
HETATM   30  O   UNL     1      45.841 -10.875   9.328  1.00  0.00    -0.266 OA
ENDBRANCH   8  26
TORSDOF 6
ENDMDL
MODEL 10
REMARK VINA RESULT:      -7.8      5.515      8.427
REMARK  6 active torsions:
REMARK  status: ('A' for Active; 'I' for Inactive)
REMARK    1  A    between atoms: C_2  and  C_3 
REMARK    2  A    between atoms: C_3  and  C_4 
REMARK    3  A    between atoms: C_3  and  C_11 
REMARK    4  A    between atoms: C_11  and  C_12 
REMARK       I    between atoms: C_12  and  N_13 
REMARK    5  A    between atoms: N_13  and  C_14 
REMARK    6  A    between atoms: C_21  and  C_22 
REMARK       I    between atoms: C_22  and  N_23 
ROOT
HETATM    1  C   UNL     1      41.584 -16.305   2.422  1.00  0.00     0.035 A 
HETATM    2  C   UNL     1      41.564 -16.144   3.815  1.00  0.00     0.046 A 
HETATM    3  C   UNL     1      42.523 -16.807   4.611  1.00  0.00     0.030 A 
HETATM    4  C   UNL     1      43.467 -17.614   3.989  1.00  0.00     0.063 A 
HETATM    5  N   UNL     1      44.239 -18.114   5.001  1.00  0.00    -0.277 N 
HETATM    6  H   UNL     1      45.027 -18.745   4.917  1.00  0.00     0.189 HD
HETATM    7  N   UNL     1      43.887 -17.697   6.228  1.00  0.00    -0.168 NA
HETATM    8  C   UNL     1      42.828 -16.884   6.003  1.00  0.00     0.156 A 
HETATM    9  C   UNL     1      43.519 -17.798   2.606  1.00  0.00     0.034 A 
HETATM   10  C   UNL     1      42.562 -17.123   1.838  1.00  0.00     0.032 A 
ENDROOT
BRANCH   1  11
HETATM   11  N   UNL     1      40.680 -15.666   1.547  1.00  0.00    -0.327 N 
HETATM   12  C   UNL     1      40.867 -14.465   0.879  1.00  0.00     0.222 C 
HETATM   13  O   UNL     1      41.810 -13.698   1.024  1.00  0.00    -0.273 OA
HETATM   14  H   UNL     1      39.786 -16.122   1.417  1.00  0.00     0.169 HD
BRANCH  12  15
HETATM   15  C   UNL     1      39.709 -14.153  -0.060  1.00  0.00     0.112 C 
BRANCH  15  16
HETATM   16  C   UNL     1      40.167 -13.933  -1.516  1.00  0.00     0.027 C 
BRANCH  16  17
HETATM   17  C   UNL     1      39.330 -14.708  -2.564  1.00  0.00     0.005 C 
HETATM   18  C   UNL     1      37.947 -14.145  -2.866  1.00  0.00     0.006 C 
ENDBRANCH  16  17
BRANCH  16  19
HETATM   19  C   UNL     1      40.282 -12.458  -1.886  1.00  0.00    -0.053 A 
HETATM   20  C   UNL     1      40.899 -12.017  -3.064  1.00  0.00     0.008 A 
HETATM   21  C   UNL     1      41.001 -10.651  -3.349  1.00  0.00     0.007 A 
HETATM   22  C   UNL     1      40.483  -9.698  -2.467  1.00  0.00    -0.062 A 
HETATM   23  C   UNL     1      40.616  -8.231  -2.750  1.00  0.00     0.048 C 
HETATM   24  C   UNL     1      39.876 -10.131  -1.286  1.00  0.00     0.007 A 
HETATM   25  C   UNL     1      39.777 -11.494  -0.999  1.00  0.00     0.008 A 
ENDBRANCH  16  19
ENDBRANCH  15  16
ENDBRANCH  12  15
ENDBRANCH   1  11
BRANCH   8  26
HETATM   26  C   UNL     1      42.142 -16.203   7.110  1.00  0.00     0.270 C 
HETATM   27  N   UNL     1      42.966 -15.841   8.140  1.00  0.00    -0.365 N 
HETATM   28  H   UNL     1      43.955 -16.053   8.070  1.00  0.00     0.159 HD
HETATM   29  H   UNL     1      42.584 -15.361   8.939  1.00  0.00     0.159 HD
HETATM   30  O   UNL     1      40.941 -15.957   7.145  1.00  0.00    -0.266 OA
ENDBRANCH   8  26
TORSDOF 6
ENDMDL
