MODEL 1
REMARK VINA RESULT:      -8.0      0.000      0.000
REMARK  7 active torsions:
REMARK  status: ('A' for Active; 'I' for Inactive)
REMARK    1  A    between atoms: C_2  and  O_3 
REMARK    2  A    between atoms: O_3  and  C_4 
REMARK    3  A    between atoms: C_4  and  C_5 
REMARK    4  A    between atoms: C_6  and  C_7 
REMARK    5  A    between atoms: C_18  and  S_19 
REMARK    6  A    between atoms: S_19  and  C_20 
REMARK    7  A    between atoms: C_20  and  C_21 
ROOT
HETATM    1  C   UNL     1      41.043 -11.697   5.151  1.00  0.00     0.070 A 
HETATM    2  C   UNL     1      40.825 -13.166   4.818  1.00  0.00     0.204 A 
HETATM    3  N   UNL     1      41.727 -14.033   5.585  1.00  0.00    -0.082 N 
HETATM    4  C   UNL     1      42.627 -13.579   6.510  1.00  0.00     0.726 A 
HETATM    5  N   UNL     1      42.717 -12.256   6.744  1.00  0.00    -0.192 N 
HETATM    6  N   UNL     1      41.724 -15.378   5.524  1.00  0.00    -0.128 NA
HETATM    7  C   UNL     1      42.715 -15.669   6.375  1.00  0.00     0.226 A 
HETATM    8  N   UNL     1      43.271 -14.594   7.024  1.00  0.00    -0.035 NA
HETATM    9  C   UNL     1      41.943 -11.304   6.086  1.00  0.00     0.037 A 
HETATM   10  C   UNL     1      42.155  -9.876   6.522  1.00  0.00     0.070 C 
HETATM   11  H   UNL     1      43.407 -11.922   7.412  1.00  0.00     0.184 HD
ENDROOT
BRANCH   7  12
HETATM   12  S   UNL     1      43.224 -17.316   6.609  1.00  0.00    -0.083 SA
BRANCH  12  13
HETATM   13  C   UNL     1      44.481 -17.453   5.309  1.00  0.00     0.123 C 
BRANCH  13  14
HETATM   14  C   UNL     1      44.105 -18.507   4.292  1.00  0.00    -0.027 A 
HETATM   15  C   UNL     1      43.571 -18.193   3.032  1.00  0.00     0.041 A 
HETATM   16 CL   UNL     1      43.316 -16.562   2.521  1.00  0.00    -0.084 Cl
HETATM   17  C   UNL     1      43.219 -19.209   2.137  1.00  0.00     0.024 A 
HETATM   18  C   UNL     1      43.386 -20.547   2.488  1.00  0.00     0.002 A 
HETATM   19  C   UNL     1      43.904 -20.875   3.737  1.00  0.00     0.001 A 
HETATM   20  C   UNL     1      44.260 -19.864   4.633  1.00  0.00     0.009 A 
ENDBRANCH  13  14
ENDBRANCH  12  13
ENDBRANCH   7  12
BRANCH   2  21
HETATM   21  C   UNL     1      40.889 -13.502   3.328  1.00  0.00    -0.006 A 
HETATM   22  C   UNL     1      42.007 -13.267   2.508  1.00  0.00     0.042 A 
HETATM   23 CL   UNL     1      43.453 -12.522   3.089  1.00  0.00    -0.084 Cl
HETATM   24  C   UNL     1      41.985 -13.624   1.155  1.00  0.00     0.024 A 
HETATM   25  C   UNL     1      40.855 -14.217   0.596  1.00  0.00     0.002 A 
HETATM   26  C   UNL     1      39.737 -14.452   1.389  1.00  0.00     0.001 A 
HETATM   27  C   UNL     1      39.753 -14.097   2.739  1.00  0.00     0.011 A 
ENDBRANCH   2  21
BRANCH   1  28
HETATM   28  C   UNL     1      40.156 -10.780   4.410  1.00  0.00     0.293 C 
HETATM   29  O   UNL     1      38.958 -10.702   4.625  1.00  0.00    -0.259 OA
BRANCH  28  30
HETATM   30  O   UNL     1      40.846 -10.149   3.429  1.00  0.00    -0.318 OA
BRANCH  30  31
HETATM   31  C   UNL     1      40.052  -9.548   2.395  1.00  0.00     0.174 C 
HETATM   32  C   UNL     1      39.963 -10.462   1.187  1.00  0.00     0.034 C 
ENDBRANCH  30  31
ENDBRANCH  28  30
ENDBRANCH   1  28
TORSDOF 7
ENDMDL
MODEL 2
REMARK VINA RESULT:      -7.9      3.686      5.640
REMARK  7 active torsions:
REMARK  status: ('A' for Active; 'I' for Inactive)
REMARK    1  A    between atoms: C_2  and  O_3 
REMARK    2  A    between atoms: O_3  and  C_4 
REMARK    3  A    between atoms: C_4  and  C_5 
REMARK    4  A    between atoms: C_6  and  C_7 
REMARK    5  A    between atoms: C_18  and  S_19 
REMARK    6  A    between atoms: S_19  and  C_20 
REMARK    7  A    between atoms: C_20  and  C_21 
ROOT
HETATM    1  C   UNL     1      39.413 -12.943  -1.780  1.00  0.00     0.070 A 
HETATM    2  C   UNL     1      40.120 -12.558  -0.489  1.00  0.00     0.204 A 
HETATM    3  N   UNL     1      40.235 -13.701   0.426  1.00  0.00    -0.082 N 
HETATM    4  C   UNL     1      39.792 -14.962   0.137  1.00  0.00     0.726 A 
HETATM    5  N   UNL     1      39.201 -15.196  -1.050  1.00  0.00    -0.192 N 
HETATM    6  N   UNL     1      40.855 -13.660   1.620  1.00  0.00    -0.128 NA
HETATM    7  C   UNL     1      40.667 -14.916   2.042  1.00  0.00     0.226 A 
HETATM    8  N   UNL     1      40.048 -15.754   1.147  1.00  0.00    -0.035 NA
HETATM    9  C   UNL     1      39.003 -14.214  -2.017  1.00  0.00     0.037 A 
HETATM   10  C   UNL     1      38.368 -14.683  -3.302  1.00  0.00     0.070 C 
HETATM   11  H   UNL     1      38.850 -16.129  -1.247  1.00  0.00     0.184 HD
ENDROOT
BRANCH   7  12
HETATM   12  S   UNL     1      41.193 -15.404   3.627  1.00  0.00    -0.083 SA
BRANCH  12  13
HETATM   13  C   UNL     1      42.955 -15.687   3.309  1.00  0.00     0.123 C 
BRANCH  13  14
HETATM   14  C   UNL     1      43.289 -17.161   3.346  1.00  0.00    -0.027 A 
HETATM   15  C   UNL     1      43.995 -17.756   4.403  1.00  0.00     0.041 A 
HETATM   16 CL   UNL     1      44.529 -16.853   5.777  1.00  0.00    -0.084 Cl
HETATM   17  C   UNL     1      44.299 -19.122   4.376  1.00  0.00     0.024 A 
HETATM   18  C   UNL     1      43.910 -19.908   3.293  1.00  0.00     0.002 A 
HETATM   19  C   UNL     1      43.219 -19.332   2.232  1.00  0.00     0.001 A 
HETATM   20  C   UNL     1      42.911 -17.970   2.257  1.00  0.00     0.009 A 
ENDBRANCH  13  14
ENDBRANCH  12  13
ENDBRANCH   7  12
BRANCH   2  21
HETATM   21  C   UNL     1      39.527 -11.347   0.231  1.00  0.00    -0.006 A 
HETATM   22  C   UNL     1      40.150 -10.089   0.315  1.00  0.00     0.042 A 
HETATM   23 CL   UNL     1      41.704  -9.769  -0.367  1.00  0.00    -0.084 Cl
HETATM   24  C   UNL     1      39.525  -9.027   0.979  1.00  0.00     0.024 A 
HETATM   25  C   UNL     1      38.276  -9.200   1.572  1.00  0.00     0.002 A 
HETATM   26  C   UNL     1      37.647 -10.438   1.507  1.00  0.00     0.001 A 
HETATM   27  C   UNL     1      38.265 -11.500   0.845  1.00  0.00     0.011 A 
ENDBRANCH   2  21
BRANCH   1  28
HETATM   28  C   UNL     1      39.275 -11.830  -2.738  1.00  0.00     0.293 C 
HETATM   29  O   UNL     1      40.229 -11.327  -3.309  1.00  0.00    -0.259 OA
BRANCH  28  30
HETATM   30  O   UNL     1      37.987 -11.414  -2.794  1.00  0.00    -0.318 OA
BRANCH  30  31
HETATM   31  C   UNL     1      37.785  -9.994  -2.722  1.00  0.00     0.174 C 
HETATM   32  C   UNL     1      36.518  -9.671  -1.954  1.00  0.00     0.034 C 
ENDBRANCH  30  31
ENDBRANCH  28  30
ENDBRANCH   1  28
TORSDOF 7
ENDMDL
MODEL 3
REMARK VINA RESULT:      -7.3      3.131      5.041
REMARK  7 active torsions:
REMARK  status: ('A' for Active; 'I' for Inactive)
REMARK    1  A    between atoms: C_2  and  O_3 
REMARK    2  A    between atoms: O_3  and  C_4 
REMARK    3  A    between atoms: C_4  and  C_5 
REMARK    4  A    between atoms: C_6  and  C_7 
REMARK    5  A    between atoms: C_18  and  S_19 
REMARK    6  A    between atoms: S_19  and  C_20 
REMARK    7  A    between atoms: C_20  and  C_21 
ROOT
HETATM    1  C   UNL     1      40.106 -11.680  -0.546  1.00  0.00     0.070 A 
HETATM    2  C   UNL     1      40.850 -11.963   0.751  1.00  0.00     0.204 A 
HETATM    3  N   UNL     1      40.713 -13.367   1.157  1.00  0.00    -0.082 N 
HETATM    4  C   UNL     1      40.029 -14.310   0.440  1.00  0.00     0.726 A 
HETATM    5  N   UNL     1      39.427 -13.953  -0.710  1.00  0.00    -0.192 N 
HETATM    6  N   UNL     1      41.303 -13.907   2.240  1.00  0.00    -0.128 NA
HETATM    7  C   UNL     1      40.856 -15.166   2.166  1.00  0.00     0.226 A 
HETATM    8  N   UNL     1      40.099 -15.461   1.059  1.00  0.00    -0.035 NA
HETATM    9  C   UNL     1      39.452 -12.658  -1.220  1.00  0.00     0.037 A 
HETATM   10  C   UNL     1      38.761 -12.467  -2.548  1.00  0.00     0.070 C 
HETATM   11  H   UNL     1      38.898 -14.652  -1.224  1.00  0.00     0.184 HD
ENDROOT
BRANCH   7  12
HETATM   12  S   UNL     1      41.239 -16.315   3.415  1.00  0.00    -0.083 SA
BRANCH  12  13
HETATM   13  C   UNL     1      42.981 -16.642   3.029  1.00  0.00     0.123 C 
BRANCH  13  14
HETATM   14  C   UNL     1      43.326 -18.098   3.243  1.00  0.00    -0.027 A 
HETATM   15  C   UNL     1      43.865 -18.585   4.444  1.00  0.00     0.041 A 
HETATM   16 CL   UNL     1      44.162 -17.559   5.802  1.00  0.00    -0.084 Cl
HETATM   17  C   UNL     1      44.188 -19.940   4.581  1.00  0.00     0.024 A 
HETATM   18  C   UNL     1      43.987 -20.823   3.522  1.00  0.00     0.002 A 
HETATM   19  C   UNL     1      43.464 -20.355   2.321  1.00  0.00     0.001 A 
HETATM   20  C   UNL     1      43.136 -19.004   2.181  1.00  0.00     0.009 A 
ENDBRANCH  13  14
ENDBRANCH  12  13
ENDBRANCH   7  12
BRANCH   2  21
HETATM   21  C   UNL     1      40.500 -11.029   1.909  1.00  0.00    -0.006 A 
HETATM   22  C   UNL     1      39.202 -10.843   2.415  1.00  0.00     0.042 A 
HETATM   23 CL   UNL     1      37.818 -11.634   1.752  1.00  0.00    -0.084 Cl
HETATM   24  C   UNL     1      38.975  -9.979   3.494  1.00  0.00     0.024 A 
HETATM   25  C   UNL     1      40.031  -9.287   4.082  1.00  0.00     0.002 A 
HETATM   26  C   UNL     1      41.322  -9.452   3.592  1.00  0.00     0.001 A 
HETATM   27  C   UNL     1      41.554 -10.312   2.517  1.00  0.00     0.011 A 
ENDBRANCH   2  21
BRANCH   1  28
HETATM   28  C   UNL     1      40.216 -10.282  -1.002  1.00  0.00     0.293 C 
HETATM   29  O   UNL     1      39.282  -9.498  -0.964  1.00  0.00    -0.259 OA
BRANCH  28  30
HETATM   30  O   UNL     1      41.440 -10.057  -1.539  1.00  0.00    -0.318 OA
BRANCH  30  31
HETATM   31  C   UNL     1      42.116  -8.876  -1.082  1.00  0.00     0.174 C 
HETATM   32  C   UNL     1      42.485  -7.983  -2.252  1.00  0.00     0.034 C 
ENDBRANCH  30  31
ENDBRANCH  28  30
ENDBRANCH   1  28
TORSDOF 7
ENDMDL
MODEL 4
REMARK VINA RESULT:      -7.2      3.601      7.647
REMARK  7 active torsions:
REMARK  status: ('A' for Active; 'I' for Inactive)
REMARK    1  A    between atoms: C_2  and  O_3 
REMARK    2  A    between atoms: O_3  and  C_4 
REMARK    3  A    between atoms: C_4  and  C_5 
REMARK    4  A    between atoms: C_6  and  C_7 
REMARK    5  A    between atoms: C_18  and  S_19 
REMARK    6  A    between atoms: S_19  and  C_20 
REMARK    7  A    between atoms: C_20  and  C_21 
ROOT
HETATM    1  C   UNL     1      42.162 -14.288   4.935  1.00  0.00     0.070 A 
HETATM    2  C   UNL     1      42.949 -13.028   4.603  1.00  0.00     0.204 A 
HETATM    3  N   UNL     1      43.627 -12.487   5.787  1.00  0.00    -0.082 N 
HETATM    4  C   UNL     1      43.583 -13.063   7.027  1.00  0.00     0.726 A 
HETATM    5  N   UNL     1      42.873 -14.194   7.202  1.00  0.00    -0.192 N 
HETATM    6  N   UNL     1      44.429 -11.406   5.777  1.00  0.00    -0.128 NA
HETATM    7  C   UNL     1      44.764 -11.332   7.071  1.00  0.00     0.226 A 
HETATM    8  N   UNL     1      44.292 -12.349   7.863  1.00  0.00    -0.035 NA
HETATM    9  C   UNL     1      42.162 -14.821   6.182  1.00  0.00     0.037 A 
HETATM   10  C   UNL     1      41.470 -16.106   6.563  1.00  0.00     0.070 C 
HETATM   11  H   UNL     1      42.822 -14.602   8.132  1.00  0.00     0.184 HD
ENDROOT
BRANCH   7  12
HETATM   12  S   UNL     1      45.738 -10.015   7.657  1.00  0.00    -0.083 SA
BRANCH  12  13
HETATM   13  C   UNL     1      45.321 -10.065   9.421  1.00  0.00     0.123 C 
BRANCH  13  14
HETATM   14  C   UNL     1      44.361  -8.956   9.789  1.00  0.00    -0.027 A 
HETATM   15  C   UNL     1      43.493  -9.034  10.889  1.00  0.00     0.041 A 
HETATM   16 CL   UNL     1      43.462 -10.405  11.941  1.00  0.00    -0.084 Cl
HETATM   17  C   UNL     1      42.607  -7.988  11.172  1.00  0.00     0.024 A 
HETATM   18  C   UNL     1      42.569  -6.858  10.358  1.00  0.00     0.002 A 
HETATM   19  C   UNL     1      43.415  -6.770   9.257  1.00  0.00     0.001 A 
HETATM   20  C   UNL     1      44.303  -7.809   8.973  1.00  0.00     0.009 A 
ENDBRANCH  13  14
ENDBRANCH  12  13
ENDBRANCH   7  12
BRANCH   2  21
HETATM   21  C   UNL     1      42.147 -11.938   3.894  1.00  0.00    -0.006 A 
HETATM   22  C   UNL     1      41.061 -11.251   4.465  1.00  0.00     0.042 A 
HETATM   23 CL   UNL     1      40.471 -11.591   6.052  1.00  0.00    -0.084 Cl
HETATM   24  C   UNL     1      40.394 -10.251   3.748  1.00  0.00     0.024 A 
HETATM   25  C   UNL     1      40.792  -9.920   2.455  1.00  0.00     0.002 A 
HETATM   26  C   UNL     1      41.859 -10.593   1.869  1.00  0.00     0.001 A 
HETATM   27  C   UNL     1      42.528 -11.591   2.579  1.00  0.00     0.011 A 
ENDBRANCH   2  21
BRANCH   1  28
HETATM   28  C   UNL     1      41.464 -14.876   3.776  1.00  0.00     0.293 C 
HETATM   29  O   UNL     1      40.250 -14.874   3.664  1.00  0.00    -0.259 OA
BRANCH  28  30
HETATM   30  O   UNL     1      42.352 -15.481   2.950  1.00  0.00    -0.318 OA
BRANCH  30  31
HETATM   31  C   UNL     1      42.221 -16.905   2.827  1.00  0.00     0.174 C 
HETATM   32  C   UNL     1      43.338 -17.613   3.572  1.00  0.00     0.034 C 
ENDBRANCH  30  31
ENDBRANCH  28  30
ENDBRANCH   1  28
TORSDOF 7
ENDMDL
MODEL 5
REMARK VINA RESULT:      -7.2      3.170      6.635
REMARK  7 active torsions:
REMARK  status: ('A' for Active; 'I' for Inactive)
REMARK    1  A    between atoms: C_2  and  O_3 
REMARK    2  A    between atoms: O_3  and  C_4 
REMARK    3  A    between atoms: C_4  and  C_5 
REMARK    4  A    between atoms: C_6  and  C_7 
REMARK    5  A    between atoms: C_18  and  S_19 
REMARK    6  A    between atoms: S_19  and  C_20 
REMARK    7  A    between atoms: C_20  and  C_21 
ROOT
HETATM    1  C   UNL     1      40.986 -12.392   2.183  1.00  0.00     0.070 A 
HETATM    2  C   UNL     1      41.525 -13.209   3.348  1.00  0.00     0.204 A 
HETATM    3  N   UNL     1      42.518 -12.455   4.123  1.00  0.00    -0.082 N 
HETATM    4  C   UNL     1      42.886 -11.166   3.851  1.00  0.00     0.726 A 
HETATM    5  N   UNL     1      42.324 -10.528   2.807  1.00  0.00    -0.192 N 
HETATM    6  N   UNL     1      43.126 -12.914   5.233  1.00  0.00    -0.128 NA
HETATM    7  C   UNL     1      43.921 -11.879   5.529  1.00  0.00     0.226 A 
HETATM    8  N   UNL     1      43.778 -10.775   4.724  1.00  0.00    -0.035 NA
HETATM    9  C   UNL     1      41.380 -11.113   1.967  1.00  0.00     0.037 A 
HETATM   10  C   UNL     1      40.830 -10.221   0.882  1.00  0.00     0.070 C 
HETATM   11  H   UNL     1      42.622  -9.580   2.593  1.00  0.00     0.184 HD
ENDROOT
BRANCH   7  12
HETATM   12  S   UNL     1      45.040 -11.976   6.857  1.00  0.00    -0.083 SA
BRANCH  12  13
HETATM   13  C   UNL     1      45.158 -10.224   7.308  1.00  0.00     0.123 C 
BRANCH  13  14
HETATM   14  C   UNL     1      44.519  -9.959   8.652  1.00  0.00    -0.027 A 
HETATM   15  C   UNL     1      43.148  -9.699   8.806  1.00  0.00     0.041 A 
HETATM   16 CL   UNL     1      42.058  -9.683   7.465  1.00  0.00    -0.084 Cl
HETATM   17  C   UNL     1      42.611  -9.438  10.072  1.00  0.00     0.024 A 
HETATM   18  C   UNL     1      43.434  -9.422  11.196  1.00  0.00     0.002 A 
HETATM   19  C   UNL     1      44.797  -9.666  11.060  1.00  0.00     0.001 A 
HETATM   20  C   UNL     1      45.336  -9.932   9.799  1.00  0.00     0.009 A 
ENDBRANCH  13  14
ENDBRANCH  12  13
ENDBRANCH   7  12
BRANCH   2  21
HETATM   21  C   UNL     1      42.069 -14.587   2.970  1.00  0.00    -0.006 A 
HETATM   22  C   UNL     1      41.645 -15.795   3.551  1.00  0.00     0.042 A 
HETATM   23 CL   UNL     1      40.465 -15.864   4.810  1.00  0.00    -0.084 Cl
HETATM   24  C   UNL     1      42.184 -17.016   3.129  1.00  0.00     0.024 A 
HETATM   25  C   UNL     1      43.152 -17.055   2.127  1.00  0.00     0.002 A 
HETATM   26  C   UNL     1      43.590 -15.871   1.545  1.00  0.00     0.001 A 
HETATM   27  C   UNL     1      43.056 -14.650   1.962  1.00  0.00     0.011 A 
ENDBRANCH   2  21
BRANCH   1  28
HETATM   28  C   UNL     1      39.979 -13.104   1.373  1.00  0.00     0.293 C 
HETATM   29  O   UNL     1      38.904 -13.465   1.823  1.00  0.00    -0.259 OA
BRANCH  28  30
HETATM   30  O   UNL     1      40.469 -13.367   0.137  1.00  0.00    -0.318 OA
BRANCH  30  31
HETATM   31  C   UNL     1      39.528 -13.267  -0.942  1.00  0.00     0.174 C 
HETATM   32  C   UNL     1      39.313 -14.621  -1.592  1.00  0.00     0.034 C 
ENDBRANCH  30  31
ENDBRANCH  28  30
ENDBRANCH   1  28
TORSDOF 7
ENDMDL
MODEL 6
REMARK VINA RESULT:      -7.2      2.626      4.343
REMARK  7 active torsions:
REMARK  status: ('A' for Active; 'I' for Inactive)
REMARK    1  A    between atoms: C_2  and  O_3 
REMARK    2  A    between atoms: O_3  and  C_4 
REMARK    3  A    between atoms: C_4  and  C_5 
REMARK    4  A    between atoms: C_6  and  C_7 
REMARK    5  A    between atoms: C_18  and  S_19 
REMARK    6  A    between atoms: S_19  and  C_20 
REMARK    7  A    between atoms: C_20  and  C_21 
ROOT
HETATM    1  C   UNL     1      42.919 -10.512   7.148  1.00  0.00     0.070 A 
HETATM    2  C   UNL     1      41.739 -11.241   6.522  1.00  0.00     0.204 A 
HETATM    3  N   UNL     1      42.148 -12.517   5.923  1.00  0.00    -0.082 N 
HETATM    4  C   UNL     1      43.425 -13.005   5.954  1.00  0.00     0.726 A 
HETATM    5  N   UNL     1      44.389 -12.285   6.558  1.00  0.00    -0.192 N 
HETATM    6  N   UNL     1      41.304 -13.389   5.340  1.00  0.00    -0.128 NA
HETATM    7  C   UNL     1      42.158 -14.345   4.958  1.00  0.00     0.226 A 
HETATM    8  N   UNL     1      43.463 -14.162   5.345  1.00  0.00    -0.035 NA
HETATM    9  C   UNL     1      44.164 -11.049   7.158  1.00  0.00     0.037 A 
HETATM   10  C   UNL     1      45.361 -10.421   7.827  1.00  0.00     0.070 C 
HETATM   11  H   UNL     1      45.342 -12.640   6.554  1.00  0.00     0.184 HD
ENDROOT
BRANCH   7  12
HETATM   12  S   UNL     1      41.601 -15.711   4.036  1.00  0.00    -0.083 SA
BRANCH  12  13
HETATM   13  C   UNL     1      43.137 -16.183   3.196  1.00  0.00     0.123 C 
BRANCH  13  14
HETATM   14  C   UNL     1      43.363 -17.676   3.264  1.00  0.00    -0.027 A 
HETATM   15  C   UNL     1      43.930 -18.310   4.381  1.00  0.00     0.041 A 
HETATM   16 CL   UNL     1      44.400 -17.435   5.796  1.00  0.00    -0.084 Cl
HETATM   17  C   UNL     1      44.139 -19.693   4.384  1.00  0.00     0.024 A 
HETATM   18  C   UNL     1      43.796 -20.460   3.272  1.00  0.00     0.002 A 
HETATM   19  C   UNL     1      43.243 -19.845   2.153  1.00  0.00     0.001 A 
HETATM   20  C   UNL     1      43.029 -18.465   2.147  1.00  0.00     0.009 A 
ENDBRANCH  13  14
ENDBRANCH  12  13
ENDBRANCH   7  12
BRANCH   2  21
HETATM   21  C   UNL     1      40.927 -10.412   5.528  1.00  0.00    -0.006 A 
HETATM   22  C   UNL     1      39.547 -10.165   5.640  1.00  0.00     0.042 A 
HETATM   23 CL   UNL     1      38.582 -10.810   6.918  1.00  0.00    -0.084 Cl
HETATM   24  C   UNL     1      38.885  -9.376   4.691  1.00  0.00     0.024 A 
HETATM   25  C   UNL     1      39.582  -8.826   3.617  1.00  0.00     0.002 A 
HETATM   26  C   UNL     1      40.945  -9.065   3.484  1.00  0.00     0.001 A 
HETATM   27  C   UNL     1      41.610  -9.850   4.427  1.00  0.00     0.011 A 
ENDBRANCH   2  21
BRANCH   1  28
HETATM   28  C   UNL     1      42.561  -9.224   7.770  1.00  0.00     0.293 C 
HETATM   29  O   UNL     1      42.831  -8.147   7.264  1.00  0.00    -0.259 OA
BRANCH  28  30
HETATM   30  O   UNL     1      42.002  -9.428   8.988  1.00  0.00    -0.318 OA
BRANCH  30  31
HETATM   31  C   UNL     1      42.779  -8.991  10.113  1.00  0.00     0.174 C 
HETATM   32  C   UNL     1      43.196 -10.173  10.969  1.00  0.00     0.034 C 
ENDBRANCH  30  31
ENDBRANCH  28  30
ENDBRANCH   1  28
TORSDOF 7
ENDMDL
MODEL 7
REMARK VINA RESULT:      -7.2      3.797      7.534
REMARK  7 active torsions:
REMARK  status: ('A' for Active; 'I' for Inactive)
REMARK    1  A    between atoms: C_2  and  O_3 
REMARK    2  A    between atoms: O_3  and  C_4 
REMARK    3  A    between atoms: C_4  and  C_5 
REMARK    4  A    between atoms: C_6  and  C_7 
REMARK    5  A    between atoms: C_18  and  S_19 
REMARK    6  A    between atoms: S_19  and  C_20 
REMARK    7  A    between atoms: C_20  and  C_21 
ROOT
HETATM    1  C   UNL     1      42.707 -15.441   4.723  1.00  0.00     0.070 A 
HETATM    2  C   UNL     1      42.852 -13.964   4.385  1.00  0.00     0.204 A 
HETATM    3  N   UNL     1      43.294 -13.185   5.548  1.00  0.00    -0.082 N 
HETATM    4  C   UNL     1      43.573 -13.726   6.773  1.00  0.00     0.726 A 
HETATM    5  N   UNL     1      43.434 -15.053   6.953  1.00  0.00    -0.192 N 
HETATM    6  N   UNL     1      43.547 -11.863   5.526  1.00  0.00    -0.128 NA
HETATM    7  C   UNL     1      43.889 -11.653   6.803  1.00  0.00     0.226 A 
HETATM    8  N   UNL     1      43.949 -12.776   7.591  1.00  0.00    -0.035 NA
HETATM    9  C   UNL     1      43.008 -15.923   5.954  1.00  0.00     0.037 A 
HETATM   10  C   UNL     1      42.963 -17.382   6.336  1.00  0.00     0.070 C 
HETATM   11  H   UNL     1      43.617 -15.444   7.874  1.00  0.00     0.184 HD
ENDROOT
BRANCH   7  12
HETATM   12  S   UNL     1      44.229 -10.046   7.374  1.00  0.00    -0.083 SA
BRANCH  12  13
HETATM   13  C   UNL     1      45.063 -10.428   8.938  1.00  0.00     0.123 C 
BRANCH  13  14
HETATM   14  C   UNL     1      44.268  -9.925  10.121  1.00  0.00    -0.027 A 
HETATM   15  C   UNL     1      43.900  -8.579  10.275  1.00  0.00     0.041 A 
HETATM   16 CL   UNL     1      44.307  -7.374   9.104  1.00  0.00    -0.084 Cl
HETATM   17  C   UNL     1      43.183  -8.161  11.402  1.00  0.00     0.024 A 
HETATM   18  C   UNL     1      42.833  -9.077  12.393  1.00  0.00     0.002 A 
HETATM   19  C   UNL     1      43.199 -10.412  12.261  1.00  0.00     0.001 A 
HETATM   20  C   UNL     1      43.911 -10.834  11.136  1.00  0.00     0.009 A 
ENDBRANCH  13  14
ENDBRANCH  12  13
ENDBRANCH   7  12
BRANCH   2  21
HETATM   21  C   UNL     1      41.619 -13.328   3.746  1.00  0.00    -0.006 A 
HETATM   22  C   UNL     1      40.380 -13.171   4.392  1.00  0.00     0.042 A 
HETATM   23 CL   UNL     1      40.089 -13.722   6.003  1.00  0.00    -0.084 Cl
HETATM   24  C   UNL     1      39.306 -12.558   3.735  1.00  0.00     0.024 A 
HETATM   25  C   UNL     1      39.445 -12.096   2.428  1.00  0.00     0.002 A 
HETATM   26  C   UNL     1      40.660 -12.248   1.769  1.00  0.00     0.001 A 
HETATM   27  C   UNL     1      41.734 -12.858   2.419  1.00  0.00     0.011 A 
ENDBRANCH   2  21
BRANCH   1  28
HETATM   28  C   UNL     1      42.269 -16.272   3.585  1.00  0.00     0.293 C 
HETATM   29  O   UNL     1      41.099 -16.549   3.381  1.00  0.00    -0.259 OA
BRANCH  28  30
HETATM   30  O   UNL     1      43.343 -16.736   2.901  1.00  0.00    -0.318 OA
BRANCH  30  31
HETATM   31  C   UNL     1      43.177 -18.015   2.271  1.00  0.00     0.174 C 
HETATM   32  C   UNL     1      43.949 -19.085   3.020  1.00  0.00     0.034 C 
ENDBRANCH  30  31
ENDBRANCH  28  30
ENDBRANCH   1  28
TORSDOF 7
ENDMDL
MODEL 8
REMARK VINA RESULT:      -7.2      3.943      6.618
REMARK  7 active torsions:
REMARK  status: ('A' for Active; 'I' for Inactive)
REMARK    1  A    between atoms: C_2  and  O_3 
REMARK    2  A    between atoms: O_3  and  C_4 
REMARK    3  A    between atoms: C_4  and  C_5 
REMARK    4  A    between atoms: C_6  and  C_7 
REMARK    5  A    between atoms: C_18  and  S_19 
REMARK    6  A    between atoms: S_19  and  C_20 
REMARK    7  A    between atoms: C_20  and  C_21 
ROOT
HETATM    1  C   UNL     1      41.089 -11.908   4.727  1.00  0.00     0.070 A 
HETATM    2  C   UNL     1      41.901 -11.936   3.440  1.00  0.00     0.204 A 
HETATM    3  N   UNL     1      41.451 -10.907   2.495  1.00  0.00    -0.082 N 
HETATM    4  C   UNL     1      40.448 -10.013   2.753  1.00  0.00     0.726 A 
HETATM    5  N   UNL     1      39.812 -10.064   3.939  1.00  0.00    -0.192 N 
HETATM    6  N   UNL     1      42.018 -10.675   1.296  1.00  0.00    -0.128 NA
HETATM    7  C   UNL     1      41.244  -9.681   0.843  1.00  0.00     0.226 A 
HETATM    8  N   UNL     1      40.292  -9.225   1.721  1.00  0.00    -0.035 NA
HETATM    9  C   UNL     1      40.112 -10.991   4.933  1.00  0.00     0.037 A 
HETATM   10  C   UNL     1      39.323 -10.855   6.211  1.00  0.00     0.070 C 
HETATM   11  H   UNL     1      39.050  -9.415   4.114  1.00  0.00     0.184 HD
ENDROOT
BRANCH   7  12
HETATM   12  S   UNL     1      41.474  -9.043  -0.759  1.00  0.00    -0.083 SA
BRANCH  12  13
HETATM   13  C   UNL     1      39.939  -9.594  -1.550  1.00  0.00     0.123 C 
BRANCH  13  14
HETATM   14  C   UNL     1      39.930 -11.093  -1.745  1.00  0.00    -0.027 A 
HETATM   15  C   UNL     1      39.074 -11.948  -1.033  1.00  0.00     0.041 A 
HETATM   16 CL   UNL     1      37.931 -11.355   0.119  1.00  0.00    -0.084 Cl
HETATM   17  C   UNL     1      39.122 -13.332  -1.235  1.00  0.00     0.024 A 
HETATM   18  C   UNL     1      40.029 -13.881  -2.140  1.00  0.00     0.002 A 
HETATM   19  C   UNL     1      40.891 -13.048  -2.845  1.00  0.00     0.001 A 
HETATM   20  C   UNL     1      40.844 -11.666  -2.650  1.00  0.00     0.009 A 
ENDBRANCH  13  14
ENDBRANCH  12  13
ENDBRANCH   7  12
BRANCH   2  21
HETATM   21  C   UNL     1      41.976 -13.301   2.758  1.00  0.00    -0.006 A 
HETATM   22  C   UNL     1      40.860 -14.026   2.306  1.00  0.00     0.042 A 
HETATM   23 CL   UNL     1      39.238 -13.465   2.504  1.00  0.00    -0.084 Cl
HETATM   24  C   UNL     1      41.022 -15.264   1.673  1.00  0.00     0.024 A 
HETATM   25  C   UNL     1      42.294 -15.801   1.483  1.00  0.00     0.002 A 
HETATM   26  C   UNL     1      43.410 -15.104   1.929  1.00  0.00     0.001 A 
HETATM   27  C   UNL     1      43.254 -13.869   2.561  1.00  0.00     0.011 A 
ENDBRANCH   2  21
BRANCH   1  28
HETATM   28  C   UNL     1      41.506 -12.920   5.715  1.00  0.00     0.293 C 
HETATM   29  O   UNL     1      42.601 -12.907   6.254  1.00  0.00    -0.259 OA
BRANCH  28  30
HETATM   30  O   UNL     1      40.554 -13.877   5.839  1.00  0.00    -0.318 OA
BRANCH  30  31
HETATM   31  C   UNL     1      41.010 -15.155   6.306  1.00  0.00     0.174 C 
HETATM   32  C   UNL     1      40.732 -16.234   5.276  1.00  0.00     0.034 C 
ENDBRANCH  30  31
ENDBRANCH  28  30
ENDBRANCH   1  28
TORSDOF 7
ENDMDL
MODEL 9
REMARK VINA RESULT:      -7.2      2.312      3.650
REMARK  7 active torsions:
REMARK  status: ('A' for Active; 'I' for Inactive)
REMARK    1  A    between atoms: C_2  and  O_3 
REMARK    2  A    between atoms: O_3  and  C_4 
REMARK    3  A    between atoms: C_4  and  C_5 
REMARK    4  A    between atoms: C_6  and  C_7 
REMARK    5  A    between atoms: C_18  and  S_19 
REMARK    6  A    between atoms: S_19  and  C_20 
REMARK    7  A    between atoms: C_20  and  C_21 
ROOT
HETATM    1  C   UNL     1      42.913 -10.453   7.205  1.00  0.00     0.070 A 
HETATM    2  C   UNL     1      41.842 -11.437   6.758  1.00  0.00     0.204 A 
HETATM    3  N   UNL     1      42.407 -12.765   6.489  1.00  0.00    -0.082 N 
HETATM    4  C   UNL     1      43.727 -13.085   6.652  1.00  0.00     0.726 A 
HETATM    5  N   UNL     1      44.585 -12.138   7.077  1.00  0.00    -0.192 N 
HETATM    6  N   UNL     1      41.684 -13.840   6.122  1.00  0.00    -0.128 NA
HETATM    7  C   UNL     1      42.649 -14.757   5.992  1.00  0.00     0.226 A 
HETATM    8  N   UNL     1      43.911 -14.342   6.340  1.00  0.00    -0.035 NA
HETATM    9  C   UNL     1      44.206 -10.828   7.359  1.00  0.00     0.037 A 
HETATM   10  C   UNL     1      45.303  -9.929   7.872  1.00  0.00     0.070 C 
HETATM   11  H   UNL     1      45.569 -12.375   7.170  1.00  0.00     0.184 HD
ENDROOT
BRANCH   7  12
HETATM   12  S   UNL     1      42.276 -16.357   5.419  1.00  0.00    -0.083 SA
BRANCH  12  13
HETATM   13  C   UNL     1      43.932 -16.925   4.947  1.00  0.00     0.123 C 
BRANCH  13  14
HETATM   14  C   UNL     1      43.877 -18.278   4.275  1.00  0.00    -0.027 A 
HETATM   15  C   UNL     1      43.551 -18.443   2.920  1.00  0.00     0.041 A 
HETATM   16 CL   UNL     1      43.206 -17.102   1.886  1.00  0.00    -0.084 Cl
HETATM   17  C   UNL     1      43.492 -19.721   2.353  1.00  0.00     0.024 A 
HETATM   18  C   UNL     1      43.746 -20.849   3.131  1.00  0.00     0.002 A 
HETATM   19  C   UNL     1      44.059 -20.704   4.478  1.00  0.00     0.001 A 
HETATM   20  C   UNL     1      44.124 -19.430   5.047  1.00  0.00     0.009 A 
ENDBRANCH  13  14
ENDBRANCH  12  13
ENDBRANCH   7  12
BRANCH   2  21
HETATM   21  C   UNL     1      40.986 -10.966   5.583  1.00  0.00    -0.006 A 
HETATM   22  C   UNL     1      41.469 -10.768   4.278  1.00  0.00     0.042 A 
HETATM   23 CL   UNL     1      43.124 -11.004   3.848  1.00  0.00    -0.084 Cl
HETATM   24  C   UNL     1      40.608 -10.351   3.255  1.00  0.00     0.024 A 
HETATM   25  C   UNL     1      39.258 -10.123   3.514  1.00  0.00     0.002 A 
HETATM   26  C   UNL     1      38.763 -10.306   4.800  1.00  0.00     0.001 A 
HETATM   27  C   UNL     1      39.616 -10.721   5.824  1.00  0.00     0.011 A 
ENDBRANCH   2  21
BRANCH   1  28
HETATM   28  C   UNL     1      42.396  -9.102   7.494  1.00  0.00     0.293 C 
HETATM   29  O   UNL     1      42.435  -8.191   6.683  1.00  0.00    -0.259 OA
BRANCH  28  30
HETATM   30  O   UNL     1      41.987  -9.021   8.784  1.00  0.00    -0.318 OA
BRANCH  30  31
HETATM   31  C   UNL     1      42.598  -7.987   9.569  1.00  0.00     0.174 C 
HETATM   32  C   UNL     1      43.346  -8.580  10.749  1.00  0.00     0.034 C 
ENDBRANCH  30  31
ENDBRANCH  28  30
ENDBRANCH   1  28
TORSDOF 7
ENDMDL
MODEL 10
REMARK VINA RESULT:      -7.1      3.180      5.794
REMARK  7 active torsions:
REMARK  status: ('A' for Active; 'I' for Inactive)
REMARK    1  A    between atoms: C_2  and  O_3 
REMARK    2  A    between atoms: O_3  and  C_4 
REMARK    3  A    between atoms: C_4  and  C_5 
REMARK    4  A    between atoms: C_6  and  C_7 
REMARK    5  A    between atoms: C_18  and  S_19 
REMARK    6  A    between atoms: S_19  and  C_20 
REMARK    7  A    between atoms: C_20  and  C_21 
ROOT
HETATM    1  C   UNL     1      41.636  -8.724   6.943  1.00  0.00     0.070 A 
HETATM    2  C   UNL     1      42.825  -9.616   7.270  1.00  0.00     0.204 A 
HETATM    3  N   UNL     1      42.610 -10.993   6.809  1.00  0.00    -0.082 N 
HETATM    4  C   UNL     1      41.494 -11.413   6.140  1.00  0.00     0.726 A 
HETATM    5  N   UNL     1      40.511 -10.530   5.881  1.00  0.00    -0.192 N 
HETATM    6  N   UNL     1      43.514 -11.984   6.925  1.00  0.00    -0.128 NA
HETATM    7  C   UNL     1      42.837 -13.004   6.384  1.00  0.00     0.226 A 
HETATM    8  N   UNL     1      41.607 -12.686   5.861  1.00  0.00    -0.035 NA
HETATM    9  C   UNL     1      40.558  -9.192   6.267  1.00  0.00     0.037 A 
HETATM   10  C   UNL     1      39.382  -8.349   5.841  1.00  0.00     0.070 C 
HETATM   11  H   UNL     1      39.672 -10.854   5.408  1.00  0.00     0.184 HD
ENDROOT
BRANCH   7  12
HETATM   12  S   UNL     1      43.516 -14.605   6.366  1.00  0.00    -0.083 SA
BRANCH  12  13
HETATM   13  C   UNL     1      42.242 -15.486   5.424  1.00  0.00     0.123 C 
BRANCH  13  14
HETATM   14  C   UNL     1      42.848 -16.571   4.564  1.00  0.00    -0.027 A 
HETATM   15  C   UNL     1      42.409 -16.842   3.258  1.00  0.00     0.041 A 
HETATM   16 CL   UNL     1      41.144 -15.936   2.506  1.00  0.00    -0.084 Cl
HETATM   17  C   UNL     1      42.990 -17.874   2.512  1.00  0.00     0.024 A 
HETATM   18  C   UNL     1      44.006 -18.654   3.061  1.00  0.00     0.002 A 
HETATM   19  C   UNL     1      44.445 -18.406   4.357  1.00  0.00     0.001 A 
HETATM   20  C   UNL     1      43.871 -17.374   5.104  1.00  0.00     0.009 A 
ENDBRANCH  13  14
ENDBRANCH  12  13
ENDBRANCH   7  12
BRANCH   2  21
HETATM   21  C   UNL     1      43.258  -9.597   8.735  1.00  0.00    -0.006 A 
HETATM   22  C   UNL     1      44.569  -9.335   9.173  1.00  0.00     0.042 A 
HETATM   23 CL   UNL     1      45.875  -9.034   8.085  1.00  0.00    -0.084 Cl
HETATM   24  C   UNL     1      44.874  -9.319  10.539  1.00  0.00     0.024 A 
HETATM   25  C   UNL     1      43.884  -9.565  11.489  1.00  0.00     0.002 A 
HETATM   26  C   UNL     1      42.584  -9.834  11.076  1.00  0.00     0.001 A 
HETATM   27  C   UNL     1      42.274  -9.851   9.715  1.00  0.00     0.011 A 
ENDBRANCH   2  21
BRANCH   1  28
HETATM   28  C   UNL     1      41.804  -7.325   7.380  1.00  0.00     0.293 C 
HETATM   29  O   UNL     1      42.565  -6.547   6.829  1.00  0.00    -0.259 OA
BRANCH  28  30
HETATM   30  O   UNL     1      41.084  -7.094   8.504  1.00  0.00    -0.318 OA
BRANCH  30  31
HETATM   31  C   UNL     1      41.438  -5.914   9.241  1.00  0.00     0.174 C 
HETATM   32  C   UNL     1      42.663  -6.166  10.100  1.00  0.00     0.034 C 
ENDBRANCH  30  31
ENDBRANCH  28  30
ENDBRANCH   1  28
TORSDOF 7
ENDMDL
