MODEL 1
REMARK VINA RESULT:      -7.8      0.000      0.000
REMARK  5 active torsions:
REMARK  status: ('A' for Active; 'I' for Inactive)
REMARK    1  A    between atoms: C_4  and  N_5 
REMARK       I    between atoms: N_5  and  C_6 
REMARK    2  A    between atoms: C_6  and  C_7 
REMARK    3  A    between atoms: C_7  and  N_8 
REMARK    4  A    between atoms: N_8  and  C_11 
REMARK    5  A    between atoms: C_11  and  C_12 
ROOT
HETATM    1  N   UNL     1      42.310 -15.437   1.865  1.00  0.00    -0.324 N 
HETATM    2  C   UNL     1      41.026 -15.249   1.428  1.00  0.00     0.248 C 
HETATM    3  O   UNL     1      40.072 -16.016   1.546  1.00  0.00    -0.271 OA
HETATM    4  H   UNL     1      43.046 -14.761   1.643  1.00  0.00     0.169 HD
ENDROOT
BRANCH   1   5
HETATM    5  C   UNL     1      42.849 -16.551   2.561  1.00  0.00     0.065 A 
HETATM    6  C   UNL     1      43.014 -17.819   1.994  1.00  0.00     0.038 A 
HETATM    7  C   UNL     1      43.556 -18.863   2.751  1.00  0.00    -0.059 A 
HETATM    8  C   UNL     1      43.738 -20.233   2.161  1.00  0.00     0.048 C 
HETATM    9  C   UNL     1      43.934 -18.621   4.075  1.00  0.00     0.020 A 
HETATM   10  C   UNL     1      43.769 -17.350   4.648  1.00  0.00    -0.005 A 
HETATM   11  C   UNL     1      43.217 -16.298   3.891  1.00  0.00     0.093 A 
HETATM   12  C   UNL     1      44.145 -17.083   5.970  1.00  0.00     0.015 A 
HETATM   13  N   UNL     1      43.039 -15.053   4.400  1.00  0.00    -0.258 NA
HETATM   14  C   UNL     1      43.417 -14.839   5.682  1.00  0.00     0.117 A 
HETATM   15  C   UNL     1      43.968 -15.809   6.497  1.00  0.00     0.020 A 
ENDBRANCH   1   5
BRANCH   2  16
HETATM   16  C   UNL     1      40.809 -13.927   0.690  1.00  0.00     0.335 C 
BRANCH  16  17
HETATM   17  N   UNL     1      39.356 -13.753   0.311  1.00  0.00    -0.059 N 
HETATM   18  H   UNL     1      38.813 -14.605   0.510  1.00  0.00     0.278 HD
HETATM   19  H   UNL     1      38.978 -13.011   0.931  1.00  0.00     0.278 HD
BRANCH  17  20
HETATM   20  C   UNL     1      39.110 -13.292  -1.124  1.00  0.00     0.349 C 
BRANCH  20  21
HETATM   21  C   UNL     1      39.013 -14.482  -2.087  1.00  0.00     0.411 C 
HETATM   22  F   UNL     1      37.887 -14.362  -2.827  1.00  0.00    -0.169 F 
HETATM   23  F   UNL     1      40.061 -14.471  -2.937  1.00  0.00    -0.169 F 
HETATM   24  F   UNL     1      38.983 -15.654  -1.436  1.00  0.00    -0.169 F 
ENDBRANCH  20  21
ENDBRANCH  17  20
ENDBRANCH  16  17
ENDBRANCH   2  16
TORSDOF 5
ENDMDL
MODEL 2
REMARK VINA RESULT:      -7.3      3.115      3.613
REMARK  5 active torsions:
REMARK  status: ('A' for Active; 'I' for Inactive)
REMARK    1  A    between atoms: C_4  and  N_5 
REMARK       I    between atoms: N_5  and  C_6 
REMARK    2  A    between atoms: C_6  and  C_7 
REMARK    3  A    between atoms: C_7  and  N_8 
REMARK    4  A    between atoms: N_8  and  C_11 
REMARK    5  A    between atoms: C_11  and  C_12 
ROOT
HETATM    1  N   UNL     1      41.175 -16.157   2.419  1.00  0.00    -0.324 N 
HETATM    2  C   UNL     1      41.319 -15.032   1.653  1.00  0.00     0.248 C 
HETATM    3  O   UNL     1      42.361 -14.552   1.211  1.00  0.00    -0.271 OA
HETATM    4  H   UNL     1      40.263 -16.423   2.798  1.00  0.00     0.169 HD
ENDROOT
BRANCH   1   5
HETATM    5  C   UNL     1      42.185 -17.043   2.880  1.00  0.00     0.065 A 
HETATM    6  C   UNL     1      42.547 -18.223   2.221  1.00  0.00     0.038 A 
HETATM    7  C   UNL     1      43.556 -19.039   2.744  1.00  0.00    -0.059 A 
HETATM    8  C   UNL     1      43.956 -20.312   2.053  1.00  0.00     0.048 C 
HETATM    9  C   UNL     1      44.198 -18.658   3.926  1.00  0.00     0.020 A 
HETATM   10  C   UNL     1      43.837 -17.474   4.590  1.00  0.00    -0.005 A 
HETATM   11  C   UNL     1      42.817 -16.654   4.070  1.00  0.00     0.093 A 
HETATM   12  C   UNL     1      44.470 -17.070   5.772  1.00  0.00     0.015 A 
HETATM   13  N   UNL     1      42.433 -15.502   4.676  1.00  0.00    -0.258 NA
HETATM   14  C   UNL     1      43.072 -15.149   5.815  1.00  0.00     0.117 A 
HETATM   15  C   UNL     1      44.084 -15.890   6.395  1.00  0.00     0.020 A 
ENDBRANCH   1   5
BRANCH   2  16
HETATM   16  C   UNL     1      40.004 -14.307   1.362  1.00  0.00     0.335 C 
BRANCH  16  17
HETATM   17  N   UNL     1      39.192 -14.136   2.626  1.00  0.00    -0.059 N 
HETATM   18  H   UNL     1      38.229 -14.481   2.501  1.00  0.00     0.278 HD
HETATM   19  H   UNL     1      39.633 -14.743   3.342  1.00  0.00     0.278 HD
BRANCH  17  20
HETATM   20  C   UNL     1      39.175 -12.721   3.201  1.00  0.00     0.349 C 
BRANCH  20  21
HETATM   21  C   UNL     1      40.088 -12.603   4.428  1.00  0.00     0.411 C 
HETATM   22  F   UNL     1      39.798 -11.457   5.086  1.00  0.00    -0.169 F 
HETATM   23  F   UNL     1      39.855 -13.628   5.274  1.00  0.00    -0.169 F 
HETATM   24  F   UNL     1      41.385 -12.594   4.090  1.00  0.00    -0.169 F 
ENDBRANCH  20  21
ENDBRANCH  17  20
ENDBRANCH  16  17
ENDBRANCH   2  16
TORSDOF 5
ENDMDL
MODEL 3
REMARK VINA RESULT:      -7.2      1.369      3.130
REMARK  5 active torsions:
REMARK  status: ('A' for Active; 'I' for Inactive)
REMARK    1  A    between atoms: C_4  and  N_5 
REMARK       I    between atoms: N_5  and  C_6 
REMARK    2  A    between atoms: C_6  and  C_7 
REMARK    3  A    between atoms: C_7  and  N_8 
REMARK    4  A    between atoms: N_8  and  C_11 
REMARK    5  A    between atoms: C_11  and  C_12 
ROOT
HETATM    1  N   UNL     1      41.518 -16.128   2.430  1.00  0.00    -0.324 N 
HETATM    2  C   UNL     1      41.664 -15.101   1.537  1.00  0.00     0.248 C 
HETATM    3  O   UNL     1      42.612 -14.326   1.432  1.00  0.00    -0.271 OA
HETATM    4  H   UNL     1      40.647 -16.664   2.478  1.00  0.00     0.169 HD
ENDROOT
BRANCH   1   5
HETATM    5  C   UNL     1      42.421 -16.551   3.441  1.00  0.00     0.065 A 
HETATM    6  C   UNL     1      42.786 -15.765   4.538  1.00  0.00     0.038 A 
HETATM    7  C   UNL     1      43.683 -16.260   5.492  1.00  0.00    -0.059 A 
HETATM    8  C   UNL     1      44.091 -15.429   6.675  1.00  0.00     0.048 C 
HETATM    9  C   UNL     1      44.201 -17.549   5.335  1.00  0.00     0.020 A 
HETATM   10  C   UNL     1      43.837 -18.342   4.235  1.00  0.00    -0.005 A 
HETATM   11  C   UNL     1      42.941 -17.843   3.270  1.00  0.00     0.093 A 
HETATM   12  C   UNL     1      44.339 -19.637   4.061  1.00  0.00     0.015 A 
HETATM   13  N   UNL     1      42.558 -18.571   2.190  1.00  0.00    -0.258 NA
HETATM   14  C   UNL     1      43.068 -19.818   2.062  1.00  0.00     0.117 A 
HETATM   15  C   UNL     1      43.950 -20.389   2.959  1.00  0.00     0.020 A 
ENDBRANCH   1   5
BRANCH   2  16
HETATM   16  C   UNL     1      40.470 -14.920   0.598  1.00  0.00     0.335 C 
BRANCH  16  17
HETATM   17  N   UNL     1      40.736 -13.825  -0.409  1.00  0.00    -0.059 N 
HETATM   18  H   UNL     1      41.128 -12.987   0.045  1.00  0.00     0.278 HD
HETATM   19  H   UNL     1      41.470 -14.186  -1.048  1.00  0.00     0.278 HD
BRANCH  17  20
HETATM   20  C   UNL     1      39.544 -13.442  -1.283  1.00  0.00     0.349 C 
BRANCH  20  21
HETATM   21  C   UNL     1      39.666 -14.036  -2.691  1.00  0.00     0.411 C 
HETATM   22  F   UNL     1      39.114 -15.271  -2.701  1.00  0.00    -0.169 F 
HETATM   23  F   UNL     1      38.979 -13.277  -3.571  1.00  0.00    -0.169 F 
HETATM   24  F   UNL     1      40.943 -14.128  -3.089  1.00  0.00    -0.169 F 
ENDBRANCH  20  21
ENDBRANCH  17  20
ENDBRANCH  16  17
ENDBRANCH   2  16
TORSDOF 5
ENDMDL
MODEL 4
REMARK VINA RESULT:      -6.9      4.910      6.538
REMARK  5 active torsions:
REMARK  status: ('A' for Active; 'I' for Inactive)
REMARK    1  A    between atoms: C_4  and  N_5 
REMARK       I    between atoms: N_5  and  C_6 
REMARK    2  A    between atoms: C_6  and  C_7 
REMARK    3  A    between atoms: C_7  and  N_8 
REMARK    4  A    between atoms: N_8  and  C_11 
REMARK    5  A    between atoms: C_11  and  C_12 
ROOT
HETATM    1  N   UNL     1      41.905 -13.305   4.892  1.00  0.00    -0.324 N 
HETATM    2  C   UNL     1      40.945 -12.701   5.659  1.00  0.00     0.248 C 
HETATM    3  O   UNL     1      39.775 -13.046   5.809  1.00  0.00    -0.271 OA
HETATM    4  H   UNL     1      42.831 -12.885   4.780  1.00  0.00     0.169 HD
ENDROOT
BRANCH   1   5
HETATM    5  C   UNL     1      41.787 -14.473   4.094  1.00  0.00     0.065 A 
HETATM    6  C   UNL     1      40.918 -14.588   3.003  1.00  0.00     0.038 A 
HETATM    7  C   UNL     1      40.865 -15.776   2.267  1.00  0.00    -0.059 A 
HETATM    8  C   UNL     1      39.935 -15.920   1.096  1.00  0.00     0.048 C 
HETATM    9  C   UNL     1      41.694 -16.842   2.631  1.00  0.00     0.020 A 
HETATM   10  C   UNL     1      42.567 -16.730   3.725  1.00  0.00    -0.005 A 
HETATM   11  C   UNL     1      42.617 -15.538   4.473  1.00  0.00     0.093 A 
HETATM   12  C   UNL     1      43.410 -17.782   4.105  1.00  0.00     0.015 A 
HETATM   13  N   UNL     1      43.445 -15.383   5.537  1.00  0.00    -0.258 NA
HETATM   14  C   UNL     1      44.243 -16.425   5.869  1.00  0.00     0.117 A 
HETATM   15  C   UNL     1      44.262 -17.629   5.192  1.00  0.00     0.020 A 
ENDBRANCH   1   5
BRANCH   2  16
HETATM   16  C   UNL     1      41.427 -11.437   6.373  1.00  0.00     0.335 C 
BRANCH  16  17
HETATM   17  N   UNL     1      42.708 -11.700   7.132  1.00  0.00    -0.059 N 
HETATM   18  H   UNL     1      42.544 -11.714   8.149  1.00  0.00     0.278 HD
HETATM   19  H   UNL     1      43.013 -12.657   6.868  1.00  0.00     0.278 HD
BRANCH  17  20
HETATM   20  C   UNL     1      43.867 -10.764   6.796  1.00  0.00     0.349 C 
BRANCH  20  21
HETATM   21  C   UNL     1      45.192 -11.527   6.686  1.00  0.00     0.411 C 
HETATM   22  F   UNL     1      45.793 -11.205   5.517  1.00  0.00    -0.169 F 
HETATM   23  F   UNL     1      46.020 -11.154   7.684  1.00  0.00    -0.169 F 
HETATM   24  F   UNL     1      45.013 -12.855   6.732  1.00  0.00    -0.169 F 
ENDBRANCH  20  21
ENDBRANCH  17  20
ENDBRANCH  16  17
ENDBRANCH   2  16
TORSDOF 5
ENDMDL
MODEL 5
REMARK VINA RESULT:      -6.8      5.839      7.721
REMARK  5 active torsions:
REMARK  status: ('A' for Active; 'I' for Inactive)
REMARK    1  A    between atoms: C_4  and  N_5 
REMARK       I    between atoms: N_5  and  C_6 
REMARK    2  A    between atoms: C_6  and  C_7 
REMARK    3  A    between atoms: C_7  and  N_8 
REMARK    4  A    between atoms: N_8  and  C_11 
REMARK    5  A    between atoms: C_11  and  C_12 
ROOT
HETATM    1  N   UNL     1      42.884 -14.347   5.570  1.00  0.00    -0.324 N 
HETATM    2  C   UNL     1      43.432 -13.095   5.647  1.00  0.00     0.248 C 
HETATM    3  O   UNL     1      43.661 -12.317   4.723  1.00  0.00    -0.271 OA
HETATM    4  H   UNL     1      42.809 -14.941   6.400  1.00  0.00     0.169 HD
ENDROOT
BRANCH   1   5
HETATM    5  C   UNL     1      42.445 -15.046   4.414  1.00  0.00     0.065 A 
HETATM    6  C   UNL     1      41.477 -14.559   3.530  1.00  0.00     0.038 A 
HETATM    7  C   UNL     1      41.102 -15.312   2.412  1.00  0.00    -0.059 A 
HETATM    8  C   UNL     1      40.061 -14.808   1.454  1.00  0.00     0.048 C 
HETATM    9  C   UNL     1      41.710 -16.551   2.189  1.00  0.00     0.020 A 
HETATM   10  C   UNL     1      42.683 -17.043   3.074  1.00  0.00    -0.005 A 
HETATM   11  C   UNL     1      43.057 -16.291   4.205  1.00  0.00     0.093 A 
HETATM   12  C   UNL     1      43.310 -18.278   2.868  1.00  0.00     0.015 A 
HETATM   13  N   UNL     1      43.991 -16.724   5.088  1.00  0.00    -0.258 NA
HETATM   14  C   UNL     1      44.572 -17.923   4.850  1.00  0.00     0.117 A 
HETATM   15  C   UNL     1      44.269 -18.727   3.767  1.00  0.00     0.020 A 
ENDBRANCH   1   5
BRANCH   2  16
HETATM   16  C   UNL     1      43.809 -12.669   7.067  1.00  0.00     0.335 C 
BRANCH  16  17
HETATM   17  N   UNL     1      44.242 -11.221   7.099  1.00  0.00    -0.059 N 
HETATM   18  H   UNL     1      44.270 -10.818   6.151  1.00  0.00     0.278 HD
HETATM   19  H   UNL     1      43.505 -10.707   7.617  1.00  0.00     0.278 HD
BRANCH  17  20
HETATM   20  C   UNL     1      45.558 -10.953   7.826  1.00  0.00     0.349 C 
BRANCH  20  21
HETATM   21  C   UNL     1      45.651  -9.497   8.299  1.00  0.00     0.411 C 
HETATM   22  F   UNL     1      44.489  -8.864   8.016  1.00  0.00    -0.169 F 
HETATM   23  F   UNL     1      45.818  -9.460   9.638  1.00  0.00    -0.169 F 
HETATM   24  F   UNL     1      46.659  -8.840   7.708  1.00  0.00    -0.169 F 
ENDBRANCH  20  21
ENDBRANCH  17  20
ENDBRANCH  16  17
ENDBRANCH   2  16
TORSDOF 5
ENDMDL
MODEL 6
REMARK VINA RESULT:      -6.7      5.680      7.511
REMARK  5 active torsions:
REMARK  status: ('A' for Active; 'I' for Inactive)
REMARK    1  A    between atoms: C_4  and  N_5 
REMARK       I    between atoms: N_5  and  C_6 
REMARK    2  A    between atoms: C_6  and  C_7 
REMARK    3  A    between atoms: C_7  and  N_8 
REMARK    4  A    between atoms: N_8  and  C_11 
REMARK    5  A    between atoms: C_11  and  C_12 
ROOT
HETATM    1  N   UNL     1      43.352 -13.902   5.806  1.00  0.00    -0.324 N 
HETATM    2  C   UNL     1      42.290 -13.084   6.083  1.00  0.00     0.248 C 
HETATM    3  O   UNL     1      41.094 -13.367   6.049  1.00  0.00    -0.271 OA
HETATM    4  H   UNL     1      44.308 -13.537   5.792  1.00  0.00     0.169 HD
ENDROOT
BRANCH   1   5
HETATM    5  C   UNL     1      43.334 -15.269   5.423  1.00  0.00     0.065 A 
HETATM    6  C   UNL     1      43.366 -16.334   6.330  1.00  0.00     0.038 A 
HETATM    7  C   UNL     1      43.343 -17.654   5.867  1.00  0.00    -0.059 A 
HETATM    8  C   UNL     1      43.382 -18.810   6.825  1.00  0.00     0.048 C 
HETATM    9  C   UNL     1      43.280 -17.893   4.491  1.00  0.00     0.020 A 
HETATM   10  C   UNL     1      43.247 -16.827   3.577  1.00  0.00    -0.005 A 
HETATM   11  C   UNL     1      43.279 -15.497   4.040  1.00  0.00     0.093 A 
HETATM   12  C   UNL     1      43.179 -17.043   2.195  1.00  0.00     0.015 A 
HETATM   13  N   UNL     1      43.248 -14.435   3.196  1.00  0.00    -0.258 NA
HETATM   14  C   UNL     1      43.181 -14.689   1.869  1.00  0.00     0.117 A 
HETATM   15  C   UNL     1      43.145 -15.959   1.326  1.00  0.00     0.020 A 
ENDBRANCH   1   5
BRANCH   2  16
HETATM   16  C   UNL     1      42.688 -11.652   6.446  1.00  0.00     0.335 C 
BRANCH  16  17
HETATM   17  N   UNL     1      43.401 -11.612   7.778  1.00  0.00    -0.059 N 
HETATM   18  H   UNL     1      42.824 -12.028   8.523  1.00  0.00     0.278 HD
HETATM   19  H   UNL     1      44.239 -12.216   7.680  1.00  0.00     0.278 HD
BRANCH  17  20
HETATM   20  C   UNL     1      43.901 -10.233   8.205  1.00  0.00     0.349 C 
BRANCH  20  21
HETATM   21  C   UNL     1      45.422 -10.222   8.396  1.00  0.00     0.411 C 
HETATM   22  F   UNL     1      45.708 -10.476   9.694  1.00  0.00    -0.169 F 
HETATM   23  F   UNL     1      45.985 -11.203   7.658  1.00  0.00    -0.169 F 
HETATM   24  F   UNL     1      45.964  -9.044   8.054  1.00  0.00    -0.169 F 
ENDBRANCH  20  21
ENDBRANCH  17  20
ENDBRANCH  16  17
ENDBRANCH   2  16
TORSDOF 5
ENDMDL
MODEL 7
REMARK VINA RESULT:      -6.6      5.959      7.800
REMARK  5 active torsions:
REMARK  status: ('A' for Active; 'I' for Inactive)
REMARK    1  A    between atoms: C_4  and  N_5 
REMARK       I    between atoms: N_5  and  C_6 
REMARK    2  A    between atoms: C_6  and  C_7 
REMARK    3  A    between atoms: C_7  and  N_8 
REMARK    4  A    between atoms: N_8  and  C_11 
REMARK    5  A    between atoms: C_11  and  C_12 
ROOT
HETATM    1  N   UNL     1      42.151 -13.202   5.720  1.00  0.00    -0.324 N 
HETATM    2  C   UNL     1      42.992 -12.125   5.800  1.00  0.00     0.248 C 
HETATM    3  O   UNL     1      44.114 -12.009   5.310  1.00  0.00    -0.271 OA
HETATM    4  H   UNL     1      41.266 -13.218   6.234  1.00  0.00     0.169 HD
ENDROOT
BRANCH   1   5
HETATM    5  C   UNL     1      42.362 -14.435   5.049  1.00  0.00     0.065 A 
HETATM    6  C   UNL     1      43.305 -15.388   5.448  1.00  0.00     0.038 A 
HETATM    7  C   UNL     1      43.448 -16.581   4.732  1.00  0.00    -0.059 A 
HETATM    8  C   UNL     1      44.459 -17.614   5.142  1.00  0.00     0.048 C 
HETATM    9  C   UNL     1      42.633 -16.809   3.619  1.00  0.00     0.020 A 
HETATM   10  C   UNL     1      41.684 -15.856   3.215  1.00  0.00    -0.005 A 
HETATM   11  C   UNL     1      41.544 -14.650   3.930  1.00  0.00     0.093 A 
HETATM   12  C   UNL     1      40.854 -16.065   2.108  1.00  0.00     0.015 A 
HETATM   13  N   UNL     1      40.642 -13.699   3.579  1.00  0.00    -0.258 NA
HETATM   14  C   UNL     1      39.859 -13.944   2.503  1.00  0.00     0.117 A 
HETATM   15  C   UNL     1      39.926 -15.097   1.744  1.00  0.00     0.020 A 
ENDBRANCH   1   5
BRANCH   2  16
HETATM   16  C   UNL     1      42.439 -10.965   6.630  1.00  0.00     0.335 C 
BRANCH  16  17
HETATM   17  N   UNL     1      43.211 -10.809   7.921  1.00  0.00    -0.059 N 
HETATM   18  H   UNL     1      42.581 -10.810   8.736  1.00  0.00     0.278 HD
HETATM   19  H   UNL     1      43.810 -11.652   8.008  1.00  0.00     0.278 HD
BRANCH  17  20
HETATM   20  C   UNL     1      44.143  -9.601   7.977  1.00  0.00     0.349 C 
BRANCH  20  21
HETATM   21  C   UNL     1      45.562 -10.006   8.393  1.00  0.00     0.411 C 
HETATM   22  F   UNL     1      46.424  -9.022   8.046  1.00  0.00    -0.169 F 
HETATM   23  F   UNL     1      45.625 -10.146   9.734  1.00  0.00    -0.169 F 
HETATM   24  F   UNL     1      45.951 -11.149   7.809  1.00  0.00    -0.169 F 
ENDBRANCH  20  21
ENDBRANCH  17  20
ENDBRANCH  16  17
ENDBRANCH   2  16
TORSDOF 5
ENDMDL
MODEL 8
REMARK VINA RESULT:      -6.6      1.348      3.124
REMARK  5 active torsions:
REMARK  status: ('A' for Active; 'I' for Inactive)
REMARK    1  A    between atoms: C_4  and  N_5 
REMARK       I    between atoms: N_5  and  C_6 
REMARK    2  A    between atoms: C_6  and  C_7 
REMARK    3  A    between atoms: C_7  and  N_8 
REMARK    4  A    between atoms: N_8  and  C_11 
REMARK    5  A    between atoms: C_11  and  C_12 
ROOT
HETATM    1  N   UNL     1      42.151 -14.308   2.089  1.00  0.00    -0.324 N 
HETATM    2  C   UNL     1      40.893 -13.839   1.818  1.00  0.00     0.248 C 
HETATM    3  O   UNL     1      39.944 -13.743   2.593  1.00  0.00    -0.271 OA
HETATM    4  H   UNL     1      42.844 -14.416   1.344  1.00  0.00     0.169 HD
ENDROOT
BRANCH   1   5
HETATM    5  C   UNL     1      42.665 -14.785   3.323  1.00  0.00     0.065 A 
HETATM    6  C   UNL     1      42.790 -13.998   4.472  1.00  0.00     0.038 A 
HETATM    7  C   UNL     1      43.306 -14.550   5.650  1.00  0.00    -0.059 A 
HETATM    8  C   UNL     1      43.452 -13.719   6.893  1.00  0.00     0.048 C 
HETATM    9  C   UNL     1      43.689 -15.895   5.663  1.00  0.00     0.020 A 
HETATM   10  C   UNL     1      43.565 -16.688   4.512  1.00  0.00    -0.005 A 
HETATM   11  C   UNL     1      43.053 -16.134   3.322  1.00  0.00     0.093 A 
HETATM   12  C   UNL     1      43.936 -18.038   4.503  1.00  0.00     0.015 A 
HETATM   13  N   UNL     1      42.914 -16.860   2.184  1.00  0.00    -0.258 NA
HETATM   14  C   UNL     1      43.284 -18.161   2.221  1.00  0.00     0.117 A 
HETATM   15  C   UNL     1      43.794 -18.788   3.342  1.00  0.00     0.020 A 
ENDBRANCH   1   5
BRANCH   2  16
HETATM   16  C   UNL     1      40.686 -13.425   0.360  1.00  0.00     0.335 C 
BRANCH  16  17
HETATM   17  N   UNL     1      39.442 -14.067  -0.212  1.00  0.00    -0.059 N 
HETATM   18  H   UNL     1      39.100 -14.825   0.396  1.00  0.00     0.278 HD
HETATM   19  H   UNL     1      38.708 -13.333  -0.212  1.00  0.00     0.278 HD
BRANCH  17  20
HETATM   20  C   UNL     1      39.570 -14.561  -1.651  1.00  0.00     0.349 C 
BRANCH  20  21
HETATM   21  C   UNL     1      38.469 -13.977  -2.545  1.00  0.00     0.411 C 
HETATM   22  F   UNL     1      37.503 -13.439  -1.764  1.00  0.00    -0.169 F 
HETATM   23  F   UNL     1      38.974 -12.984  -3.307  1.00  0.00    -0.169 F 
HETATM   24  F   UNL     1      37.918 -14.907  -3.338  1.00  0.00    -0.169 F 
ENDBRANCH  20  21
ENDBRANCH  17  20
ENDBRANCH  16  17
ENDBRANCH   2  16
TORSDOF 5
ENDMDL
MODEL 9
REMARK VINA RESULT:      -6.5      1.951      2.236
REMARK  5 active torsions:
REMARK  status: ('A' for Active; 'I' for Inactive)
REMARK    1  A    between atoms: C_4  and  N_5 
REMARK       I    between atoms: N_5  and  C_6 
REMARK    2  A    between atoms: C_6  and  C_7 
REMARK    3  A    between atoms: C_7  and  N_8 
REMARK    4  A    between atoms: N_8  and  C_11 
REMARK    5  A    between atoms: C_11  and  C_12 
ROOT
HETATM    1  N   UNL     1      41.961 -15.579   1.741  1.00  0.00    -0.324 N 
HETATM    2  C   UNL     1      40.617 -15.344   1.620  1.00  0.00     0.248 C 
HETATM    3  O   UNL     1      39.695 -15.976   2.133  1.00  0.00    -0.271 OA
HETATM    4  H   UNL     1      42.641 -15.033   1.205  1.00  0.00     0.169 HD
ENDROOT
BRANCH   1   5
HETATM    5  C   UNL     1      42.613 -16.595   2.488  1.00  0.00     0.065 A 
HETATM    6  C   UNL     1      42.846 -17.888   2.007  1.00  0.00     0.038 A 
HETATM    7  C   UNL     1      43.499 -18.830   2.809  1.00  0.00    -0.059 A 
HETATM    8  C   UNL     1      43.754 -20.224   2.312  1.00  0.00     0.048 C 
HETATM    9  C   UNL     1      43.920 -18.461   4.090  1.00  0.00     0.020 A 
HETATM   10  C   UNL     1      43.688 -17.164   4.576  1.00  0.00    -0.005 A 
HETATM   11  C   UNL     1      43.024 -16.216   3.774  1.00  0.00     0.093 A 
HETATM   12  C   UNL     1      44.105 -16.770   5.854  1.00  0.00     0.015 A 
HETATM   13  N   UNL     1      42.777 -14.951   4.200  1.00  0.00    -0.258 NA
HETATM   14  C   UNL     1      43.199 -14.613   5.441  1.00  0.00     0.117 A 
HETATM   15  C   UNL     1      43.858 -15.476   6.295  1.00  0.00     0.020 A 
ENDBRANCH   1   5
BRANCH   2  16
HETATM   16  C   UNL     1      40.273 -14.165   0.709  1.00  0.00     0.335 C 
BRANCH  16  17
HETATM   17  N   UNL     1      39.919 -12.941   1.522  1.00  0.00    -0.059 N 
HETATM   18  H   UNL     1      39.117 -13.123   2.143  1.00  0.00     0.278 HD
HETATM   19  H   UNL     1      40.733 -12.753   2.139  1.00  0.00     0.278 HD
BRANCH  17  20
HETATM   20  C   UNL     1      39.681 -11.669   0.711  1.00  0.00     0.349 C 
BRANCH  20  21
HETATM   21  C   UNL     1      38.186 -11.434   0.461  1.00  0.00     0.411 C 
HETATM   22  F   UNL     1      37.766 -12.264  -0.522  1.00  0.00    -0.169 F 
HETATM   23  F   UNL     1      37.482 -11.733   1.573  1.00  0.00    -0.169 F 
HETATM   24  F   UNL     1      37.929 -10.169   0.101  1.00  0.00    -0.169 F 
ENDBRANCH  20  21
ENDBRANCH  17  20
ENDBRANCH  16  17
ENDBRANCH   2  16
TORSDOF 5
ENDMDL
MODEL 10
REMARK VINA RESULT:      -6.4      2.820      4.190
REMARK  5 active torsions:
REMARK  status: ('A' for Active; 'I' for Inactive)
REMARK    1  A    between atoms: C_4  and  N_5 
REMARK       I    between atoms: N_5  and  C_6 
REMARK    2  A    between atoms: C_6  and  C_7 
REMARK    3  A    between atoms: C_7  and  N_8 
REMARK    4  A    between atoms: N_8  and  C_11 
REMARK    5  A    between atoms: C_11  and  C_12 
ROOT
HETATM    1  N   UNL     1      41.447 -15.981   2.441  1.00  0.00    -0.324 N 
HETATM    2  C   UNL     1      41.554 -14.920   1.582  1.00  0.00     0.248 C 
HETATM    3  O   UNL     1      42.469 -14.103   1.507  1.00  0.00    -0.271 OA
HETATM    4  H   UNL     1      40.600 -16.554   2.467  1.00  0.00     0.169 HD
ENDROOT
BRANCH   1   5
HETATM    5  C   UNL     1      42.363 -16.398   3.443  1.00  0.00     0.065 A 
HETATM    6  C   UNL     1      42.729 -15.612   4.540  1.00  0.00     0.038 A 
HETATM    7  C   UNL     1      43.639 -16.101   5.484  1.00  0.00    -0.059 A 
HETATM    8  C   UNL     1      44.048 -15.270   6.667  1.00  0.00     0.048 C 
HETATM    9  C   UNL     1      44.169 -17.384   5.319  1.00  0.00     0.020 A 
HETATM   10  C   UNL     1      43.804 -18.176   4.219  1.00  0.00    -0.005 A 
HETATM   11  C   UNL     1      42.894 -17.683   3.263  1.00  0.00     0.093 A 
HETATM   12  C   UNL     1      44.318 -19.466   4.036  1.00  0.00     0.015 A 
HETATM   13  N   UNL     1      42.511 -18.411   2.184  1.00  0.00    -0.258 NA
HETATM   14  C   UNL     1      43.032 -19.653   2.047  1.00  0.00     0.117 A 
HETATM   15  C   UNL     1      43.927 -20.217   2.935  1.00  0.00     0.020 A 
ENDBRANCH   1   5
BRANCH   2  16
HETATM   16  C   UNL     1      40.357 -14.759   0.643  1.00  0.00     0.335 C 
BRANCH  16  17
HETATM   17  N   UNL     1      39.543 -13.540   1.011  1.00  0.00    -0.059 N 
HETATM   18  H   UNL     1      40.011 -12.673   0.708  1.00  0.00     0.278 HD
HETATM   19  H   UNL     1      38.660 -13.603   0.469  1.00  0.00     0.278 HD
BRANCH  17  20
HETATM   20  C   UNL     1      39.149 -13.441   2.483  1.00  0.00     0.349 C 
BRANCH  20  21
HETATM   21  C   UNL     1      39.514 -12.073   3.071  1.00  0.00     0.411 C 
HETATM   22  F   UNL     1      38.818 -11.112   2.422  1.00  0.00    -0.169 F 
HETATM   23  F   UNL     1      39.158 -12.023   4.372  1.00  0.00    -0.169 F 
HETATM   24  F   UNL     1      40.824 -11.811   2.960  1.00  0.00    -0.169 F 
ENDBRANCH  20  21
ENDBRANCH  17  20
ENDBRANCH  16  17
ENDBRANCH   2  16
TORSDOF 5
ENDMDL
