MODEL 1
REMARK VINA RESULT:      -8.2      0.000      0.000
REMARK  7 active torsions:
REMARK  status: ('A' for Active; 'I' for Inactive)
REMARK    1  A    between atoms: C_2  and  C_3 
REMARK    2  A    between atoms: C_3  and  O_4 
REMARK    3  A    between atoms: O_4  and  C_5 
REMARK    4  A    between atoms: C_8  and  C_9 
REMARK    5  A    between atoms: C_15  and  C_16 
REMARK    6  A    between atoms: C_19  and  N_20 
REMARK       I    between atoms: N_20  and  C_21 
REMARK    7  A    between atoms: C_29  and  N_30 
ROOT
HETATM    1  C   UNL     1      40.126 -12.891   3.216  1.00  0.00     0.072 A 
HETATM    2  N   UNL     1      38.936 -12.670   3.878  1.00  0.00    -0.274 N 
HETATM    3  H   UNL     1      37.997 -12.750   3.502  1.00  0.00     0.189 HD
HETATM    4  N   UNL     1      39.082 -12.263   5.159  1.00  0.00    -0.148 NA
HETATM    5  C   UNL     1      40.400 -12.232   5.297  1.00  0.00     0.199 A 
HETATM    6  C   UNL     1      41.104 -12.646   4.163  1.00  0.00     0.039 A 
HETATM    7  C   UNL     1      42.587 -12.707   4.172  1.00  0.00     0.105 C 
HETATM    8  C   UNL     1      43.134 -12.006   5.406  1.00  0.00     0.067 C 
HETATM    9  C   UNL     1      44.603 -11.619   5.343  1.00  0.00     0.020 C 
HETATM   10  N   UNL     1      45.821 -11.298   5.291  1.00  0.00    -0.096 N 
HETATM   11  C   UNL     1      42.355 -11.601   6.441  1.00  0.00     0.139 C 
HETATM   12  O   UNL     1      40.965 -11.807   6.445  1.00  0.00    -0.277 OA
ENDROOT
BRANCH   7  13
HETATM   13  C   UNL     1      42.932 -14.189   4.117  1.00  0.00    -0.044 A 
HETATM   14  C   UNL     1      43.192 -14.798   2.880  1.00  0.00     0.010 A 
HETATM   15  C   UNL     1      43.478 -16.167   2.792  1.00  0.00     0.030 A 
HETATM   16  C   UNL     1      43.513 -16.961   3.938  1.00  0.00     0.034 A 
HETATM   17  C   UNL     1      43.267 -16.360   5.177  1.00  0.00     0.030 A 
HETATM   18  C   UNL     1      42.982 -14.994   5.268  1.00  0.00     0.010 A 
BRANCH  16  19
HETATM   19  N   UNL     1      43.769 -18.347   3.935  1.00  0.00    -0.328 N 
HETATM   20  C   UNL     1      43.445 -19.262   2.950  1.00  0.00     0.218 C 
HETATM   21  C   UNL     1      43.862 -20.662   3.324  1.00  0.00     0.117 C 
HETATM   22  O   UNL     1      42.904 -19.032   1.875  1.00  0.00    -0.274 OA
HETATM   23  H   UNL     1      44.244 -18.709   4.751  1.00  0.00     0.169 HD
ENDBRANCH  16  19
ENDBRANCH   7  13
BRANCH  11  24
HETATM   24  N   UNL     1      42.807 -10.943   7.562  1.00  0.00    -0.282 NA
HETATM   25  H   UNL     1      42.425 -11.258   8.450  1.00  0.00     0.126 HD
HETATM   26  H   UNL     1      42.783  -9.931   7.449  1.00  0.00     0.126 HD
ENDBRANCH  11  24
BRANCH   1  27
HETATM   27  C   UNL     1      40.212 -13.283   1.817  1.00  0.00    -0.007 A 
HETATM   28  C   UNL     1      39.925 -14.601   1.439  1.00  0.00     0.016 A 
HETATM   29  C   UNL     1      39.956 -14.984   0.094  1.00  0.00     0.037 A 
HETATM   30  C   UNL     1      40.278 -14.052  -0.891  1.00  0.00     0.068 A 
HETATM   31  C   UNL     1      40.594 -12.745  -0.515  1.00  0.00     0.037 A 
HETATM   32  C   UNL     1      40.557 -12.357   0.829  1.00  0.00     0.016 A 
BRANCH  30  33
HETATM   33  O   UNL     1      40.330 -14.298  -2.235  1.00  0.00    -0.351 OA
BRANCH  33  34
HETATM   34  C   UNL     1      39.483 -13.496  -3.061  1.00  0.00     0.175 C 
BRANCH  34  35
HETATM   35  C   UNL     1      38.100 -14.140  -3.084  1.00  0.00     0.022 C 
HETATM   36  C   UNL     1      37.013 -13.151  -2.703  1.00  0.00     0.007 C 
ENDBRANCH  34  35
ENDBRANCH  33  34
ENDBRANCH  30  33
ENDBRANCH   1  27
TORSDOF 7
ENDMDL
MODEL 2
REMARK VINA RESULT:      -8.0      2.081      6.538
REMARK  7 active torsions:
REMARK  status: ('A' for Active; 'I' for Inactive)
REMARK    1  A    between atoms: C_2  and  C_3 
REMARK    2  A    between atoms: C_3  and  O_4 
REMARK    3  A    between atoms: O_4  and  C_5 
REMARK    4  A    between atoms: C_8  and  C_9 
REMARK    5  A    between atoms: C_15  and  C_16 
REMARK    6  A    between atoms: C_19  and  N_20 
REMARK       I    between atoms: N_20  and  C_21 
REMARK    7  A    between atoms: C_29  and  N_30 
ROOT
HETATM    1  C   UNL     1      43.634 -13.638   6.262  1.00  0.00     0.072 A 
HETATM    2  N   UNL     1      44.796 -12.984   6.618  1.00  0.00    -0.274 N 
HETATM    3  H   UNL     1      45.703 -13.398   6.808  1.00  0.00     0.189 HD
HETATM    4  N   UNL     1      44.659 -11.647   6.759  1.00  0.00    -0.148 NA
HETATM    5  C   UNL     1      43.375 -11.464   6.480  1.00  0.00     0.199 A 
HETATM    6  C   UNL     1      42.695 -12.632   6.125  1.00  0.00     0.039 A 
HETATM    7  C   UNL     1      41.260 -12.587   5.745  1.00  0.00     0.105 C 
HETATM    8  C   UNL     1      40.668 -11.230   6.090  1.00  0.00     0.067 C 
HETATM    9  C   UNL     1      39.150 -11.175   6.156  1.00  0.00     0.020 C 
HETATM   10  N   UNL     1      37.891 -11.130   6.211  1.00  0.00    -0.096 N 
HETATM   11  C   UNL     1      41.416 -10.163   6.470  1.00  0.00     0.139 C 
HETATM   12  O   UNL     1      42.815 -10.241   6.571  1.00  0.00    -0.277 OA
ENDROOT
BRANCH   7  13
HETATM   13  C   UNL     1      41.226 -12.900   4.256  1.00  0.00    -0.044 A 
HETATM   14  C   UNL     1      41.892 -12.059   3.351  1.00  0.00     0.010 A 
HETATM   15  C   UNL     1      41.850 -12.300   1.972  1.00  0.00     0.030 A 
HETATM   16  C   UNL     1      41.143 -13.388   1.462  1.00  0.00     0.034 A 
HETATM   17  C   UNL     1      40.486 -14.240   2.356  1.00  0.00     0.030 A 
HETATM   18  C   UNL     1      40.527 -14.002   3.734  1.00  0.00     0.010 A 
BRANCH  16  19
HETATM   19  N   UNL     1      41.032 -13.688   0.089  1.00  0.00    -0.328 N 
HETATM   20  C   UNL     1      40.002 -13.347  -0.768  1.00  0.00     0.218 C 
HETATM   21  C   UNL     1      40.232 -13.874  -2.162  1.00  0.00     0.117 C 
HETATM   22  O   UNL     1      39.005 -12.686  -0.502  1.00  0.00    -0.274 OA
HETATM   23  H   UNL     1      41.796 -14.217  -0.310  1.00  0.00     0.169 HD
ENDBRANCH  16  19
ENDBRANCH   7  13
BRANCH  11  24
HETATM   24  N   UNL     1      40.917  -8.927   6.813  1.00  0.00    -0.282 NA
HETATM   25  H   UNL     1      41.547  -8.140   6.685  1.00  0.00     0.126 HD
HETATM   26  H   UNL     1      40.463  -8.937   7.725  1.00  0.00     0.126 HD
ENDBRANCH  11  24
BRANCH   1  27
HETATM   27  C   UNL     1      43.534 -15.081   6.107  1.00  0.00    -0.007 A 
HETATM   28  C   UNL     1      43.511 -15.649   4.827  1.00  0.00     0.016 A 
HETATM   29  C   UNL     1      43.463 -17.036   4.658  1.00  0.00     0.037 A 
HETATM   30  C   UNL     1      43.434 -17.875   5.771  1.00  0.00     0.068 A 
HETATM   31  C   UNL     1      43.426 -17.312   7.048  1.00  0.00     0.037 A 
HETATM   32  C   UNL     1      43.481 -15.925   7.220  1.00  0.00     0.016 A 
BRANCH  30  33
HETATM   33  O   UNL     1      43.399 -19.241   5.738  1.00  0.00    -0.351 OA
BRANCH  33  34
HETATM   34  C   UNL     1      44.399 -19.884   4.944  1.00  0.00     0.175 C 
BRANCH  34  35
HETATM   35  C   UNL     1      43.697 -20.839   3.983  1.00  0.00     0.022 C 
HETATM   36  C   UNL     1      43.671 -20.293   2.567  1.00  0.00     0.007 C 
ENDBRANCH  34  35
ENDBRANCH  33  34
ENDBRANCH  30  33
ENDBRANCH   1  27
TORSDOF 7
ENDMDL
MODEL 3
REMARK VINA RESULT:      -7.9      2.892      7.187
REMARK  7 active torsions:
REMARK  status: ('A' for Active; 'I' for Inactive)
REMARK    1  A    between atoms: C_2  and  C_3 
REMARK    2  A    between atoms: C_3  and  O_4 
REMARK    3  A    between atoms: O_4  and  C_5 
REMARK    4  A    between atoms: C_8  and  C_9 
REMARK    5  A    between atoms: C_15  and  C_16 
REMARK    6  A    between atoms: C_19  and  N_20 
REMARK       I    between atoms: N_20  and  C_21 
REMARK    7  A    between atoms: C_29  and  N_30 
ROOT
HETATM    1  C   UNL     1      40.413 -14.394   0.137  1.00  0.00     0.072 A 
HETATM    2  N   UNL     1      39.374 -15.009  -0.532  1.00  0.00    -0.274 N 
HETATM    3  H   UNL     1      39.083 -15.978  -0.461  1.00  0.00     0.189 HD
HETATM    4  N   UNL     1      38.722 -14.204  -1.400  1.00  0.00    -0.148 NA
HETATM    5  C   UNL     1      39.373 -13.056  -1.266  1.00  0.00     0.199 A 
HETATM    6  C   UNL     1      40.392 -13.086  -0.310  1.00  0.00     0.039 A 
HETATM    7  C   UNL     1      41.187 -11.867  -0.013  1.00  0.00     0.105 C 
HETATM    8  C   UNL     1      40.919 -10.797  -1.059  1.00  0.00     0.067 C 
HETATM    9  C   UNL     1      41.949  -9.682  -1.135  1.00  0.00     0.020 C 
HETATM   10  N   UNL     1      42.804  -8.757  -1.199  1.00  0.00    -0.096 N 
HETATM   11  C   UNL     1      39.924 -10.884  -1.978  1.00  0.00     0.139 C 
HETATM   12  O   UNL     1      39.057 -11.989  -2.025  1.00  0.00    -0.277 OA
ENDROOT
BRANCH   7  13
HETATM   13  C   UNL     1      40.781 -11.453   1.394  1.00  0.00    -0.044 A 
HETATM   14  C   UNL     1      41.755 -11.352   2.399  1.00  0.00     0.010 A 
HETATM   15  C   UNL     1      41.409 -11.006   3.712  1.00  0.00     0.030 A 
HETATM   16  C   UNL     1      40.081 -10.752   4.053  1.00  0.00     0.034 A 
HETATM   17  C   UNL     1      39.105 -10.838   3.056  1.00  0.00     0.030 A 
HETATM   18  C   UNL     1      39.447 -11.181   1.744  1.00  0.00     0.010 A 
BRANCH  16  19
HETATM   19  N   UNL     1      39.646 -10.421   5.353  1.00  0.00    -0.328 N 
HETATM   20  C   UNL     1      39.351 -11.288   6.389  1.00  0.00     0.218 C 
HETATM   21  C   UNL     1      38.889 -10.554   7.622  1.00  0.00     0.117 C 
HETATM   22  O   UNL     1      39.449 -12.510   6.384  1.00  0.00    -0.274 OA
HETATM   23  H   UNL     1      39.536  -9.435   5.543  1.00  0.00     0.169 HD
ENDBRANCH  16  19
ENDBRANCH   7  13
BRANCH  11  24
HETATM   24  N   UNL     1      39.663  -9.950  -2.955  1.00  0.00    -0.282 NA
HETATM   25  H   UNL     1      39.360 -10.316  -3.853  1.00  0.00     0.126 HD
HETATM   26  H   UNL     1      40.406  -9.257  -3.030  1.00  0.00     0.126 HD
ENDBRANCH  11  24
BRANCH   1  27
HETATM   27  C   UNL     1      41.285 -15.080   1.079  1.00  0.00    -0.007 A 
HETATM   28  C   UNL     1      42.668 -14.855   1.045  1.00  0.00     0.016 A 
HETATM   29  C   UNL     1      43.517 -15.468   1.972  1.00  0.00     0.037 A 
HETATM   30  C   UNL     1      42.993 -16.316   2.945  1.00  0.00     0.068 A 
HETATM   31  C   UNL     1      41.619 -16.566   2.963  1.00  0.00     0.037 A 
HETATM   32  C   UNL     1      40.767 -15.950   2.042  1.00  0.00     0.016 A 
BRANCH  30  33
HETATM   33  O   UNL     1      43.714 -16.963   3.911  1.00  0.00    -0.351 OA
BRANCH  33  34
HETATM   34  C   UNL     1      43.521 -18.376   4.009  1.00  0.00     0.175 C 
BRANCH  34  35
HETATM   35  C   UNL     1      44.213 -19.029   2.816  1.00  0.00     0.022 C 
HETATM   36  C   UNL     1      43.267 -19.930   2.042  1.00  0.00     0.007 C 
ENDBRANCH  34  35
ENDBRANCH  33  34
ENDBRANCH  30  33
ENDBRANCH   1  27
TORSDOF 7
ENDMDL
MODEL 4
REMARK VINA RESULT:      -7.7     10.529     14.874
REMARK  7 active torsions:
REMARK  status: ('A' for Active; 'I' for Inactive)
REMARK    1  A    between atoms: C_2  and  C_3 
REMARK    2  A    between atoms: C_3  and  O_4 
REMARK    3  A    between atoms: O_4  and  C_5 
REMARK    4  A    between atoms: C_8  and  C_9 
REMARK    5  A    between atoms: C_15  and  C_16 
REMARK    6  A    between atoms: C_19  and  N_20 
REMARK       I    between atoms: N_20  and  C_21 
REMARK    7  A    between atoms: C_29  and  N_30 
ROOT
HETATM    1  C   UNL     1      39.496  -6.983  13.198  1.00  0.00     0.072 A 
HETATM    2  N   UNL     1      38.300  -7.454  12.698  1.00  0.00    -0.274 N 
HETATM    3  H   UNL     1      38.164  -8.186  12.009  1.00  0.00     0.189 HD
HETATM    4  N   UNL     1      37.209  -6.814  13.177  1.00  0.00    -0.148 NA
HETATM    5  C   UNL     1      37.745  -5.920  13.999  1.00  0.00     0.199 A 
HETATM    6  C   UNL     1      39.136  -5.995  14.096  1.00  0.00     0.039 A 
HETATM    7  C   UNL     1      39.881  -5.089  15.006  1.00  0.00     0.105 C 
HETATM    8  C   UNL     1      38.968  -3.982  15.509  1.00  0.00     0.067 C 
HETATM    9  C   UNL     1      39.671  -2.766  16.092  1.00  0.00     0.020 C 
HETATM   10  N   UNL     1      40.254  -1.758  16.575  1.00  0.00    -0.096 N 
HETATM   11  C   UNL     1      37.623  -3.981  15.324  1.00  0.00     0.139 C 
HETATM   12  O   UNL     1      36.972  -5.024  14.643  1.00  0.00    -0.277 OA
ENDROOT
BRANCH   7  13
HETATM   13  C   UNL     1      40.416  -5.982  16.117  1.00  0.00    -0.044 A 
HETATM   14  C   UNL     1      41.788  -6.274  16.177  1.00  0.00     0.010 A 
HETATM   15  C   UNL     1      42.306  -7.120  17.166  1.00  0.00     0.030 A 
HETATM   16  C   UNL     1      41.467  -7.695  18.120  1.00  0.00     0.034 A 
HETATM   17  C   UNL     1      40.101  -7.400  18.076  1.00  0.00     0.030 A 
HETATM   18  C   UNL     1      39.581  -6.555  17.091  1.00  0.00     0.010 A 
BRANCH  16  19
HETATM   19  N   UNL     1      41.904  -8.574  19.133  1.00  0.00    -0.328 N 
HETATM   20  C   UNL     1      42.654  -8.263  20.252  1.00  0.00     0.218 C 
HETATM   21  C   UNL     1      42.945  -9.483  21.090  1.00  0.00     0.117 C 
HETATM   22  O   UNL     1      43.050  -7.155  20.595  1.00  0.00    -0.274 OA
HETATM   23  H   UNL     1      41.637  -9.542  19.021  1.00  0.00     0.169 HD
ENDBRANCH  16  19
ENDBRANCH   7  13
BRANCH  11  24
HETATM   24  N   UNL     1      36.766  -2.989  15.741  1.00  0.00    -0.282 NA
HETATM   25  H   UNL     1      37.175  -2.066  15.859  1.00  0.00     0.126 HD
HETATM   26  H   UNL     1      36.196  -3.282  16.533  1.00  0.00     0.126 HD
ENDBRANCH  11  24
BRANCH   1  27
HETATM   27  C   UNL     1      40.798  -7.486  12.785  1.00  0.00    -0.007 A 
HETATM   28  C   UNL     1      41.343  -8.617  13.408  1.00  0.00     0.016 A 
HETATM   29  C   UNL     1      42.571  -9.142  12.992  1.00  0.00     0.037 A 
HETATM   30  C   UNL     1      43.271  -8.541  11.948  1.00  0.00     0.068 A 
HETATM   31  C   UNL     1      42.746  -7.396  11.346  1.00  0.00     0.037 A 
HETATM   32  C   UNL     1      41.515  -6.872  11.755  1.00  0.00     0.016 A 
BRANCH  30  33
HETATM   33  O   UNL     1      44.470  -8.965  11.445  1.00  0.00    -0.351 OA
BRANCH  33  34
HETATM   34  C   UNL     1      44.422 -10.059  10.526  1.00  0.00     0.175 C 
BRANCH  34  35
HETATM   35  C   UNL     1      45.457  -9.804   9.435  1.00  0.00     0.022 C 
HETATM   36  C   UNL     1      45.128  -8.560   8.628  1.00  0.00     0.007 C 
ENDBRANCH  34  35
ENDBRANCH  33  34
ENDBRANCH  30  33
ENDBRANCH   1  27
TORSDOF 7
ENDMDL
MODEL 5
REMARK VINA RESULT:      -7.5     15.511     17.778
REMARK  7 active torsions:
REMARK  status: ('A' for Active; 'I' for Inactive)
REMARK    1  A    between atoms: C_2  and  C_3 
REMARK    2  A    between atoms: C_3  and  O_4 
REMARK    3  A    between atoms: O_4  and  C_5 
REMARK    4  A    between atoms: C_8  and  C_9 
REMARK    5  A    between atoms: C_15  and  C_16 
REMARK    6  A    between atoms: C_19  and  N_20 
REMARK       I    between atoms: N_20  and  C_21 
REMARK    7  A    between atoms: C_29  and  N_30 
ROOT
HETATM    1  C   UNL     1      47.850 -28.897   1.706  1.00  0.00     0.072 A 
HETATM    2  N   UNL     1      48.310 -27.955   2.603  1.00  0.00    -0.274 N 
HETATM    3  H   UNL     1      48.256 -26.945   2.518  1.00  0.00     0.189 HD
HETATM    4  N   UNL     1      48.930 -28.476   3.685  1.00  0.00    -0.148 NA
HETATM    5  C   UNL     1      48.853 -29.780   3.454  1.00  0.00     0.199 A 
HETATM    6  C   UNL     1      48.167 -30.113   2.284  1.00  0.00     0.039 A 
HETATM    7  C   UNL     1      47.960 -31.535   1.906  1.00  0.00     0.105 C 
HETATM    8  C   UNL     1      48.819 -32.439   2.774  1.00  0.00     0.067 C 
HETATM    9  C   UNL     1      49.037 -33.846   2.241  1.00  0.00     0.020 C 
HETATM   10  N   UNL     1      49.218 -35.013   1.798  1.00  0.00    -0.096 N 
HETATM   11  C   UNL     1      49.486 -32.005   3.875  1.00  0.00     0.139 C 
HETATM   12  O   UNL     1      49.424 -30.666   4.294  1.00  0.00    -0.277 OA
ENDROOT
BRANCH   7  13
HETATM   13  C   UNL     1      46.466 -31.782   2.067  1.00  0.00    -0.044 A 
HETATM   14  C   UNL     1      45.695 -32.144   0.952  1.00  0.00     0.010 A 
HETATM   15  C   UNL     1      44.313 -32.345   1.060  1.00  0.00     0.030 A 
HETATM   16  C   UNL     1      43.667 -32.191   2.286  1.00  0.00     0.034 A 
HETATM   17  C   UNL     1      44.429 -31.843   3.407  1.00  0.00     0.030 A 
HETATM   18  C   UNL     1      45.809 -31.642   3.301  1.00  0.00     0.010 A 
BRANCH  16  19
HETATM   19  N   UNL     1      42.279 -32.352   2.477  1.00  0.00    -0.328 N 
HETATM   20  C   UNL     1      41.273 -31.470   2.128  1.00  0.00     0.218 C 
HETATM   21  C   UNL     1      39.911 -31.987   2.521  1.00  0.00     0.117 C 
HETATM   22  O   UNL     1      41.396 -30.395   1.552  1.00  0.00    -0.274 OA
HETATM   23  H   UNL     1      41.992 -33.213   2.923  1.00  0.00     0.169 HD
ENDBRANCH  16  19
ENDBRANCH   7  13
BRANCH  11  24
HETATM   24  N   UNL     1      50.291 -32.786   4.672  1.00  0.00    -0.282 NA
HETATM   25  H   UNL     1      51.284 -32.768   4.456  1.00  0.00     0.126 HD
HETATM   26  H   UNL     1      49.919 -33.727   4.788  1.00  0.00     0.126 HD
ENDBRANCH  11  24
BRANCH   1  27
HETATM   27  C   UNL     1      47.199 -28.565   0.448  1.00  0.00    -0.007 A 
HETATM   28  C   UNL     1      47.965 -28.386  -0.712  1.00  0.00     0.016 A 
HETATM   29  C   UNL     1      47.354 -28.114  -1.940  1.00  0.00     0.037 A 
HETATM   30  C   UNL     1      45.966 -28.015  -2.023  1.00  0.00     0.068 A 
HETATM   31  C   UNL     1      45.202 -28.163  -0.864  1.00  0.00     0.037 A 
HETATM   32  C   UNL     1      45.810 -28.442   0.364  1.00  0.00     0.016 A 
BRANCH  30  33
HETATM   33  O   UNL     1      45.252 -27.766  -3.162  1.00  0.00    -0.351 OA
BRANCH  33  34
HETATM   34  C   UNL     1      45.180 -28.831  -4.113  1.00  0.00     0.175 C 
BRANCH  34  35
HETATM   35  C   UNL     1      43.895 -29.612  -3.850  1.00  0.00     0.022 C 
HETATM   36  C   UNL     1      44.175 -30.945  -3.179  1.00  0.00     0.007 C 
ENDBRANCH  34  35
ENDBRANCH  33  34
ENDBRANCH  30  33
ENDBRANCH   1  27
TORSDOF 7
ENDMDL
MODEL 6
REMARK VINA RESULT:      -7.4     15.911     19.186
REMARK  7 active torsions:
REMARK  status: ('A' for Active; 'I' for Inactive)
REMARK    1  A    between atoms: C_2  and  C_3 
REMARK    2  A    between atoms: C_3  and  O_4 
REMARK    3  A    between atoms: O_4  and  C_5 
REMARK    4  A    between atoms: C_8  and  C_9 
REMARK    5  A    between atoms: C_15  and  C_16 
REMARK    6  A    between atoms: C_19  and  N_20 
REMARK       I    between atoms: N_20  and  C_21 
REMARK    7  A    between atoms: C_29  and  N_30 
ROOT
HETATM    1  C   UNL     1      48.071 -29.384   0.715  1.00  0.00     0.072 A 
HETATM    2  N   UNL     1      48.096 -28.134   1.298  1.00  0.00    -0.274 N 
HETATM    3  H   UNL     1      48.855 -27.461   1.282  1.00  0.00     0.189 HD
HETATM    4  N   UNL     1      46.978 -27.824   1.992  1.00  0.00    -0.148 NA
HETATM    5  C   UNL     1      46.237 -28.912   1.834  1.00  0.00     0.199 A 
HETATM    6  C   UNL     1      46.823 -29.891   1.029  1.00  0.00     0.039 A 
HETATM    7  C   UNL     1      46.102 -31.153   0.723  1.00  0.00     0.105 C 
HETATM    8  C   UNL     1      44.879 -31.288   1.617  1.00  0.00     0.067 C 
HETATM    9  C   UNL     1      44.295 -32.688   1.721  1.00  0.00     0.020 C 
HETATM   10  N   UNL     1      43.811 -33.849   1.807  1.00  0.00    -0.096 N 
HETATM   11  C   UNL     1      44.413 -30.284   2.402  1.00  0.00     0.139 C 
HETATM   12  O   UNL     1      45.038 -29.026   2.440  1.00  0.00    -0.277 OA
ENDROOT
BRANCH   7  13
HETATM   13  C   UNL     1      45.761 -31.076  -0.759  1.00  0.00    -0.044 A 
HETATM   14  C   UNL     1      46.437 -31.897  -1.673  1.00  0.00     0.010 A 
HETATM   15  C   UNL     1      46.171 -31.826  -3.047  1.00  0.00     0.030 A 
HETATM   16  C   UNL     1      45.222 -30.931  -3.541  1.00  0.00     0.034 A 
HETATM   17  C   UNL     1      44.534 -30.116  -2.636  1.00  0.00     0.030 A 
HETATM   18  C   UNL     1      44.796 -30.187  -1.264  1.00  0.00     0.010 A 
BRANCH  16  19
HETATM   19  N   UNL     1      44.912 -30.780  -4.908  1.00  0.00    -0.328 N 
HETATM   20  C   UNL     1      44.236 -31.670  -5.722  1.00  0.00     0.218 C 
HETATM   21  C   UNL     1      44.122 -31.162  -7.138  1.00  0.00     0.117 C 
HETATM   22  O   UNL     1      43.746 -32.746  -5.398  1.00  0.00    -0.274 OA
HETATM   23  H   UNL     1      45.224 -29.920  -5.338  1.00  0.00     0.169 HD
ENDBRANCH  16  19
ENDBRANCH   7  13
BRANCH  11  24
HETATM   24  N   UNL     1      43.326 -30.374   3.242  1.00  0.00    -0.282 NA
HETATM   25  H   UNL     1      43.278 -29.682   3.984  1.00  0.00     0.126 HD
HETATM   26  H   UNL     1      43.170 -31.327   3.566  1.00  0.00     0.126 HD
ENDBRANCH  11  24
BRANCH   1  27
HETATM   27  C   UNL     1      49.183 -29.949  -0.034  1.00  0.00    -0.007 A 
HETATM   28  C   UNL     1      49.272 -29.748  -1.417  1.00  0.00     0.016 A 
HETATM   29  C   UNL     1      50.358 -30.242  -2.147  1.00  0.00     0.037 A 
HETATM   30  C   UNL     1      51.371 -30.948  -1.499  1.00  0.00     0.068 A 
HETATM   31  C   UNL     1      51.271 -31.177  -0.125  1.00  0.00     0.037 A 
HETATM   32  C   UNL     1      50.189 -30.678   0.607  1.00  0.00     0.016 A 
BRANCH  30  33
HETATM   33  O   UNL     1      52.485 -31.469  -2.096  1.00  0.00    -0.351 OA
BRANCH  33  34
HETATM   34  C   UNL     1      52.812 -32.820  -1.762  1.00  0.00     0.175 C 
BRANCH  34  35
HETATM   35  C   UNL     1      54.287 -32.867  -1.377  1.00  0.00     0.022 C 
HETATM   36  C   UNL     1      55.176 -33.105  -2.586  1.00  0.00     0.007 C 
ENDBRANCH  34  35
ENDBRANCH  33  34
ENDBRANCH  30  33
ENDBRANCH   1  27
TORSDOF 7
ENDMDL
MODEL 7
REMARK VINA RESULT:      -7.3      3.506      8.047
REMARK  7 active torsions:
REMARK  status: ('A' for Active; 'I' for Inactive)
REMARK    1  A    between atoms: C_2  and  C_3 
REMARK    2  A    between atoms: C_3  and  O_4 
REMARK    3  A    between atoms: O_4  and  C_5 
REMARK    4  A    between atoms: C_8  and  C_9 
REMARK    5  A    between atoms: C_15  and  C_16 
REMARK    6  A    between atoms: C_19  and  N_20 
REMARK       I    between atoms: N_20  and  C_21 
REMARK    7  A    between atoms: C_29  and  N_30 
ROOT
HETATM    1  C   UNL     1      39.965 -14.337  -0.202  1.00  0.00     0.072 A 
HETATM    2  N   UNL     1      39.128 -15.029  -1.054  1.00  0.00    -0.274 N 
HETATM    3  H   UNL     1      38.803 -15.986  -0.957  1.00  0.00     0.189 HD
HETATM    4  N   UNL     1      38.755 -14.332  -2.151  1.00  0.00    -0.148 NA
HETATM    5  C   UNL     1      39.376 -13.174  -1.974  1.00  0.00     0.199 A 
HETATM    6  C   UNL     1      40.099 -13.089  -0.782  1.00  0.00     0.039 A 
HETATM    7  C   UNL     1      40.817 -11.841  -0.419  1.00  0.00     0.105 C 
HETATM    8  C   UNL     1      40.868 -10.898  -1.611  1.00  0.00     0.067 C 
HETATM    9  C   UNL     1      41.910  -9.794  -1.530  1.00  0.00     0.020 C 
HETATM   10  N   UNL     1      42.775  -8.879  -1.462  1.00  0.00    -0.096 N 
HETATM   11  C   UNL     1      40.155 -11.095  -2.749  1.00  0.00     0.139 C 
HETATM   12  O   UNL     1      39.304 -12.202  -2.905  1.00  0.00    -0.277 OA
ENDROOT
BRANCH   7  13
HETATM   13  C   UNL     1      40.059 -11.269   0.771  1.00  0.00    -0.044 A 
HETATM   14  C   UNL     1      38.723 -10.868   0.618  1.00  0.00     0.010 A 
HETATM   15  C   UNL     1      38.008 -10.306   1.684  1.00  0.00     0.030 A 
HETATM   16  C   UNL     1      38.610 -10.132   2.930  1.00  0.00     0.034 A 
HETATM   17  C   UNL     1      39.938 -10.540   3.096  1.00  0.00     0.030 A 
HETATM   18  C   UNL     1      40.653 -11.102   2.034  1.00  0.00     0.010 A 
BRANCH  16  19
HETATM   19  N   UNL     1      37.970  -9.555   4.046  1.00  0.00    -0.328 N 
HETATM   20  C   UNL     1      37.842  -8.211   4.342  1.00  0.00     0.218 C 
HETATM   21  C   UNL     1      37.113  -7.989   5.643  1.00  0.00     0.117 C 
HETATM   22  O   UNL     1      38.229  -7.263   3.668  1.00  0.00    -0.274 OA
HETATM   23  H   UNL     1      37.562 -10.205   4.705  1.00  0.00     0.169 HD
ENDBRANCH  16  19
ENDBRANCH   7  13
BRANCH  11  24
HETATM   24  N   UNL     1      40.192 -10.280  -3.858  1.00  0.00    -0.282 NA
HETATM   25  H   UNL     1      40.390 -10.739  -4.743  1.00  0.00     0.126 HD
HETATM   26  H   UNL     1      40.753  -9.444  -3.701  1.00  0.00     0.126 HD
ENDBRANCH  11  24
BRANCH   1  27
HETATM   27  C   UNL     1      40.533 -14.906   1.011  1.00  0.00    -0.007 A 
HETATM   28  C   UNL     1      39.710 -15.172   2.113  1.00  0.00     0.016 A 
HETATM   29  C   UNL     1      40.230 -15.762   3.270  1.00  0.00     0.037 A 
HETATM   30  C   UNL     1      41.582 -16.092   3.339  1.00  0.00     0.068 A 
HETATM   31  C   UNL     1      42.411 -15.801   2.254  1.00  0.00     0.037 A 
HETATM   32  C   UNL     1      41.893 -15.217   1.093  1.00  0.00     0.016 A 
BRANCH  30  33
HETATM   33  O   UNL     1      42.205 -16.682   4.404  1.00  0.00    -0.351 OA
BRANCH  33  34
HETATM   34  C   UNL     1      43.603 -16.420   4.547  1.00  0.00     0.175 C 
BRANCH  34  35
HETATM   35  C   UNL     1      44.295 -17.733   4.900  1.00  0.00     0.022 C 
HETATM   36  C   UNL     1      44.235 -18.726   3.752  1.00  0.00     0.007 C 
ENDBRANCH  34  35
ENDBRANCH  33  34
ENDBRANCH  30  33
ENDBRANCH   1  27
TORSDOF 7
ENDMDL
MODEL 8
REMARK VINA RESULT:      -7.2      2.051      2.525
REMARK  7 active torsions:
REMARK  status: ('A' for Active; 'I' for Inactive)
REMARK    1  A    between atoms: C_2  and  C_3 
REMARK    2  A    between atoms: C_3  and  O_4 
REMARK    3  A    between atoms: O_4  and  C_5 
REMARK    4  A    between atoms: C_8  and  C_9 
REMARK    5  A    between atoms: C_15  and  C_16 
REMARK    6  A    between atoms: C_19  and  N_20 
REMARK       I    between atoms: N_20  and  C_21 
REMARK    7  A    between atoms: C_29  and  N_30 
ROOT
HETATM    1  C   UNL     1      40.476 -10.766   3.002  1.00  0.00     0.072 A 
HETATM    2  N   UNL     1      39.285 -10.404   3.598  1.00  0.00    -0.274 N 
HETATM    3  H   UNL     1      38.428 -10.115   3.137  1.00  0.00     0.189 HD
HETATM    4  N   UNL     1      39.317 -10.410   4.949  1.00  0.00    -0.148 NA
HETATM    5  C   UNL     1      40.564 -10.788   5.200  1.00  0.00     0.199 A 
HETATM    6  C   UNL     1      41.318 -11.066   4.058  1.00  0.00     0.039 A 
HETATM    7  C   UNL     1      42.721 -11.540   4.173  1.00  0.00     0.105 C 
HETATM    8  C   UNL     1      43.215 -11.374   5.601  1.00  0.00     0.067 C 
HETATM    9  C   UNL     1      44.724 -11.413   5.780  1.00  0.00     0.020 C 
HETATM   10  N   UNL     1      45.976 -11.444   5.929  1.00  0.00    -0.096 N 
HETATM   11  C   UNL     1      42.402 -11.058   6.641  1.00  0.00     0.139 C 
HETATM   12  O   UNL     1      41.022 -10.860   6.465  1.00  0.00    -0.277 OA
ENDROOT
BRANCH   7  13
HETATM   13  C   UNL     1      42.698 -12.989   3.705  1.00  0.00    -0.044 A 
HETATM   14  C   UNL     1      42.036 -13.958   4.474  1.00  0.00     0.010 A 
HETATM   15  C   UNL     1      42.026 -15.305   4.090  1.00  0.00     0.030 A 
HETATM   16  C   UNL     1      42.676 -15.717   2.927  1.00  0.00     0.034 A 
HETATM   17  C   UNL     1      43.329 -14.756   2.148  1.00  0.00     0.030 A 
HETATM   18  C   UNL     1      43.339 -13.411   2.528  1.00  0.00     0.010 A 
BRANCH  16  19
HETATM   19  N   UNL     1      42.734 -17.053   2.482  1.00  0.00    -0.328 N 
HETATM   20  C   UNL     1      43.485 -18.087   3.012  1.00  0.00     0.218 C 
HETATM   21  C   UNL     1      43.299 -19.370   2.240  1.00  0.00     0.117 C 
HETATM   22  O   UNL     1      44.216 -18.043   3.994  1.00  0.00    -0.274 OA
HETATM   23  H   UNL     1      42.159 -17.276   1.680  1.00  0.00     0.169 HD
ENDBRANCH  16  19
ENDBRANCH   7  13
BRANCH  11  24
HETATM   24  N   UNL     1      42.814 -10.876   7.941  1.00  0.00    -0.282 NA
HETATM   25  H   UNL     1      43.374 -10.046   8.120  1.00  0.00     0.126 HD
HETATM   26  H   UNL     1      43.210 -11.725   8.341  1.00  0.00     0.126 HD
ENDBRANCH  11  24
BRANCH   1  27
HETATM   27  C   UNL     1      40.689 -10.779   1.563  1.00  0.00    -0.007 A 
HETATM   28  C   UNL     1      40.330 -11.906   0.811  1.00  0.00     0.016 A 
HETATM   29  C   UNL     1      40.483 -11.919  -0.579  1.00  0.00     0.037 A 
HETATM   30  C   UNL     1      40.999 -10.803  -1.236  1.00  0.00     0.068 A 
HETATM   31  C   UNL     1      41.386  -9.690  -0.487  1.00  0.00     0.037 A 
HETATM   32  C   UNL     1      41.228  -9.671   0.902  1.00  0.00     0.016 A 
BRANCH  30  33
HETATM   33  O   UNL     1      41.185 -10.688  -2.586  1.00  0.00    -0.351 OA
BRANCH  33  34
HETATM   34  C   UNL     1      41.068  -9.373  -3.134  1.00  0.00     0.175 C 
BRANCH  34  35
HETATM   35  C   UNL     1      39.987  -9.406  -4.210  1.00  0.00     0.022 C 
HETATM   36  C   UNL     1      38.619  -9.708  -3.624  1.00  0.00     0.007 C 
ENDBRANCH  34  35
ENDBRANCH  33  34
ENDBRANCH  30  33
ENDBRANCH   1  27
TORSDOF 7
ENDMDL
MODEL 9
REMARK VINA RESULT:      -7.1     15.924     19.342
REMARK  7 active torsions:
REMARK  status: ('A' for Active; 'I' for Inactive)
REMARK    1  A    between atoms: C_2  and  C_3 
REMARK    2  A    between atoms: C_3  and  O_4 
REMARK    3  A    between atoms: O_4  and  C_5 
REMARK    4  A    between atoms: C_8  and  C_9 
REMARK    5  A    between atoms: C_15  and  C_16 
REMARK    6  A    between atoms: C_19  and  N_20 
REMARK       I    between atoms: N_20  and  C_21 
REMARK    7  A    between atoms: C_29  and  N_30 
ROOT
HETATM    1  C   UNL     1      45.726 -28.903  -2.604  1.00  0.00     0.072 A 
HETATM    2  N   UNL     1      45.467 -27.888  -3.502  1.00  0.00    -0.274 N 
HETATM    3  H   UNL     1      45.542 -26.889  -3.342  1.00  0.00     0.189 HD
HETATM    4  N   UNL     1      45.027 -28.314  -4.708  1.00  0.00    -0.148 NA
HETATM    5  C   UNL     1      45.015 -29.631  -4.555  1.00  0.00     0.199 A 
HETATM    6  C   UNL     1      45.471 -30.066  -3.308  1.00  0.00     0.039 A 
HETATM    7  C   UNL     1      45.556 -31.516  -2.996  1.00  0.00     0.105 C 
HETATM    8  C   UNL     1      44.830 -32.325  -4.059  1.00  0.00     0.067 C 
HETATM    9  C   UNL     1      44.470 -33.749  -3.667  1.00  0.00     0.020 C 
HETATM   10  N   UNL     1      44.170 -34.930  -3.341  1.00  0.00    -0.096 N 
HETATM   11  C   UNL     1      44.384 -31.795  -5.227  1.00  0.00     0.139 C 
HETATM   12  O   UNL     1      44.568 -30.437  -5.538  1.00  0.00    -0.277 OA
ENDROOT
BRANCH   7  13
HETATM   13  C   UNL     1      47.044 -31.825  -2.912  1.00  0.00    -0.044 A 
HETATM   14  C   UNL     1      47.723 -32.294  -4.048  1.00  0.00     0.010 A 
HETATM   15  C   UNL     1      49.085 -32.620  -3.994  1.00  0.00     0.030 A 
HETATM   16  C   UNL     1      49.802 -32.487  -2.806  1.00  0.00     0.034 A 
HETATM   17  C   UNL     1      49.136 -32.009  -1.672  1.00  0.00     0.030 A 
HETATM   18  C   UNL     1      47.778 -31.681  -1.722  1.00  0.00     0.010 A 
BRANCH  16  19
HETATM   19  N   UNL     1      51.165 -32.814  -2.661  1.00  0.00    -0.328 N 
HETATM   20  C   UNL     1      52.234 -31.944  -2.550  1.00  0.00     0.218 C 
HETATM   21  C   UNL     1      53.547 -32.677  -2.439  1.00  0.00     0.117 C 
HETATM   22  O   UNL     1      52.192 -30.719  -2.519  1.00  0.00    -0.274 OA
HETATM   23  H   UNL     1      51.381 -33.802  -2.639  1.00  0.00     0.169 HD
ENDBRANCH  16  19
ENDBRANCH   7  13
BRANCH  11  24
HETATM   24  N   UNL     1      43.703 -32.487  -6.202  1.00  0.00    -0.282 NA
HETATM   25  H   UNL     1      44.192 -32.612  -7.084  1.00  0.00     0.126 HD
HETATM   26  H   UNL     1      42.747 -32.152  -6.313  1.00  0.00     0.126 HD
ENDBRANCH  11  24
BRANCH   1  27
HETATM   27  C   UNL     1      46.157 -28.679  -1.233  1.00  0.00    -0.007 A 
HETATM   28  C   UNL     1      45.358 -29.112  -0.167  1.00  0.00     0.016 A 
HETATM   29  C   UNL     1      45.777 -28.948   1.157  1.00  0.00     0.037 A 
HETATM   30  C   UNL     1      47.003 -28.344   1.432  1.00  0.00     0.068 A 
HETATM   31  C   UNL     1      47.788 -27.884   0.373  1.00  0.00     0.037 A 
HETATM   32  C   UNL     1      47.375 -28.053  -0.952  1.00  0.00     0.016 A 
BRANCH  30  33
HETATM   33  O   UNL     1      47.528 -28.138   2.678  1.00  0.00    -0.351 OA
BRANCH  33  34
HETATM   34  C   UNL     1      47.933 -29.305   3.398  1.00  0.00     0.175 C 
BRANCH  34  35
HETATM   35  C   UNL     1      49.381 -29.109   3.837  1.00  0.00     0.022 C 
HETATM   36  C   UNL     1      50.345 -29.884   2.956  1.00  0.00     0.007 C 
ENDBRANCH  34  35
ENDBRANCH  33  34
ENDBRANCH  30  33
ENDBRANCH   1  27
TORSDOF 7
ENDMDL
MODEL 10
REMARK VINA RESULT:      -7.1      6.722      9.326
REMARK  7 active torsions:
REMARK  status: ('A' for Active; 'I' for Inactive)
REMARK    1  A    between atoms: C_2  and  C_3 
REMARK    2  A    between atoms: C_3  and  O_4 
REMARK    3  A    between atoms: O_4  and  C_5 
REMARK    4  A    between atoms: C_8  and  C_9 
REMARK    5  A    between atoms: C_15  and  C_16 
REMARK    6  A    between atoms: C_19  and  N_20 
REMARK       I    between atoms: N_20  and  C_21 
REMARK    7  A    between atoms: C_29  and  N_30 
ROOT
HETATM    1  C   UNL     1      39.484  -9.766  10.761  1.00  0.00     0.072 A 
HETATM    2  N   UNL     1      38.915 -10.898  11.305  1.00  0.00    -0.274 N 
HETATM    3  H   UNL     1      38.298 -11.560  10.846  1.00  0.00     0.189 HD
HETATM    4  N   UNL     1      39.204 -11.090  12.612  1.00  0.00    -0.148 NA
HETATM    5  C   UNL     1      39.976 -10.047  12.886  1.00  0.00     0.199 A 
HETATM    6  C   UNL     1      40.227  -9.218  11.790  1.00  0.00     0.039 A 
HETATM    7  C   UNL     1      41.108  -8.030  11.926  1.00  0.00     0.105 C 
HETATM    8  C   UNL     1      41.389  -7.749  13.393  1.00  0.00     0.067 C 
HETATM    9  C   UNL     1      41.908  -6.355  13.707  1.00  0.00     0.020 C 
HETATM   10  N   UNL     1      42.337  -5.198  13.966  1.00  0.00    -0.096 N 
HETATM   11  C   UNL     1      41.063  -8.607  14.394  1.00  0.00     0.139 C 
HETATM   12  O   UNL     1      40.435  -9.837  14.136  1.00  0.00    -0.277 OA
ENDROOT
BRANCH   7  13
HETATM   13  C   UNL     1      42.359  -8.360  11.123  1.00  0.00    -0.044 A 
HETATM   14  C   UNL     1      42.600  -7.703   9.907  1.00  0.00     0.010 A 
HETATM   15  C   UNL     1      43.724  -8.009   9.129  1.00  0.00     0.030 A 
HETATM   16  C   UNL     1      44.635  -8.979   9.546  1.00  0.00     0.034 A 
HETATM   17  C   UNL     1      44.409  -9.631  10.763  1.00  0.00     0.030 A 
HETATM   18  C   UNL     1      43.289  -9.327  11.543  1.00  0.00     0.010 A 
BRANCH  16  19
HETATM   19  N   UNL     1      45.776  -9.363   8.813  1.00  0.00    -0.328 N 
HETATM   20  C   UNL     1      45.952 -10.515   8.070  1.00  0.00     0.218 C 
HETATM   21  C   UNL     1      47.326 -10.581   7.450  1.00  0.00     0.117 C 
HETATM   22  O   UNL     1      45.132 -11.406   7.878  1.00  0.00    -0.274 OA
HETATM   23  H   UNL     1      46.554  -8.718   8.839  1.00  0.00     0.169 HD
ENDBRANCH  16  19
ENDBRANCH   7  13
BRANCH  11  24
HETATM   24  N   UNL     1      41.279  -8.380  15.734  1.00  0.00    -0.282 NA
HETATM   25  H   UNL     1      40.454  -8.395  16.327  1.00  0.00     0.126 HD
HETATM   26  H   UNL     1      41.878  -7.573  15.894  1.00  0.00     0.126 HD
ENDBRANCH  11  24
BRANCH   1  27
HETATM   27  C   UNL     1      39.267  -9.332   9.388  1.00  0.00    -0.007 A 
HETATM   28  C   UNL     1      39.027  -7.980   9.110  1.00  0.00     0.016 A 
HETATM   29  C   UNL     1      38.863  -7.537   7.793  1.00  0.00     0.037 A 
HETATM   30  C   UNL     1      38.937  -8.443   6.737  1.00  0.00     0.068 A 
HETATM   31  C   UNL     1      39.146  -9.795   7.013  1.00  0.00     0.037 A 
HETATM   32  C   UNL     1      39.316 -10.241   8.328  1.00  0.00     0.016 A 
BRANCH  30  33
HETATM   33  O   UNL     1      38.807  -8.133   5.412  1.00  0.00    -0.351 OA
BRANCH  33  34
HETATM   34  C   UNL     1      39.985  -7.668   4.749  1.00  0.00     0.175 C 
BRANCH  34  35
HETATM   35  C   UNL     1      40.423  -8.741   3.757  1.00  0.00     0.022 C 
HETATM   36  C   UNL     1      41.649  -9.493   4.245  1.00  0.00     0.007 C 
ENDBRANCH  34  35
ENDBRANCH  33  34
ENDBRANCH  30  33
ENDBRANCH   1  27
TORSDOF 7
ENDMDL
