MODEL 1
REMARK VINA RESULT:     -10.0      0.000      0.000
REMARK  6 active torsions:
REMARK  status: ('A' for Active; 'I' for Inactive)
REMARK    1  A    between atoms: C_4  and  C_5 
REMARK    2  A    between atoms: C_5  and  N_6 
REMARK    3  A    between atoms: C_10  and  C_11 
REMARK    4  A    between atoms: C_11  and  C_12 
REMARK    5  A    between atoms: N_21  and  C_22 
REMARK    6  A    between atoms: C_22  and  C_23 
ROOT
HETATM    1  C   UNL     1      42.299 -15.810   4.269  1.00  0.00     0.164 A 
HETATM    2  N   UNL     1      43.213 -14.751   3.865  1.00  0.00    -0.319 N 
HETATM    3  C   UNL     1      42.644 -13.894   2.953  1.00  0.00     0.326 A 
HETATM    4  O   UNL     1      43.263 -12.982   2.434  1.00  0.00    -0.247 OA
HETATM    5  N   UNL     1      41.340 -14.217   2.795  1.00  0.00    -0.265 N 
HETATM    6  C   UNL     1      41.047 -15.365   3.480  1.00  0.00     0.263 A 
HETATM    7  O   UNL     1      39.956 -15.915   3.522  1.00  0.00    -0.270 OA
HETATM    8  H   UNL     1      44.183 -14.993   3.671  1.00  0.00     0.166 HD
ENDROOT
BRANCH   1   9
HETATM    9  C   UNL     1      42.000 -15.793   5.812  1.00  0.00     0.033 C 
HETATM   10  C   UNL     1      40.857 -14.860   6.254  1.00  0.00     0.036 C 
HETATM   11  C   UNL     1      41.190 -13.379   6.168  1.00  0.00     0.235 C 
HETATM   12  N   UNL     1      42.490 -13.042   6.858  1.00  0.00    -0.067 N 
HETATM   13  H   UNL     1      42.279 -13.042   7.863  1.00  0.00     0.280 HD
HETATM   14  C   UNL     1      43.639 -14.001   6.636  1.00  0.00     0.235 C 
HETATM   15  C   UNL     1      43.197 -15.454   6.721  1.00  0.00     0.036 C 
BRANCH  12  16
HETATM   16  C   UNL     1      42.959 -11.621   6.524  1.00  0.00     0.274 C 
BRANCH  16  17
HETATM   17  C   UNL     1      43.893 -11.001   7.533  1.00  0.00    -0.026 A 
HETATM   18  C   UNL     1      43.343 -10.532   8.747  1.00  0.00     0.016 A 
HETATM   19  C   UNL     1      44.146  -9.988   9.752  1.00  0.00    -0.061 A 
HETATM   20  C   UNL     1      43.554  -9.516  11.049  1.00  0.00     0.048 C 
HETATM   21  C   UNL     1      45.522  -9.900   9.539  1.00  0.00     0.007 A 
HETATM   22  C   UNL     1      46.080 -10.341   8.337  1.00  0.00     0.008 A 
HETATM   23  C   UNL     1      45.284 -10.904   7.327  1.00  0.00    -0.054 A 
HETATM   24  C   UNL     1      45.943 -11.301   6.034  1.00  0.00     0.049 C 
ENDBRANCH  16  17
ENDBRANCH  12  16
ENDBRANCH   1   9
BRANCH   1  25
HETATM   25  C   UNL     1      42.869 -17.146   3.807  1.00  0.00     0.072 A 
HETATM   26  N   UNL     1      43.610 -17.810   4.748  1.00  0.00    -0.262 NA
HETATM   27  C   UNL     1      44.141 -19.006   4.397  1.00  0.00     0.117 A 
HETATM   28  C   UNL     1      43.970 -19.587   3.156  1.00  0.00     0.019 A 
HETATM   29  C   UNL     1      43.206 -18.909   2.216  1.00  0.00     0.003 A 
HETATM   30  C   UNL     1      42.638 -17.680   2.542  1.00  0.00     0.030 A 
ENDBRANCH   1  25
BRANCH   5  31
HETATM   31  C   UNL     1      40.389 -13.443   2.021  1.00  0.00     0.168 C 
BRANCH  31  32
HETATM   32  C   UNL     1      40.493 -13.644   0.510  1.00  0.00     0.140 C 
HETATM   33  O   UNL     1      39.791 -12.571  -0.150  1.00  0.00    -0.384 OA
HETATM   34  C   UNL     1      38.963 -13.130  -1.180  1.00  0.00     0.168 C 
HETATM   35  C   UNL     1      39.437 -14.552  -1.385  1.00  0.00     0.029 C 
HETATM   36  C   UNL     1      39.868 -14.937   0.008  1.00  0.00     0.036 C 
ENDBRANCH  31  32
ENDBRANCH   5  31
TORSDOF 6
ENDMDL
MODEL 2
REMARK VINA RESULT:      -9.7      2.338      7.549
REMARK  6 active torsions:
REMARK  status: ('A' for Active; 'I' for Inactive)
REMARK    1  A    between atoms: C_4  and  C_5 
REMARK    2  A    between atoms: C_5  and  N_6 
REMARK    3  A    between atoms: C_10  and  C_11 
REMARK    4  A    between atoms: C_11  and  C_12 
REMARK    5  A    between atoms: N_21  and  C_22 
REMARK    6  A    between atoms: C_22  and  C_23 
ROOT
HETATM    1  C   UNL     1      40.502 -12.346   2.358  1.00  0.00     0.164 A 
HETATM    2  N   UNL     1      41.952 -12.467   2.407  1.00  0.00    -0.319 N 
HETATM    3  C   UNL     1      42.541 -11.403   3.048  1.00  0.00     0.326 A 
HETATM    4  O   UNL     1      43.749 -11.275   3.135  1.00  0.00    -0.247 OA
HETATM    5  N   UNL     1      41.576 -10.609   3.567  1.00  0.00    -0.265 N 
HETATM    6  C   UNL     1      40.340 -11.041   3.169  1.00  0.00     0.263 A 
HETATM    7  O   UNL     1      39.271 -10.524   3.465  1.00  0.00    -0.270 OA
HETATM    8  H   UNL     1      42.442 -12.782   1.572  1.00  0.00     0.166 HD
ENDROOT
BRANCH   1   9
HETATM    9  C   UNL     1      39.772 -13.532   3.087  1.00  0.00     0.033 C 
HETATM   10  C   UNL     1      40.226 -13.796   4.535  1.00  0.00     0.036 C 
HETATM   11  C   UNL     1      41.615 -14.404   4.653  1.00  0.00     0.235 C 
HETATM   12  N   UNL     1      41.786 -15.622   3.778  1.00  0.00    -0.067 N 
HETATM   13  H   UNL     1      41.298 -16.383   4.265  1.00  0.00     0.280 HD
HETATM   14  C   UNL     1      41.209 -15.535   2.382  1.00  0.00     0.235 C 
HETATM   15  C   UNL     1      39.830 -14.894   2.370  1.00  0.00     0.036 C 
BRANCH  12  16
HETATM   16  C   UNL     1      43.254 -16.052   3.682  1.00  0.00     0.274 C 
BRANCH  16  17
HETATM   17  C   UNL     1      43.503 -17.529   3.865  1.00  0.00    -0.026 A 
HETATM   18  C   UNL     1      43.443 -18.358   2.723  1.00  0.00     0.016 A 
HETATM   19  C   UNL     1      43.707 -19.728   2.800  1.00  0.00    -0.061 A 
HETATM   20  C   UNL     1      43.665 -20.597   1.576  1.00  0.00     0.048 C 
HETATM   21  C   UNL     1      44.028 -20.281   4.039  1.00  0.00     0.007 A 
HETATM   22  C   UNL     1      44.073 -19.479   5.181  1.00  0.00     0.008 A 
HETATM   23  C   UNL     1      43.826 -18.099   5.112  1.00  0.00    -0.054 A 
HETATM   24  C   UNL     1      43.831 -17.307   6.391  1.00  0.00     0.049 C 
ENDBRANCH  16  17
ENDBRANCH  12  16
ENDBRANCH   1   9
BRANCH   1  25
HETATM   25  C   UNL     1      40.074 -12.216   0.900  1.00  0.00     0.072 A 
HETATM   26  N   UNL     1      41.080 -12.396  -0.011  1.00  0.00    -0.262 NA
HETATM   27  C   UNL     1      40.761 -12.295  -1.324  1.00  0.00     0.117 A 
HETATM   28  C   UNL     1      39.487 -12.031  -1.786  1.00  0.00     0.019 A 
HETATM   29  C   UNL     1      38.473 -11.863  -0.852  1.00  0.00     0.003 A 
HETATM   30  C   UNL     1      38.762 -11.965   0.507  1.00  0.00     0.030 A 
ENDBRANCH   1  25
BRANCH   5  31
HETATM   31  C   UNL     1      41.823  -9.472   4.432  1.00  0.00     0.168 C 
BRANCH  31  32
HETATM   32  C   UNL     1      41.773  -9.793   5.926  1.00  0.00     0.140 C 
HETATM   33  O   UNL     1      41.620  -8.561   6.659  1.00  0.00    -0.384 OA
HETATM   34  C   UNL     1      42.551  -8.559   7.751  1.00  0.00     0.168 C 
HETATM   35  C   UNL     1      43.046  -9.981   7.894  1.00  0.00     0.029 C 
HETATM   36  C   UNL     1      43.032 -10.457   6.463  1.00  0.00     0.036 C 
ENDBRANCH  31  32
ENDBRANCH   5  31
TORSDOF 6
ENDMDL
MODEL 3
REMARK VINA RESULT:      -9.3      1.571      2.061
REMARK  6 active torsions:
REMARK  status: ('A' for Active; 'I' for Inactive)
REMARK    1  A    between atoms: C_4  and  C_5 
REMARK    2  A    between atoms: C_5  and  N_6 
REMARK    3  A    between atoms: C_10  and  C_11 
REMARK    4  A    between atoms: C_11  and  C_12 
REMARK    5  A    between atoms: N_21  and  C_22 
REMARK    6  A    between atoms: C_22  and  C_23 
ROOT
HETATM    1  C   UNL     1      41.487 -13.746   3.644  1.00  0.00     0.164 A 
HETATM    2  N   UNL     1      42.431 -12.652   3.463  1.00  0.00    -0.319 N 
HETATM    3  C   UNL     1      41.950 -11.688   2.608  1.00  0.00     0.326 A 
HETATM    4  O   UNL     1      42.610 -10.724   2.266  1.00  0.00    -0.247 OA
HETATM    5  N   UNL     1      40.669 -11.982   2.285  1.00  0.00    -0.265 N 
HETATM    6  C   UNL     1      40.317 -13.202   2.795  1.00  0.00     0.263 A 
HETATM    7  O   UNL     1      39.230 -13.748   2.663  1.00  0.00    -0.270 OA
HETATM    8  H   UNL     1      43.416 -12.875   3.338  1.00  0.00     0.166 HD
ENDROOT
BRANCH   1   9
HETATM    9  C   UNL     1      41.038 -13.913   5.141  1.00  0.00     0.033 C 
HETATM   10  C   UNL     1      40.224 -12.741   5.721  1.00  0.00     0.036 C 
HETATM   11  C   UNL     1      41.036 -11.478   5.967  1.00  0.00     0.235 C 
HETATM   12  N   UNL     1      42.287 -11.746   6.769  1.00  0.00    -0.067 N 
HETATM   13  H   UNL     1      41.974 -11.859   7.740  1.00  0.00     0.280 HD
HETATM   14  C   UNL     1      43.072 -12.985   6.398  1.00  0.00     0.235 C 
HETATM   15  C   UNL     1      42.168 -14.184   6.153  1.00  0.00     0.036 C 
BRANCH  12  16
HETATM   16  C   UNL     1      43.233 -10.540   6.765  1.00  0.00     0.274 C 
BRANCH  16  17
HETATM   17  C   UNL     1      43.731 -10.111   8.123  1.00  0.00    -0.026 A 
HETATM   18  C   UNL     1      42.788  -9.604   9.045  1.00  0.00     0.016 A 
HETATM   19  C   UNL     1      43.160  -9.229  10.339  1.00  0.00    -0.061 A 
HETATM   20  C   UNL     1      42.146  -8.714  11.320  1.00  0.00     0.048 C 
HETATM   21  C   UNL     1      44.497  -9.354  10.717  1.00  0.00     0.007 A 
HETATM   22  C   UNL     1      45.444  -9.836   9.812  1.00  0.00     0.008 A 
HETATM   23  C   UNL     1      45.079 -10.231   8.515  1.00  0.00    -0.054 A 
HETATM   24  C   UNL     1      46.162 -10.682   7.572  1.00  0.00     0.049 C 
ENDBRANCH  16  17
ENDBRANCH  12  16
ENDBRANCH   1   9
BRANCH   1  25
HETATM   25  C   UNL     1      42.109 -15.021   3.084  1.00  0.00     0.072 A 
HETATM   26  N   UNL     1      41.741 -16.171   3.729  1.00  0.00    -0.262 NA
HETATM   27  C   UNL     1      42.258 -17.337   3.275  1.00  0.00     0.117 A 
HETATM   28  C   UNL     1      43.123 -17.426   2.202  1.00  0.00     0.019 A 
HETATM   29  C   UNL     1      43.478 -16.254   1.548  1.00  0.00     0.003 A 
HETATM   30  C   UNL     1      42.961 -15.036   1.983  1.00  0.00     0.030 A 
ENDBRANCH   1  25
BRANCH   5  31
HETATM   31  C   UNL     1      39.794 -11.115   1.519  1.00  0.00     0.168 C 
BRANCH  31  32
HETATM   32  C   UNL     1      39.765 -11.412   0.020  1.00  0.00     0.140 C 
HETATM   33  O   UNL     1      38.574 -12.168  -0.279  1.00  0.00    -0.384 OA
HETATM   34  C   UNL     1      38.931 -13.271  -1.124  1.00  0.00     0.168 C 
HETATM   35  C   UNL     1      40.324 -12.981  -1.639  1.00  0.00     0.029 C 
HETATM   36  C   UNL     1      40.937 -12.247  -0.473  1.00  0.00     0.036 C 
ENDBRANCH  31  32
ENDBRANCH   5  31
TORSDOF 6
ENDMDL
MODEL 4
REMARK VINA RESULT:      -9.2      2.845      8.232
REMARK  6 active torsions:
REMARK  status: ('A' for Active; 'I' for Inactive)
REMARK    1  A    between atoms: C_4  and  C_5 
REMARK    2  A    between atoms: C_5  and  N_6 
REMARK    3  A    between atoms: C_10  and  C_11 
REMARK    4  A    between atoms: C_11  and  C_12 
REMARK    5  A    between atoms: N_21  and  C_22 
REMARK    6  A    between atoms: C_22  and  C_23 
ROOT
HETATM    1  C   UNL     1      40.881 -11.485   4.263  1.00  0.00     0.164 A 
HETATM    2  N   UNL     1      42.198 -11.652   3.664  1.00  0.00    -0.319 N 
HETATM    3  C   UNL     1      43.211 -11.441   4.569  1.00  0.00     0.326 A 
HETATM    4  O   UNL     1      44.387 -11.462   4.256  1.00  0.00    -0.247 OA
HETATM    5  N   UNL     1      42.676 -11.266   5.800  1.00  0.00    -0.265 N 
HETATM    6  C   UNL     1      41.310 -11.216   5.722  1.00  0.00     0.263 A 
HETATM    7  O   UNL     1      40.544 -11.056   6.663  1.00  0.00    -0.270 OA
HETATM    8  H   UNL     1      42.366 -11.257   2.741  1.00  0.00     0.166 HD
ENDROOT
BRANCH   1   9
HETATM    9  C   UNL     1      40.013 -12.794   4.186  1.00  0.00     0.033 C 
HETATM   10  C   UNL     1      40.333 -13.862   5.249  1.00  0.00     0.036 C 
HETATM   11  C   UNL     1      41.662 -14.573   5.042  1.00  0.00     0.235 C 
HETATM   12  N   UNL     1      41.812 -15.111   3.640  1.00  0.00    -0.067 N 
HETATM   13  H   UNL     1      41.235 -15.959   3.605  1.00  0.00     0.280 HD
HETATM   14  C   UNL     1      41.354 -14.206   2.517  1.00  0.00     0.235 C 
HETATM   15  C   UNL     1      40.029 -13.528   2.832  1.00  0.00     0.036 C 
BRANCH  12  16
HETATM   16  C   UNL     1      43.249 -15.564   3.355  1.00  0.00     0.274 C 
BRANCH  16  17
HETATM   17  C   UNL     1      43.527 -17.022   3.625  1.00  0.00    -0.026 A 
HETATM   18  C   UNL     1      43.239 -17.953   2.602  1.00  0.00     0.016 A 
HETATM   19  C   UNL     1      43.512 -19.315   2.755  1.00  0.00    -0.061 A 
HETATM   20  C   UNL     1      43.225 -20.293   1.653  1.00  0.00     0.048 C 
HETATM   21  C   UNL     1      44.072 -19.757   3.954  1.00  0.00     0.007 A 
HETATM   22  C   UNL     1      44.344 -18.853   4.982  1.00  0.00     0.008 A 
HETATM   23  C   UNL     1      44.090 -17.481   4.832  1.00  0.00    -0.054 A 
HETATM   24  C   UNL     1      44.350 -16.573   6.004  1.00  0.00     0.049 C 
ENDBRANCH  16  17
ENDBRANCH  12  16
ENDBRANCH   1   9
BRANCH   1  25
HETATM   25  C   UNL     1      40.192 -10.298   3.599  1.00  0.00     0.072 A 
HETATM   26  N   UNL     1      38.840 -10.234   3.798  1.00  0.00    -0.262 NA
HETATM   27  C   UNL     1      38.172  -9.199   3.235  1.00  0.00     0.117 A 
HETATM   28  C   UNL     1      38.779  -8.211   2.484  1.00  0.00     0.019 A 
HETATM   29  C   UNL     1      40.154  -8.281   2.301  1.00  0.00     0.003 A 
HETATM   30  C   UNL     1      40.876  -9.328   2.870  1.00  0.00     0.030 A 
ENDBRANCH   1  25
BRANCH   5  31
HETATM   31  C   UNL     1      43.445 -11.162   7.024  1.00  0.00     0.168 C 
BRANCH  31  32
HETATM   32  C   UNL     1      44.052  -9.782   7.273  1.00  0.00     0.140 C 
HETATM   33  O   UNL     1      45.416  -9.947   7.708  1.00  0.00    -0.384 OA
HETATM   34  C   UNL     1      45.640  -9.103   8.847  1.00  0.00     0.168 C 
HETATM   35  C   UNL     1      44.479  -8.134   8.896  1.00  0.00     0.029 C 
HETATM   36  C   UNL     1      43.351  -8.978   8.358  1.00  0.00     0.036 C 
ENDBRANCH  31  32
ENDBRANCH   5  31
TORSDOF 6
ENDMDL
MODEL 5
REMARK VINA RESULT:      -9.1      1.325      1.961
REMARK  6 active torsions:
REMARK  status: ('A' for Active; 'I' for Inactive)
REMARK    1  A    between atoms: C_4  and  C_5 
REMARK    2  A    between atoms: C_5  and  N_6 
REMARK    3  A    between atoms: C_10  and  C_11 
REMARK    4  A    between atoms: C_11  and  C_12 
REMARK    5  A    between atoms: N_21  and  C_22 
REMARK    6  A    between atoms: C_22  and  C_23 
ROOT
HETATM    1  C   UNL     1      42.276 -15.638   4.353  1.00  0.00     0.164 A 
HETATM    2  N   UNL     1      43.126 -14.557   3.874  1.00  0.00    -0.319 N 
HETATM    3  C   UNL     1      42.493 -13.775   2.936  1.00  0.00     0.326 A 
HETATM    4  O   UNL     1      43.052 -12.861   2.357  1.00  0.00    -0.247 OA
HETATM    5  N   UNL     1      41.203 -14.169   2.829  1.00  0.00    -0.265 N 
HETATM    6  C   UNL     1      40.986 -15.295   3.576  1.00  0.00     0.263 A 
HETATM    7  O   UNL     1      39.924 -15.896   3.674  1.00  0.00    -0.270 OA
HETATM    8  H   UNL     1      44.102 -14.760   3.667  1.00  0.00     0.166 HD
ENDROOT
BRANCH   1   9
HETATM    9  C   UNL     1      42.014 -15.559   5.901  1.00  0.00     0.033 C 
HETATM   10  C   UNL     1      40.909 -14.577   6.334  1.00  0.00     0.036 C 
HETATM   11  C   UNL     1      41.283 -13.110   6.189  1.00  0.00     0.235 C 
HETATM   12  N   UNL     1      42.608 -12.788   6.837  1.00  0.00    -0.067 N 
HETATM   13  H   UNL     1      42.420 -12.748   7.846  1.00  0.00     0.280 HD
HETATM   14  C   UNL     1      43.723 -13.789   6.624  1.00  0.00     0.235 C 
HETATM   15  C   UNL     1      43.241 -15.224   6.770  1.00  0.00     0.036 C 
BRANCH  12  16
HETATM   16  C   UNL     1      43.111 -11.395   6.443  1.00  0.00     0.274 C 
BRANCH  16  17
HETATM   17  C   UNL     1      43.732 -10.597   7.563  1.00  0.00    -0.026 A 
HETATM   18  C   UNL     1      42.869  -9.923   8.455  1.00  0.00     0.016 A 
HETATM   19  C   UNL     1      43.363  -9.201   9.544  1.00  0.00    -0.061 A 
HETATM   20  C   UNL     1      42.436  -8.508  10.502  1.00  0.00     0.048 C 
HETATM   21  C   UNL     1      44.742  -9.144   9.742  1.00  0.00     0.007 A 
HETATM   22  C   UNL     1      45.610  -9.788   8.858  1.00  0.00     0.008 A 
HETATM   23  C   UNL     1      45.124 -10.529   7.770  1.00  0.00    -0.054 A 
HETATM   24  C   UNL     1      46.117 -11.146   6.824  1.00  0.00     0.049 C 
ENDBRANCH  16  17
ENDBRANCH  12  16
ENDBRANCH   1   9
BRANCH   1  25
HETATM   25  C   UNL     1      42.903 -16.966   3.942  1.00  0.00     0.072 A 
HETATM   26  N   UNL     1      42.562 -17.398   2.689  1.00  0.00    -0.262 NA
HETATM   27  C   UNL     1      43.090 -18.571   2.265  1.00  0.00     0.117 A 
HETATM   28  C   UNL     1      43.951 -19.342   3.021  1.00  0.00     0.019 A 
HETATM   29  C   UNL     1      44.299 -18.886   4.286  1.00  0.00     0.003 A 
HETATM   30  C   UNL     1      43.780 -17.681   4.753  1.00  0.00     0.030 A 
ENDBRANCH   1  25
BRANCH   5  31
HETATM   31  C   UNL     1      40.196 -13.483   2.043  1.00  0.00     0.168 C 
BRANCH  31  32
HETATM   32  C   UNL     1      39.290 -12.553   2.850  1.00  0.00     0.140 C 
HETATM   33  O   UNL     1      38.201 -12.123   2.010  1.00  0.00    -0.384 OA
HETATM   34  C   UNL     1      38.040 -10.705   2.159  1.00  0.00     0.168 C 
HETATM   35  C   UNL     1      38.828 -10.312   3.389  1.00  0.00     0.029 C 
HETATM   36  C   UNL     1      39.976 -11.289   3.344  1.00  0.00     0.036 C 
ENDBRANCH  31  32
ENDBRANCH   5  31
TORSDOF 6
ENDMDL
MODEL 6
REMARK VINA RESULT:      -9.0      2.663      6.964
REMARK  6 active torsions:
REMARK  status: ('A' for Active; 'I' for Inactive)
REMARK    1  A    between atoms: C_4  and  C_5 
REMARK    2  A    between atoms: C_5  and  N_6 
REMARK    3  A    between atoms: C_10  and  C_11 
REMARK    4  A    between atoms: C_11  and  C_12 
REMARK    5  A    between atoms: N_21  and  C_22 
REMARK    6  A    between atoms: C_22  and  C_23 
ROOT
HETATM    1  C   UNL     1      41.447 -11.471   3.727  1.00  0.00     0.164 A 
HETATM    2  N   UNL     1      40.471 -12.549   3.813  1.00  0.00    -0.319 N 
HETATM    3  C   UNL     1      39.718 -12.660   2.668  1.00  0.00     0.326 A 
HETATM    4  O   UNL     1      38.799 -13.451   2.560  1.00  0.00    -0.247 OA
HETATM    5  N   UNL     1      40.200 -11.806   1.735  1.00  0.00    -0.265 N 
HETATM    6  C   UNL     1      41.180 -11.017   2.274  1.00  0.00     0.263 A 
HETATM    7  O   UNL     1      41.800 -10.142   1.685  1.00  0.00    -0.270 OA
HETATM    8  H   UNL     1      39.947 -12.662   4.678  1.00  0.00     0.166 HD
ENDROOT
BRANCH   1   9
HETATM    9  C   UNL     1      42.926 -11.983   3.872  1.00  0.00     0.033 C 
HETATM   10  C   UNL     1      43.421 -12.901   2.739  1.00  0.00     0.036 C 
HETATM   11  C   UNL     1      42.800 -14.290   2.743  1.00  0.00     0.235 C 
HETATM   12  N   UNL     1      42.897 -14.958   4.093  1.00  0.00    -0.067 N 
HETATM   13  H   UNL     1      43.869 -15.279   4.175  1.00  0.00     0.280 HD
HETATM   14  C   UNL     1      42.606 -14.090   5.298  1.00  0.00     0.235 C 
HETATM   15  C   UNL     1      43.253 -12.718   5.186  1.00  0.00     0.036 C 
BRANCH  12  16
HETATM   16  C   UNL     1      42.027 -16.218   4.169  1.00  0.00     0.274 C 
BRANCH  16  17
HETATM   17  C   UNL     1      42.786 -17.521   4.212  1.00  0.00    -0.026 A 
HETATM   18  C   UNL     1      42.926 -18.247   3.008  1.00  0.00     0.016 A 
HETATM   19  C   UNL     1      43.654 -19.438   2.954  1.00  0.00    -0.061 A 
HETATM   20  C   UNL     1      43.818 -20.190   1.664  1.00  0.00     0.048 C 
HETATM   21  C   UNL     1      44.246 -19.918   4.122  1.00  0.00     0.007 A 
HETATM   22  C   UNL     1      44.101 -19.223   5.324  1.00  0.00     0.008 A 
HETATM   23  C   UNL     1      43.385 -18.016   5.386  1.00  0.00    -0.054 A 
HETATM   24  C   UNL     1      43.218 -17.352   6.726  1.00  0.00     0.049 C 
ENDBRANCH  16  17
ENDBRANCH  12  16
ENDBRANCH   1   9
BRANCH   1  25
HETATM   25  C   UNL     1      41.097 -10.415   4.770  1.00  0.00     0.072 A 
HETATM   26  N   UNL     1      40.093 -10.768   5.629  1.00  0.00    -0.262 NA
HETATM   27  C   UNL     1      39.739  -9.873   6.581  1.00  0.00     0.117 A 
HETATM   28  C   UNL     1      40.338  -8.637   6.734  1.00  0.00     0.019 A 
HETATM   29  C   UNL     1      41.365  -8.297   5.863  1.00  0.00     0.003 A 
HETATM   30  C   UNL     1      41.760  -9.195   4.875  1.00  0.00     0.030 A 
ENDBRANCH   1  25
BRANCH   5  31
HETATM   31  C   UNL     1      39.748 -11.750   0.359  1.00  0.00     0.168 C 
BRANCH  31  32
HETATM   32  C   UNL     1      40.439 -12.744  -0.574  1.00  0.00     0.140 C 
HETATM   33  O   UNL     1      41.130 -12.010  -1.604  1.00  0.00    -0.384 OA
HETATM   34  C   UNL     1      40.840 -12.615  -2.872  1.00  0.00     0.168 C 
HETATM   35  C   UNL     1      40.233 -13.968  -2.571  1.00  0.00     0.029 C 
HETATM   36  C   UNL     1      39.489 -13.693  -1.288  1.00  0.00     0.036 C 
ENDBRANCH  31  32
ENDBRANCH   5  31
TORSDOF 6
ENDMDL
MODEL 7
REMARK VINA RESULT:      -8.9      2.158      3.662
REMARK  6 active torsions:
REMARK  status: ('A' for Active; 'I' for Inactive)
REMARK    1  A    between atoms: C_4  and  C_5 
REMARK    2  A    between atoms: C_5  and  N_6 
REMARK    3  A    between atoms: C_10  and  C_11 
REMARK    4  A    between atoms: C_11  and  C_12 
REMARK    5  A    between atoms: N_21  and  C_22 
REMARK    6  A    between atoms: C_22  and  C_23 
ROOT
HETATM    1  C   UNL     1      42.263 -15.830   4.372  1.00  0.00     0.164 A 
HETATM    2  N   UNL     1      43.177 -14.760   3.998  1.00  0.00    -0.319 N 
HETATM    3  C   UNL     1      42.680 -13.987   2.974  1.00  0.00     0.326 A 
HETATM    4  O   UNL     1      43.318 -13.084   2.464  1.00  0.00    -0.247 OA
HETATM    5  N   UNL     1      41.413 -14.376   2.700  1.00  0.00    -0.265 N 
HETATM    6  C   UNL     1      41.090 -15.490   3.426  1.00  0.00     0.263 A 
HETATM    7  O   UNL     1      40.021 -16.084   3.389  1.00  0.00    -0.270 OA
HETATM    8  H   UNL     1      44.170 -14.971   3.926  1.00  0.00     0.166 HD
ENDROOT
BRANCH   1   9
HETATM    9  C   UNL     1      41.798 -15.729   5.870  1.00  0.00     0.033 C 
HETATM   10  C   UNL     1      40.439 -15.037   6.094  1.00  0.00     0.036 C 
HETATM   11  C   UNL     1      40.457 -13.534   5.861  1.00  0.00     0.235 C 
HETATM   12  N   UNL     1      41.570 -12.848   6.616  1.00  0.00    -0.067 N 
HETATM   13  H   UNL     1      41.253 -12.798   7.591  1.00  0.00     0.280 HD
HETATM   14  C   UNL     1      42.914 -13.543   6.613  1.00  0.00     0.235 C 
HETATM   15  C   UNL     1      42.785 -15.042   6.833  1.00  0.00     0.036 C 
BRANCH  12  16
HETATM   16  C   UNL     1      41.760 -11.399   6.156  1.00  0.00     0.274 C 
BRANCH  16  17
HETATM   17  C   UNL     1      40.585 -10.798   5.425  1.00  0.00    -0.026 A 
HETATM   18  C   UNL     1      40.663 -10.692   4.018  1.00  0.00     0.016 A 
HETATM   19  C   UNL     1      39.599 -10.190   3.264  1.00  0.00    -0.061 A 
HETATM   20  C   UNL     1      39.682 -10.104   1.766  1.00  0.00     0.048 C 
HETATM   21  C   UNL     1      38.442  -9.779   3.924  1.00  0.00     0.007 A 
HETATM   22  C   UNL     1      38.356  -9.859   5.316  1.00  0.00     0.008 A 
HETATM   23  C   UNL     1      39.412 -10.377   6.082  1.00  0.00    -0.054 A 
HETATM   24  C   UNL     1      39.276 -10.376   7.580  1.00  0.00     0.049 C 
ENDBRANCH  16  17
ENDBRANCH  12  16
ENDBRANCH   1   9
BRANCH   1  25
HETATM   25  C   UNL     1      42.929 -17.167   4.065  1.00  0.00     0.072 A 
HETATM   26  N   UNL     1      43.436 -17.819   5.156  1.00  0.00    -0.262 NA
HETATM   27  C   UNL     1      44.038 -19.014   4.948  1.00  0.00     0.117 A 
HETATM   28  C   UNL     1      44.159 -19.606   3.705  1.00  0.00     0.019 A 
HETATM   29  C   UNL     1      43.628 -18.939   2.608  1.00  0.00     0.003 A 
HETATM   30  C   UNL     1      42.997 -17.710   2.785  1.00  0.00     0.030 A 
ENDBRANCH   1  25
BRANCH   5  31
HETATM   31  C   UNL     1      40.525 -13.695   1.779  1.00  0.00     0.168 C 
BRANCH  31  32
HETATM   32  C   UNL     1      40.853 -13.919   0.303  1.00  0.00     0.140 C 
HETATM   33  O   UNL     1      41.090 -12.641  -0.319  1.00  0.00    -0.384 OA
HETATM   34  C   UNL     1      40.371 -12.593  -1.559  1.00  0.00     0.168 C 
HETATM   35  C   UNL     1      39.962 -14.016  -1.870  1.00  0.00     0.029 C 
HETATM   36  C   UNL     1      39.737 -14.581  -0.491  1.00  0.00     0.036 C 
ENDBRANCH  31  32
ENDBRANCH   5  31
TORSDOF 6
ENDMDL
MODEL 8
REMARK VINA RESULT:      -8.8      1.997      7.945
REMARK  6 active torsions:
REMARK  status: ('A' for Active; 'I' for Inactive)
REMARK    1  A    between atoms: C_4  and  C_5 
REMARK    2  A    between atoms: C_5  and  N_6 
REMARK    3  A    between atoms: C_10  and  C_11 
REMARK    4  A    between atoms: C_11  and  C_12 
REMARK    5  A    between atoms: N_21  and  C_22 
REMARK    6  A    between atoms: C_22  and  C_23 
ROOT
HETATM    1  C   UNL     1      42.369 -12.877   4.576  1.00  0.00     0.164 A 
HETATM    2  N   UNL     1      42.970 -12.988   3.254  1.00  0.00    -0.319 N 
HETATM    3  C   UNL     1      43.082 -14.296   2.843  1.00  0.00     0.326 A 
HETATM    4  O   UNL     1      43.622 -14.612   1.798  1.00  0.00    -0.247 OA
HETATM    5  N   UNL     1      42.473 -15.098   3.747  1.00  0.00    -0.265 N 
HETATM    6  C   UNL     1      42.071 -14.371   4.834  1.00  0.00     0.263 A 
HETATM    7  O   UNL     1      41.502 -14.814   5.822  1.00  0.00    -0.270 OA
HETATM    8  H   UNL     1      43.774 -12.405   3.034  1.00  0.00     0.166 HD
ENDROOT
BRANCH   1   9
HETATM    9  C   UNL     1      41.031 -12.052   4.563  1.00  0.00     0.033 C 
HETATM   10  C   UNL     1      39.838 -12.739   3.872  1.00  0.00     0.036 C 
HETATM   11  C   UNL     1      39.956 -12.822   2.357  1.00  0.00     0.235 C 
HETATM   12  N   UNL     1      40.276 -11.487   1.732  1.00  0.00    -0.067 N 
HETATM   13  H   UNL     1      39.395 -10.959   1.738  1.00  0.00     0.280 HD
HETATM   14  C   UNL     1      41.314 -10.642   2.439  1.00  0.00     0.235 C 
HETATM   15  C   UNL     1      41.121 -10.642   3.948  1.00  0.00     0.036 C 
BRANCH  12  16
HETATM   16  C   UNL     1      40.674 -11.629   0.258  1.00  0.00     0.274 C 
BRANCH  16  17
HETATM   17  C   UNL     1      39.571 -12.086  -0.663  1.00  0.00    -0.026 A 
HETATM   18  C   UNL     1      39.679 -13.371  -1.241  1.00  0.00     0.016 A 
HETATM   19  C   UNL     1      38.677 -13.886  -2.068  1.00  0.00    -0.061 A 
HETATM   20  C   UNL     1      38.789 -15.263  -2.658  1.00  0.00     0.048 C 
HETATM   21  C   UNL     1      37.553 -13.103  -2.330  1.00  0.00     0.007 A 
HETATM   22  C   UNL     1      37.439 -11.824  -1.782  1.00  0.00     0.008 A 
HETATM   23  C   UNL     1      38.432 -11.303  -0.937  1.00  0.00    -0.054 A 
HETATM   24  C   UNL     1      38.274  -9.895  -0.432  1.00  0.00     0.049 C 
ENDBRANCH  16  17
ENDBRANCH  12  16
ENDBRANCH   1   9
BRANCH   1  25
HETATM   25  C   UNL     1      43.401 -12.286   5.530  1.00  0.00     0.072 A 
HETATM   26  N   UNL     1      44.521 -11.783   4.924  1.00  0.00    -0.262 NA
HETATM   27  C   UNL     1      45.473 -11.242   5.720  1.00  0.00     0.117 A 
HETATM   28  C   UNL     1      45.372 -11.164   7.095  1.00  0.00     0.019 A 
HETATM   29  C   UNL     1      44.224 -11.665   7.696  1.00  0.00     0.003 A 
HETATM   30  C   UNL     1      43.220 -12.225   6.909  1.00  0.00     0.030 A 
ENDBRANCH   1  25
BRANCH   5  31
HETATM   31  C   UNL     1      42.267 -16.523   3.574  1.00  0.00     0.168 C 
BRANCH  31  32
HETATM   32  C   UNL     1      43.522 -17.371   3.777  1.00  0.00     0.140 C 
HETATM   33  O   UNL     1      43.612 -18.330   2.704  1.00  0.00    -0.384 OA
HETATM   34  C   UNL     1      43.914 -19.617   3.263  1.00  0.00     0.168 C 
HETATM   35  C   UNL     1      44.365 -19.369   4.685  1.00  0.00     0.029 C 
HETATM   36  C   UNL     1      43.532 -18.173   5.070  1.00  0.00     0.036 C 
ENDBRANCH  31  32
ENDBRANCH   5  31
TORSDOF 6
ENDMDL
MODEL 9
REMARK VINA RESULT:      -8.7      3.010      8.217
REMARK  6 active torsions:
REMARK  status: ('A' for Active; 'I' for Inactive)
REMARK    1  A    between atoms: C_4  and  C_5 
REMARK    2  A    between atoms: C_5  and  N_6 
REMARK    3  A    between atoms: C_10  and  C_11 
REMARK    4  A    between atoms: C_11  and  C_12 
REMARK    5  A    between atoms: N_21  and  C_22 
REMARK    6  A    between atoms: C_22  and  C_23 
ROOT
HETATM    1  C   UNL     1      40.617 -11.356   4.943  1.00  0.00     0.164 A 
HETATM    2  N   UNL     1      42.047 -11.540   4.739  1.00  0.00    -0.319 N 
HETATM    3  C   UNL     1      42.793 -10.974   5.746  1.00  0.00     0.326 A 
HETATM    4  O   UNL     1      44.010 -10.954   5.731  1.00  0.00    -0.247 OA
HETATM    5  N   UNL     1      41.960 -10.519   6.711  1.00  0.00    -0.265 N 
HETATM    6  C   UNL     1      40.657 -10.641   6.312  1.00  0.00     0.263 A 
HETATM    7  O   UNL     1      39.675 -10.306   6.960  1.00  0.00    -0.270 OA
HETATM    8  H   UNL     1      42.427 -11.405   3.804  1.00  0.00     0.166 HD
ENDROOT
BRANCH   1   9
HETATM    9  C   UNL     1      39.845 -12.719   5.065  1.00  0.00     0.033 C 
HETATM   10  C   UNL     1      40.301 -13.635   6.217  1.00  0.00     0.036 C 
HETATM   11  C   UNL     1      41.665 -14.276   6.002  1.00  0.00     0.235 C 
HETATM   12  N   UNL     1      41.774 -14.959   4.661  1.00  0.00    -0.067 N 
HETATM   13  H   UNL     1      41.259 -15.842   4.757  1.00  0.00     0.280 HD
HETATM   14  C   UNL     1      41.188 -14.220   3.478  1.00  0.00     0.235 C 
HETATM   15  C   UNL     1      39.837 -13.600   3.802  1.00  0.00     0.036 C 
BRANCH  12  16
HETATM   16  C   UNL     1      43.221 -15.346   4.336  1.00  0.00     0.274 C 
BRANCH  16  17
HETATM   17  C   UNL     1      43.414 -16.762   3.854  1.00  0.00    -0.026 A 
HETATM   18  C   UNL     1      43.676 -17.761   4.817  1.00  0.00     0.016 A 
HETATM   19  C   UNL     1      43.821 -19.103   4.458  1.00  0.00    -0.061 A 
HETATM   20  C   UNL     1      44.075 -20.162   5.492  1.00  0.00     0.048 C 
HETATM   21  C   UNL     1      43.710 -19.454   3.112  1.00  0.00     0.007 A 
HETATM   22  C   UNL     1      43.471 -18.476   2.145  1.00  0.00     0.008 A 
HETATM   23  C   UNL     1      43.308 -17.127   2.497  1.00  0.00    -0.054 A 
HETATM   24  C   UNL     1      43.114 -16.119   1.397  1.00  0.00     0.049 C 
ENDBRANCH  16  17
ENDBRANCH  12  16
ENDBRANCH   1   9
BRANCH   1  25
HETATM   25  C   UNL     1      40.074 -10.486   3.814  1.00  0.00     0.072 A 
HETATM   26  N   UNL     1      40.993 -10.147   2.858  1.00  0.00    -0.262 NA
HETATM   27  C   UNL     1      40.570  -9.377   1.828  1.00  0.00     0.117 A 
HETATM   28  C   UNL     1      39.271  -8.927   1.689  1.00  0.00     0.019 A 
HETATM   29  C   UNL     1      38.346  -9.289   2.659  1.00  0.00     0.003 A 
HETATM   30  C   UNL     1      38.743 -10.085   3.730  1.00  0.00     0.030 A 
ENDBRANCH   1  25
BRANCH   5  31
HETATM   31  C   UNL     1      42.395  -9.991   7.989  1.00  0.00     0.168 C 
BRANCH  31  32
HETATM   32  C   UNL     1      42.286  -8.471   8.115  1.00  0.00     0.140 C 
HETATM   33  O   UNL     1      43.610  -7.905   8.055  1.00  0.00    -0.384 OA
HETATM   34  C   UNL     1      43.745  -6.941   9.109  1.00  0.00     0.168 C 
HETATM   35  C   UNL     1      42.346  -6.658   9.610  1.00  0.00     0.029 C 
HETATM   36  C   UNL     1      41.676  -7.996   9.425  1.00  0.00     0.036 C 
ENDBRANCH  31  32
ENDBRANCH   5  31
TORSDOF 6
ENDMDL
MODEL 10
REMARK VINA RESULT:      -8.7      2.408      5.821
REMARK  6 active torsions:
REMARK  status: ('A' for Active; 'I' for Inactive)
REMARK    1  A    between atoms: C_4  and  C_5 
REMARK    2  A    between atoms: C_5  and  N_6 
REMARK    3  A    between atoms: C_10  and  C_11 
REMARK    4  A    between atoms: C_11  and  C_12 
REMARK    5  A    between atoms: N_21  and  C_22 
REMARK    6  A    between atoms: C_22  and  C_23 
ROOT
HETATM    1  C   UNL     1      43.108 -16.809   4.636  1.00  0.00     0.164 A 
HETATM    2  N   UNL     1      41.730 -16.582   5.051  1.00  0.00    -0.319 N 
HETATM    3  C   UNL     1      41.648 -15.765   6.154  1.00  0.00     0.326 A 
HETATM    4  O   UNL     1      40.592 -15.507   6.704  1.00  0.00    -0.247 OA
HETATM    5  N   UNL     1      42.883 -15.300   6.454  1.00  0.00    -0.265 N 
HETATM    6  C   UNL     1      43.823 -15.898   5.659  1.00  0.00     0.263 A 
HETATM    7  O   UNL     1      45.028 -15.694   5.698  1.00  0.00    -0.270 OA
HETATM    8  H   UNL     1      41.089 -17.373   5.062  1.00  0.00     0.166 HD
ENDROOT
BRANCH   1   9
HETATM    9  C   UNL     1      43.387 -16.306   3.174  1.00  0.00     0.033 C 
HETATM   10  C   UNL     1      43.433 -14.776   2.999  1.00  0.00     0.036 C 
HETATM   11  C   UNL     1      42.079 -14.093   3.116  1.00  0.00     0.235 C 
HETATM   12  N   UNL     1      41.035 -14.730   2.231  1.00  0.00    -0.067 N 
HETATM   13  H   UNL     1      41.236 -14.397   1.281  1.00  0.00     0.280 HD
HETATM   14  C   UNL     1      41.020 -16.243   2.187  1.00  0.00     0.235 C 
HETATM   15  C   UNL     1      42.422 -16.826   2.092  1.00  0.00     0.036 C 
BRANCH  12  16
HETATM   16  C   UNL     1      39.624 -14.231   2.565  1.00  0.00     0.274 C 
BRANCH  16  17
HETATM   17  C   UNL     1      39.550 -12.815   3.078  1.00  0.00    -0.026 A 
HETATM   18  C   UNL     1      39.388 -12.620   4.469  1.00  0.00     0.016 A 
HETATM   19  C   UNL     1      39.357 -11.341   5.029  1.00  0.00    -0.061 A 
HETATM   20  C   UNL     1      39.211 -11.145   6.511  1.00  0.00     0.048 C 
HETATM   21  C   UNL     1      39.480 -10.236   4.187  1.00  0.00     0.007 A 
HETATM   22  C   UNL     1      39.620 -10.409   2.809  1.00  0.00     0.008 A 
HETATM   23  C   UNL     1      39.669 -11.691   2.237  1.00  0.00    -0.054 A 
HETATM   24  C   UNL     1      39.760 -11.803   0.740  1.00  0.00     0.049 C 
ENDBRANCH  16  17
ENDBRANCH  12  16
ENDBRANCH   1   9
BRANCH   1  25
HETATM   25  C   UNL     1      43.429 -18.289   4.807  1.00  0.00     0.072 A 
HETATM   26  N   UNL     1      43.300 -18.761   6.086  1.00  0.00    -0.262 NA
HETATM   27  C   UNL     1      43.569 -20.070   6.301  1.00  0.00     0.117 A 
HETATM   28  C   UNL     1      43.955 -20.948   5.306  1.00  0.00     0.019 A 
HETATM   29  C   UNL     1      44.070 -20.460   4.011  1.00  0.00     0.003 A 
HETATM   30  C   UNL     1      43.796 -19.119   3.751  1.00  0.00     0.030 A 
ENDBRANCH   1  25
BRANCH   5  31
HETATM   31  C   UNL     1      43.162 -14.299   7.465  1.00  0.00     0.168 C 
BRANCH  31  32
HETATM   32  C   UNL     1      43.743 -12.995   6.920  1.00  0.00     0.140 C 
HETATM   33  O   UNL     1      44.114 -12.153   8.029  1.00  0.00    -0.384 OA
HETATM   34  C   UNL     1      43.628 -10.826   7.781  1.00  0.00     0.168 C 
HETATM   35  C   UNL     1      43.252 -10.776   6.316  1.00  0.00     0.029 C 
HETATM   36  C   UNL     1      42.773 -12.185   6.073  1.00  0.00     0.036 C 
ENDBRANCH  31  32
ENDBRANCH   5  31
TORSDOF 6
ENDMDL
