MODEL 1
REMARK VINA RESULT:      -8.0      0.000      0.000
REMARK  2 active torsions:
REMARK  status: ('A' for Active; 'I' for Inactive)
REMARK    1  A    between atoms: C_9  and  N_10 
REMARK    2  A    between atoms: N_10  and  C_11 
ROOT
HETATM    1  C   UNL     1      41.010 -14.408   5.211  1.00  0.00     0.050 C 
HETATM    2  C   UNL     1      42.157 -15.370   5.222  1.00  0.00    -0.032 A 
HETATM    3  C   UNL     1      42.397 -16.402   4.215  1.00  0.00     0.053 A 
HETATM    4  C   UNL     1      43.504 -17.165   4.556  1.00  0.00     0.114 A 
HETATM    5  N   UNL     1      44.000 -18.218   3.889  1.00  0.00    -0.226 NA
HETATM    6  C   UNL     1      43.306 -18.517   2.792  1.00  0.00     0.125 A 
HETATM    7  C   UNL     1      43.772 -19.682   1.973  1.00  0.00     0.093 C 
HETATM    8  N   UNL     1      42.228 -17.856   2.342  1.00  0.00    -0.215 NA
HETATM    9  C   UNL     1      41.743 -16.785   3.013  1.00  0.00     0.143 A 
HETATM   10  S   UNL     1      44.264 -16.643   5.980  1.00  0.00    -0.074 SA
HETATM   11  C   UNL     1      43.128 -15.393   6.217  1.00  0.00    -0.012 A 
HETATM   12  C   UNL     1      43.260 -14.505   7.412  1.00  0.00     0.057 C 
ENDROOT
BRANCH   9  13
HETATM   13  N   UNL     1      40.658 -16.065   2.487  1.00  0.00    -0.340 N 
HETATM   14  H   UNL     1      39.821 -16.139   3.042  1.00  0.00     0.167 HD
BRANCH  13  15
HETATM   15  C   UNL     1      40.581 -15.113   1.454  1.00  0.00     0.036 A 
HETATM   16  C   UNL     1      39.855 -15.310   0.273  1.00  0.00     0.069 A 
HETATM   17  C   UNL     1      39.815 -14.326  -0.718  1.00  0.00     0.104 A 
HETATM   18  C   UNL     1      40.531 -13.138  -0.559  1.00  0.00     0.102 A 
HETATM   19  O   UNL     1      39.053 -14.598  -1.828  1.00  0.00    -0.346 OA
HETATM   20  O   UNL     1      40.568 -12.147  -1.505  1.00  0.00    -0.346 OA
HETATM   21  C   UNL     1      41.247 -12.915   0.612  1.00  0.00     0.042 A 
HETATM   22  C   UNL     1      40.092 -12.619  -2.771  1.00  0.00     0.202 C 
HETATM   23  C   UNL     1      38.811 -13.417  -2.598  1.00  0.00     0.202 C 
HETATM   24  C   UNL     1      41.269 -13.896   1.608  1.00  0.00     0.032 A 
ENDBRANCH  13  15
ENDBRANCH   9  13
TORSDOF 2
ENDMDL
MODEL 2
REMARK VINA RESULT:      -7.7      1.667      2.198
REMARK  2 active torsions:
REMARK  status: ('A' for Active; 'I' for Inactive)
REMARK    1  A    between atoms: C_9  and  N_10 
REMARK    2  A    between atoms: N_10  and  C_11 
ROOT
HETATM    1  C   UNL     1      42.897 -14.219   5.246  1.00  0.00     0.050 C 
HETATM    2  C   UNL     1      43.150 -15.677   5.470  1.00  0.00    -0.032 A 
HETATM    3  C   UNL     1      43.347 -16.667   4.412  1.00  0.00     0.053 A 
HETATM    4  C   UNL     1      43.489 -17.935   4.955  1.00  0.00     0.114 A 
HETATM    5  N   UNL     1      43.652 -19.089   4.291  1.00  0.00    -0.226 NA
HETATM    6  C   UNL     1      43.665 -18.932   2.967  1.00  0.00     0.125 A 
HETATM    7  C   UNL     1      43.836 -20.160   2.126  1.00  0.00     0.093 C 
HETATM    8  N   UNL     1      43.551 -17.766   2.315  1.00  0.00    -0.215 NA
HETATM    9  C   UNL     1      43.402 -16.604   2.995  1.00  0.00     0.143 A 
HETATM   10  S   UNL     1      43.449 -17.946   6.652  1.00  0.00    -0.074 SA
HETATM   11  C   UNL     1      43.211 -16.259   6.731  1.00  0.00    -0.012 A 
HETATM   12  C   UNL     1      43.077 -15.604   8.068  1.00  0.00     0.057 C 
ENDROOT
BRANCH   9  13
HETATM   13  N   UNL     1      43.356 -15.387   2.295  1.00  0.00    -0.340 N 
HETATM   14  H   UNL     1      44.266 -15.025   2.062  1.00  0.00     0.167 HD
BRANCH  13  15
HETATM   15  C   UNL     1      42.289 -14.695   1.692  1.00  0.00     0.036 A 
HETATM   16  C   UNL     1      42.247 -13.303   1.561  1.00  0.00     0.069 A 
HETATM   17  C   UNL     1      41.160 -12.671   0.951  1.00  0.00     0.104 A 
HETATM   18  C   UNL     1      40.076 -13.423   0.492  1.00  0.00     0.102 A 
HETATM   19  O   UNL     1      41.221 -11.304   0.842  1.00  0.00    -0.346 OA
HETATM   20  O   UNL     1      38.961 -12.870  -0.081  1.00  0.00    -0.346 OA
HETATM   21  C   UNL     1      40.104 -14.809   0.599  1.00  0.00     0.042 A 
HETATM   22  C   UNL     1      38.895 -11.461   0.168  1.00  0.00     0.202 C 
HETATM   23  C   UNL     1      40.245 -10.809  -0.080  1.00  0.00     0.202 C 
HETATM   24  C   UNL     1      41.203 -15.437   1.194  1.00  0.00     0.032 A 
ENDBRANCH  13  15
ENDBRANCH   9  13
TORSDOF 2
ENDMDL
MODEL 3
REMARK VINA RESULT:      -7.7      3.724      6.703
REMARK  2 active torsions:
REMARK  status: ('A' for Active; 'I' for Inactive)
REMARK    1  A    between atoms: C_9  and  N_10 
REMARK    2  A    between atoms: N_10  and  C_11 
ROOT
HETATM    1  C   UNL     1      42.907 -13.646   5.046  1.00  0.00     0.050 C 
HETATM    2  C   UNL     1      41.675 -13.285   4.274  1.00  0.00    -0.032 A 
HETATM    3  C   UNL     1      41.348 -13.779   2.938  1.00  0.00     0.053 A 
HETATM    4  C   UNL     1      40.174 -13.200   2.481  1.00  0.00     0.114 A 
HETATM    5  N   UNL     1      39.587 -13.388   1.290  1.00  0.00    -0.226 NA
HETATM    6  C   UNL     1      40.257 -14.228   0.503  1.00  0.00     0.125 A 
HETATM    7  C   UNL     1      39.691 -14.506  -0.856  1.00  0.00     0.093 C 
HETATM    8  N   UNL     1      41.394 -14.865   0.824  1.00  0.00    -0.215 NA
HETATM    9  C   UNL     1      41.972 -14.681   2.035  1.00  0.00     0.143 A 
HETATM   10  S   UNL     1      39.456 -12.159   3.612  1.00  0.00    -0.074 SA
HETATM   11  C   UNL     1      40.701 -12.415   4.750  1.00  0.00    -0.012 A 
HETATM   12  C   UNL     1      40.644 -11.707   6.065  1.00  0.00     0.057 C 
ENDROOT
BRANCH   9  13
HETATM   13  N   UNL     1      43.122 -15.411   2.377  1.00  0.00    -0.340 N 
HETATM   14  H   UNL     1      43.951 -14.844   2.443  1.00  0.00     0.167 HD
BRANCH  13  15
HETATM   15  C   UNL     1      43.288 -16.732   2.834  1.00  0.00     0.036 A 
HETATM   16  C   UNL     1      43.497 -17.065   4.177  1.00  0.00     0.069 A 
HETATM   17  C   UNL     1      43.654 -18.397   4.571  1.00  0.00     0.104 A 
HETATM   18  C   UNL     1      43.641 -19.418   3.618  1.00  0.00     0.102 A 
HETATM   19  O   UNL     1      43.825 -18.627   5.913  1.00  0.00    -0.346 OA
HETATM   20  O   UNL     1      43.826 -20.740   3.927  1.00  0.00    -0.346 OA
HETATM   21  C   UNL     1      43.421 -19.111   2.280  1.00  0.00     0.042 A 
HETATM   22  C   UNL     1      44.371 -20.895   5.243  1.00  0.00     0.202 C 
HETATM   23  C   UNL     1      43.635 -20.010   6.234  1.00  0.00     0.202 C 
HETATM   24  C   UNL     1      43.245 -17.778   1.894  1.00  0.00     0.032 A 
ENDBRANCH  13  15
ENDBRANCH   9  13
TORSDOF 2
ENDMDL
MODEL 4
REMARK VINA RESULT:      -7.7      1.464      3.114
REMARK  2 active torsions:
REMARK  status: ('A' for Active; 'I' for Inactive)
REMARK    1  A    between atoms: C_9  and  N_10 
REMARK    2  A    between atoms: N_10  and  C_11 
ROOT
HETATM    1  C   UNL     1      43.241 -18.062   2.262  1.00  0.00     0.050 C 
HETATM    2  C   UNL     1      43.004 -17.615   3.671  1.00  0.00    -0.032 A 
HETATM    3  C   UNL     1      42.150 -16.495   4.063  1.00  0.00     0.053 A 
HETATM    4  C   UNL     1      42.201 -16.304   5.436  1.00  0.00     0.114 A 
HETATM    5  N   UNL     1      41.576 -15.353   6.147  1.00  0.00    -0.226 NA
HETATM    6  C   UNL     1      40.848 -14.531   5.393  1.00  0.00     0.125 A 
HETATM    7  C   UNL     1      40.111 -13.426   6.086  1.00  0.00     0.093 C 
HETATM    8  N   UNL     1      40.701 -14.611   4.062  1.00  0.00    -0.215 NA
HETATM    9  C   UNL     1      41.324 -15.583   3.354  1.00  0.00     0.143 A 
HETATM   10  S   UNL     1      43.175 -17.441   6.235  1.00  0.00    -0.074 SA
HETATM   11  C   UNL     1      43.592 -18.220   4.775  1.00  0.00    -0.012 A 
HETATM   12  C   UNL     1      44.514 -19.395   4.815  1.00  0.00     0.057 C 
ENDROOT
BRANCH   9  13
HETATM   13  N   UNL     1      41.100 -15.691   1.971  1.00  0.00    -0.340 N 
HETATM   14  H   UNL     1      41.033 -16.643   1.650  1.00  0.00     0.167 HD
BRANCH  13  15
HETATM   15  C   UNL     1      40.758 -14.730   1.002  1.00  0.00     0.036 A 
HETATM   16  C   UNL     1      39.837 -14.962  -0.025  1.00  0.00     0.069 A 
HETATM   17  C   UNL     1      39.535 -13.967  -0.959  1.00  0.00     0.104 A 
HETATM   18  C   UNL     1      40.180 -12.730  -0.900  1.00  0.00     0.102 A 
HETATM   19  O   UNL     1      38.598 -14.278  -1.912  1.00  0.00    -0.346 OA
HETATM   20  O   UNL     1      39.963 -11.722  -1.803  1.00  0.00    -0.346 OA
HETATM   21  C   UNL     1      41.088 -12.473   0.121  1.00  0.00     0.042 A 
HETATM   22  C   UNL     1      39.290 -12.207  -2.971  1.00  0.00     0.202 C 
HETATM   23  C   UNL     1      38.127 -13.105  -2.584  1.00  0.00     0.202 C 
HETATM   24  C   UNL     1      41.372 -13.466   1.063  1.00  0.00     0.032 A 
ENDBRANCH  13  15
ENDBRANCH   9  13
TORSDOF 2
ENDMDL
MODEL 5
REMARK VINA RESULT:      -7.6      1.914      3.627
REMARK  2 active torsions:
REMARK  status: ('A' for Active; 'I' for Inactive)
REMARK    1  A    between atoms: C_9  and  N_10 
REMARK    2  A    between atoms: N_10  and  C_11 
ROOT
HETATM    1  C   UNL     1      43.621 -18.064   2.688  1.00  0.00     0.050 C 
HETATM    2  C   UNL     1      43.551 -17.528   4.084  1.00  0.00    -0.032 A 
HETATM    3  C   UNL     1      43.314 -16.129   4.434  1.00  0.00     0.053 A 
HETATM    4  C   UNL     1      43.378 -15.955   5.809  1.00  0.00     0.114 A 
HETATM    5  N   UNL     1      43.245 -14.807   6.489  1.00  0.00    -0.226 NA
HETATM    6  C   UNL     1      43.037 -13.753   5.700  1.00  0.00     0.125 A 
HETATM    7  C   UNL     1      42.879 -12.416   6.357  1.00  0.00     0.093 C 
HETATM    8  N   UNL     1      42.940 -13.782   4.362  1.00  0.00    -0.215 NA
HETATM    9  C   UNL     1      43.061 -14.949   3.685  1.00  0.00     0.143 A 
HETATM   10  S   UNL     1      43.649 -17.401   6.654  1.00  0.00    -0.074 SA
HETATM   11  C   UNL     1      43.722 -18.316   5.216  1.00  0.00    -0.012 A 
HETATM   12  C   UNL     1      43.969 -19.787   5.301  1.00  0.00     0.057 C 
ENDROOT
BRANCH   9  13
HETATM   13  N   UNL     1      42.886 -14.967   2.291  1.00  0.00    -0.340 N 
HETATM   14  H   UNL     1      43.526 -15.583   1.816  1.00  0.00     0.167 HD
BRANCH  13  15
HETATM   15  C   UNL     1      41.868 -14.448   1.471  1.00  0.00     0.036 A 
HETATM   16  C   UNL     1      41.742 -13.089   1.161  1.00  0.00     0.069 A 
HETATM   17  C   UNL     1      40.710 -12.632   0.338  1.00  0.00     0.104 A 
HETATM   18  C   UNL     1      39.762 -13.527  -0.163  1.00  0.00     0.102 A 
HETATM   19  O   UNL     1      40.685 -11.287   0.068  1.00  0.00    -0.346 OA
HETATM   20  O   UNL     1      38.702 -13.145  -0.945  1.00  0.00    -0.346 OA
HETATM   21  C   UNL     1      39.876 -14.883   0.119  1.00  0.00     0.042 A 
HETATM   22  C   UNL     1      38.497 -11.729  -0.885  1.00  0.00     0.202 C 
HETATM   23  C   UNL     1      39.817 -10.990  -1.031  1.00  0.00     0.202 C 
HETATM   24  C   UNL     1      40.922 -15.337   0.929  1.00  0.00     0.032 A 
ENDBRANCH  13  15
ENDBRANCH   9  13
TORSDOF 2
ENDMDL
MODEL 6
REMARK VINA RESULT:      -7.6      3.964      6.759
REMARK  2 active torsions:
REMARK  status: ('A' for Active; 'I' for Inactive)
REMARK    1  A    between atoms: C_9  and  N_10 
REMARK    2  A    between atoms: N_10  and  C_11 
ROOT
HETATM    1  C   UNL     1      43.502 -17.623   6.641  1.00  0.00     0.050 C 
HETATM    2  C   UNL     1      43.435 -17.699   5.147  1.00  0.00    -0.032 A 
HETATM    3  C   UNL     1      42.900 -16.653   4.277  1.00  0.00     0.053 A 
HETATM    4  C   UNL     1      42.920 -17.067   2.953  1.00  0.00     0.114 A 
HETATM    5  N   UNL     1      42.480 -16.387   1.884  1.00  0.00    -0.226 NA
HETATM    6  C   UNL     1      41.972 -15.195   2.195  1.00  0.00     0.125 A 
HETATM    7  C   UNL     1      41.444 -14.353   1.074  1.00  0.00     0.093 C 
HETATM    8  N   UNL     1      41.903 -14.670   3.428  1.00  0.00    -0.215 NA
HETATM    9  C   UNL     1      42.365 -15.357   4.500  1.00  0.00     0.143 A 
HETATM   10  S   UNL     1      43.601 -18.607   2.743  1.00  0.00    -0.074 SA
HETATM   11  C   UNL     1      43.869 -18.799   4.416  1.00  0.00    -0.012 A 
HETATM   12  C   UNL     1      44.489 -20.065   4.914  1.00  0.00     0.057 C 
ENDROOT
BRANCH   9  13
HETATM   13  N   UNL     1      42.348 -14.760   5.771  1.00  0.00    -0.340 N 
HETATM   14  H   UNL     1      42.235 -15.421   6.522  1.00  0.00     0.167 HD
BRANCH  13  15
HETATM   15  C   UNL     1      42.655 -13.454   6.194  1.00  0.00     0.036 A 
HETATM   16  C   UNL     1      43.853 -13.109   6.831  1.00  0.00     0.069 A 
HETATM   17  C   UNL     1      44.103 -11.793   7.227  1.00  0.00     0.104 A 
HETATM   18  C   UNL     1      43.140 -10.802   7.023  1.00  0.00     0.102 A 
HETATM   19  O   UNL     1      45.317 -11.546   7.818  1.00  0.00    -0.346 OA
HETATM   20  O   UNL     1      43.301  -9.500   7.419  1.00  0.00    -0.346 OA
HETATM   21  C   UNL     1      41.950 -11.119   6.379  1.00  0.00     0.042 A 
HETATM   22  C   UNL     1      44.383  -9.370   8.349  1.00  0.00     0.202 C 
HETATM   23  C   UNL     1      45.599 -10.143   7.868  1.00  0.00     0.202 C 
HETATM   24  C   UNL     1      41.712 -12.435   5.968  1.00  0.00     0.032 A 
ENDBRANCH  13  15
ENDBRANCH   9  13
TORSDOF 2
ENDMDL
MODEL 7
REMARK VINA RESULT:      -7.5      3.808      6.939
REMARK  2 active torsions:
REMARK  status: ('A' for Active; 'I' for Inactive)
REMARK    1  A    between atoms: C_9  and  N_10 
REMARK    2  A    between atoms: N_10  and  C_11 
ROOT
HETATM    1  C   UNL     1      41.716 -11.159   1.704  1.00  0.00     0.050 C 
HETATM    2  C   UNL     1      41.204 -11.279   0.303  1.00  0.00    -0.032 A 
HETATM    3  C   UNL     1      40.538 -12.458  -0.249  1.00  0.00     0.053 A 
HETATM    4  C   UNL     1      40.252 -12.269  -1.593  1.00  0.00     0.114 A 
HETATM    5  N   UNL     1      39.677 -13.144  -2.431  1.00  0.00    -0.226 NA
HETATM    6  C   UNL     1      39.379 -14.306  -1.851  1.00  0.00     0.125 A 
HETATM    7  C   UNL     1      38.738 -15.360  -2.700  1.00  0.00     0.093 C 
HETATM    8  N   UNL     1      39.590 -14.615  -0.563  1.00  0.00    -0.215 NA
HETATM    9  C   UNL     1      40.157 -13.719   0.281  1.00  0.00     0.143 A 
HETATM   10  S   UNL     1      40.698 -10.734  -2.163  1.00  0.00    -0.074 SA
HETATM   11  C   UNL     1      41.321 -10.269  -0.645  1.00  0.00    -0.012 A 
HETATM   12  C   UNL     1      41.920  -8.908  -0.489  1.00  0.00     0.057 C 
ENDROOT
BRANCH   9  13
HETATM   13  N   UNL     1      40.303 -14.038   1.641  1.00  0.00    -0.340 N 
HETATM   14  H   UNL     1      39.515 -13.762   2.203  1.00  0.00     0.167 HD
BRANCH  13  15
HETATM   15  C   UNL     1      41.243 -14.837   2.317  1.00  0.00     0.036 A 
HETATM   16  C   UNL     1      41.490 -16.177   1.999  1.00  0.00     0.069 A 
HETATM   17  C   UNL     1      42.439 -16.920   2.706  1.00  0.00     0.104 A 
HETATM   18  C   UNL     1      43.133 -16.343   3.771  1.00  0.00     0.102 A 
HETATM   19  O   UNL     1      42.632 -18.218   2.302  1.00  0.00    -0.346 OA
HETATM   20  O   UNL     1      44.049 -17.022   4.532  1.00  0.00    -0.346 OA
HETATM   21  C   UNL     1      42.914 -15.009   4.095  1.00  0.00     0.042 A 
HETATM   22  C   UNL     1      43.942 -18.437   4.333  1.00  0.00     0.202 C 
HETATM   23  C   UNL     1      43.835 -18.764   2.854  1.00  0.00     0.202 C 
HETATM   24  C   UNL     1      41.977 -14.264   3.372  1.00  0.00     0.032 A 
ENDBRANCH  13  15
ENDBRANCH   9  13
TORSDOF 2
ENDMDL
MODEL 8
REMARK VINA RESULT:      -7.4      3.947      7.494
REMARK  2 active torsions:
REMARK  status: ('A' for Active; 'I' for Inactive)
REMARK    1  A    between atoms: C_9  and  N_10 
REMARK    2  A    between atoms: N_10  and  C_11 
ROOT
HETATM    1  C   UNL     1      39.824 -14.641  -0.602  1.00  0.00     0.050 C 
HETATM    2  C   UNL     1      39.789 -13.198  -0.202  1.00  0.00    -0.032 A 
HETATM    3  C   UNL     1      39.585 -12.710   1.160  1.00  0.00     0.053 A 
HETATM    4  C   UNL     1      39.539 -11.324   1.177  1.00  0.00     0.114 A 
HETATM    5  N   UNL     1      39.333 -10.532   2.239  1.00  0.00    -0.226 NA
HETATM    6  C   UNL     1      39.154 -11.211   3.371  1.00  0.00     0.125 A 
HETATM    7  C   UNL     1      38.910 -10.423   4.621  1.00  0.00     0.093 C 
HETATM    8  N   UNL     1      39.187 -12.546   3.498  1.00  0.00    -0.215 NA
HETATM    9  C   UNL     1      39.411 -13.338   2.422  1.00  0.00     0.143 A 
HETATM   10  S   UNL     1      39.787 -10.627  -0.351  1.00  0.00    -0.074 SA
HETATM   11  C   UNL     1      39.937 -12.150  -1.104  1.00  0.00    -0.012 A 
HETATM   12  C   UNL     1      40.176 -12.213  -2.578  1.00  0.00     0.057 C 
ENDROOT
BRANCH   9  13
HETATM   13  N   UNL     1      39.511 -14.729   2.588  1.00  0.00    -0.340 N 
HETATM   14  H   UNL     1      38.740 -15.237   2.187  1.00  0.00     0.167 HD
BRANCH  13  15
HETATM   15  C   UNL     1      40.571 -15.543   3.028  1.00  0.00     0.036 A 
HETATM   16  C   UNL     1      40.978 -15.627   4.365  1.00  0.00     0.069 A 
HETATM   17  C   UNL     1      42.039 -16.455   4.742  1.00  0.00     0.104 A 
HETATM   18  C   UNL     1      42.735 -17.189   3.780  1.00  0.00     0.102 A 
HETATM   19  O   UNL     1      42.346 -16.494   6.080  1.00  0.00    -0.346 OA
HETATM   20  O   UNL     1      43.807 -17.992   4.072  1.00  0.00    -0.346 OA
HETATM   21  C   UNL     1      42.338 -17.133   2.449  1.00  0.00     0.042 A 
HETATM   22  C   UNL     1      44.324 -17.712   5.378  1.00  0.00     0.202 C 
HETATM   23  C   UNL     1      43.196 -17.603   6.389  1.00  0.00     0.202 C 
HETATM   24  C   UNL     1      41.264 -16.316   2.079  1.00  0.00     0.032 A 
ENDBRANCH  13  15
ENDBRANCH   9  13
TORSDOF 2
ENDMDL
MODEL 9
REMARK VINA RESULT:      -7.2      1.560      2.399
REMARK  2 active torsions:
REMARK  status: ('A' for Active; 'I' for Inactive)
REMARK    1  A    between atoms: C_9  and  N_10 
REMARK    2  A    between atoms: N_10  and  C_11 
ROOT
HETATM    1  C   UNL     1      39.714 -12.860   3.655  1.00  0.00     0.050 C 
HETATM    2  C   UNL     1      40.882 -13.685   4.097  1.00  0.00    -0.032 A 
HETATM    3  C   UNL     1      41.328 -14.920   3.456  1.00  0.00     0.053 A 
HETATM    4  C   UNL     1      42.394 -15.471   4.152  1.00  0.00     0.114 A 
HETATM    5  N   UNL     1      43.038 -16.615   3.878  1.00  0.00    -0.226 NA
HETATM    6  C   UNL     1      42.548 -17.248   2.813  1.00  0.00     0.125 A 
HETATM    7  C   UNL     1      43.191 -18.544   2.420  1.00  0.00     0.093 C 
HETATM    8  N   UNL     1      41.534 -16.822   2.045  1.00  0.00    -0.215 NA
HETATM    9  C   UNL     1      40.899 -15.658   2.320  1.00  0.00     0.143 A 
HETATM   10  S   UNL     1      42.885 -14.532   5.478  1.00  0.00    -0.074 SA
HETATM   11  C   UNL     1      41.674 -13.364   5.194  1.00  0.00    -0.012 A 
HETATM   12  C   UNL     1      41.569 -12.187   6.109  1.00  0.00     0.057 C 
ENDROOT
BRANCH   9  13
HETATM   13  N   UNL     1      39.887 -15.195   1.463  1.00  0.00    -0.340 N 
HETATM   14  H   UNL     1      38.962 -15.286   1.850  1.00  0.00     0.167 HD
BRANCH  13  15
HETATM   15  C   UNL     1      39.941 -14.456   0.268  1.00  0.00     0.036 A 
HETATM   16  C   UNL     1      40.430 -13.147   0.189  1.00  0.00     0.069 A 
HETATM   17  C   UNL     1      40.460 -12.462  -1.029  1.00  0.00     0.104 A 
HETATM   18  C   UNL     1      39.968 -13.067  -2.187  1.00  0.00     0.102 A 
HETATM   19  O   UNL     1      40.983 -11.193  -1.011  1.00  0.00    -0.346 OA
HETATM   20  O   UNL     1      39.932 -12.444  -3.407  1.00  0.00    -0.346 OA
HETATM   21  C   UNL     1      39.492 -14.372  -2.135  1.00  0.00     0.042 A 
HETATM   22  C   UNL     1      40.121 -11.030  -3.273  1.00  0.00     0.202 C 
HETATM   23  C   UNL     1      41.276 -10.730  -2.334  1.00  0.00     0.202 C 
HETATM   24  C   UNL     1      39.481 -15.059  -0.917  1.00  0.00     0.032 A 
ENDBRANCH  13  15
ENDBRANCH   9  13
TORSDOF 2
ENDMDL
MODEL 10
REMARK VINA RESULT:      -7.2      3.832      6.808
REMARK  2 active torsions:
REMARK  status: ('A' for Active; 'I' for Inactive)
REMARK    1  A    between atoms: C_9  and  N_10 
REMARK    2  A    between atoms: N_10  and  C_11 
ROOT
HETATM    1  C   UNL     1      40.666 -12.587   3.405  1.00  0.00     0.050 C 
HETATM    2  C   UNL     1      40.350 -12.151   2.008  1.00  0.00    -0.032 A 
HETATM    3  C   UNL     1      39.992 -13.047   0.910  1.00  0.00     0.053 A 
HETATM    4  C   UNL     1      39.829 -12.332  -0.267  1.00  0.00     0.114 A 
HETATM    5  N   UNL     1      39.533 -12.822  -1.480  1.00  0.00    -0.226 NA
HETATM    6  C   UNL     1      39.402 -14.147  -1.491  1.00  0.00     0.125 A 
HETATM    7  C   UNL     1      39.078 -14.801  -2.799  1.00  0.00     0.093 C 
HETATM    8  N   UNL     1      39.521 -14.956  -0.426  1.00  0.00    -0.215 NA
HETATM    9  C   UNL     1      39.804 -14.451   0.798  1.00  0.00     0.143 A 
HETATM   10  S   UNL     1      40.032 -10.659  -0.067  1.00  0.00    -0.074 SA
HETATM   11  C   UNL     1      40.376 -10.824   1.596  1.00  0.00    -0.012 A 
HETATM   12  C   UNL     1      40.678  -9.602   2.402  1.00  0.00     0.057 C 
ENDROOT
BRANCH   9  13
HETATM   13  N   UNL     1      39.854 -15.306   1.911  1.00  0.00    -0.340 N 
HETATM   14  H   UNL     1      38.962 -15.711   2.144  1.00  0.00     0.167 HD
BRANCH  13  15
HETATM   15  C   UNL     1      40.938 -15.850   2.624  1.00  0.00     0.036 A 
HETATM   16  C   UNL     1      40.944 -16.017   4.013  1.00  0.00     0.069 A 
HETATM   17  C   UNL     1      42.052 -16.565   4.666  1.00  0.00     0.104 A 
HETATM   18  C   UNL     1      43.189 -16.924   3.940  1.00  0.00     0.102 A 
HETATM   19  O   UNL     1      41.954 -16.716   6.027  1.00  0.00    -0.346 OA
HETATM   20  O   UNL     1      44.324 -17.431   4.517  1.00  0.00    -0.346 OA
HETATM   21  C   UNL     1      43.199 -16.781   2.558  1.00  0.00     0.042 A 
HETATM   22  C   UNL     1      44.326 -17.218   5.934  1.00  0.00     0.202 C 
HETATM   23  C   UNL     1      42.977 -17.580   6.532  1.00  0.00     0.202 C 
HETATM   24  C   UNL     1      42.081 -16.249   1.907  1.00  0.00     0.032 A 
ENDBRANCH  13  15
ENDBRANCH   9  13
TORSDOF 2
ENDMDL
