MODEL 1
REMARK VINA RESULT:      -9.0      0.000      0.000
REMARK  6 active torsions:
REMARK  status: ('A' for Active; 'I' for Inactive)
REMARK    1  A    between atoms: C_2  and  C_3 
REMARK    2  A    between atoms: C_2  and  C_9 
REMARK    3  A    between atoms: C_9  and  N_10 
REMARK       I    between atoms: N_10  and  C_11 
REMARK       I    between atoms: C_11  and  N_12 
REMARK    4  A    between atoms: N_12  and  C_13 
REMARK    5  A    between atoms: C_15  and  N_16 
REMARK       I    between atoms: N_16  and  C_17 
REMARK    6  A    between atoms: C_17  and  C_18 
ROOT
HETATM    1  N   UNL     1      42.030 -13.721   4.602  1.00  0.00    -0.342 N 
HETATM    2  C   UNL     1      42.751 -13.423   5.739  1.00  0.00     0.320 C 
HETATM    3  N   UNL     1      43.365 -12.198   5.608  1.00  0.00    -0.309 N 
HETATM    4  O   UNL     1      42.865 -14.202   6.675  1.00  0.00    -0.247 OA
HETATM    5  H   UNL     1      41.697 -12.954   4.038  1.00  0.00     0.164 HD
HETATM    6  H   UNL     1      43.456 -11.876   4.655  1.00  0.00     0.170 HD
ENDROOT
BRANCH   3   7
HETATM    7  C   UNL     1      44.211 -11.583   6.552  1.00  0.00     0.038 A 
HETATM    8  C   UNL     1      43.616 -11.106   7.730  1.00  0.00     0.059 A 
HETATM    9  C   UNL     1      44.369 -10.436   8.696  1.00  0.00     0.037 A 
HETATM   10  C   UNL     1      45.747 -10.294   8.498  1.00  0.00     0.029 A 
HETATM   11  C   UNL     1      46.352 -10.793   7.342  1.00  0.00     0.004 A 
HETATM   12  C   UNL     1      45.584 -11.428   6.367  1.00  0.00     0.029 A 
BRANCH   9  13
HETATM   13  N   UNL     1      43.820  -9.849   9.859  1.00  0.00    -0.323 N 
HETATM   14  C   UNL     1      43.692 -10.424  11.113  1.00  0.00     0.258 C 
HETATM   15  O   UNL     1      44.127 -11.523  11.438  1.00  0.00    -0.267 OA
HETATM   16  H   UNL     1      43.441  -8.923   9.735  1.00  0.00     0.169 HD
BRANCH  14  17
HETATM   17  C   UNL     1      42.959  -9.620  12.089  1.00  0.00     0.056 A 
HETATM   18  C   UNL     1      41.795  -9.921  12.771  1.00  0.00     0.158 A 
HETATM   19  O   UNL     1      41.441  -8.910  13.607  1.00  0.00    -0.334 OA
HETATM   20  C   UNL     1      42.378  -7.940  13.476  1.00  0.00     0.142 A 
HETATM   21  C   UNL     1      43.329  -8.321  12.559  1.00  0.00     0.043 A 
ENDBRANCH  14  17
ENDBRANCH   9  13
ENDBRANCH   3   7
BRANCH   1  22
HETATM   22  C   UNL     1      41.524 -15.057   4.330  1.00  0.00     0.138 C 
BRANCH  22  23
HETATM   23  C   UNL     1      42.135 -15.687   3.038  1.00  0.00    -0.004 C 
HETATM   24  C   UNL     1      43.102 -14.699   2.342  1.00  0.00     0.021 C 
HETATM   25  C   UNL     1      40.986 -15.968   2.037  1.00  0.00     0.021 C 
BRANCH  23  26
HETATM   26  C   UNL     1      42.917 -16.959   3.423  1.00  0.00    -0.046 A 
HETATM   27  C   UNL     1      43.322 -17.164   4.754  1.00  0.00     0.027 A 
HETATM   28  C   UNL     1      44.040 -18.305   5.086  1.00  0.00     0.116 A 
HETATM   29  N   UNL     1      44.384 -19.259   4.200  1.00  0.00    -0.273 NA
HETATM   30  C   UNL     1      43.992 -19.058   2.927  1.00  0.00     0.116 A 
HETATM   31  C   UNL     1      43.271 -17.951   2.499  1.00  0.00     0.027 A 
ENDBRANCH  23  26
ENDBRANCH  22  23
ENDBRANCH   1  22
TORSDOF 6
ENDMDL
MODEL 2
REMARK VINA RESULT:      -8.6      1.430      2.059
REMARK  6 active torsions:
REMARK  status: ('A' for Active; 'I' for Inactive)
REMARK    1  A    between atoms: C_2  and  C_3 
REMARK    2  A    between atoms: C_2  and  C_9 
REMARK    3  A    between atoms: C_9  and  N_10 
REMARK       I    between atoms: N_10  and  C_11 
REMARK       I    between atoms: C_11  and  N_12 
REMARK    4  A    between atoms: N_12  and  C_13 
REMARK    5  A    between atoms: C_15  and  N_16 
REMARK       I    between atoms: N_16  and  C_17 
REMARK    6  A    between atoms: C_17  and  C_18 
ROOT
HETATM    1  N   UNL     1      43.379 -13.948   5.545  1.00  0.00    -0.342 N 
HETATM    2  C   UNL     1      43.404 -12.711   6.154  1.00  0.00     0.320 C 
HETATM    3  N   UNL     1      44.598 -12.528   6.815  1.00  0.00    -0.309 N 
HETATM    4  O   UNL     1      42.448 -11.948   6.147  1.00  0.00    -0.247 OA
HETATM    5  H   UNL     1      44.260 -14.372   5.296  1.00  0.00     0.164 HD
HETATM    6  H   UNL     1      45.101 -13.381   7.014  1.00  0.00     0.170 HD
ENDROOT
BRANCH   3   7
HETATM    7  C   UNL     1      44.966 -11.402   7.577  1.00  0.00     0.038 A 
HETATM    8  C   UNL     1      44.341 -11.240   8.823  1.00  0.00     0.059 A 
HETATM    9  C   UNL     1      44.604 -10.125   9.621  1.00  0.00     0.037 A 
HETATM   10  C   UNL     1      45.551  -9.192   9.183  1.00  0.00     0.029 A 
HETATM   11  C   UNL     1      46.201  -9.362   7.958  1.00  0.00     0.004 A 
HETATM   12  C   UNL     1      45.902 -10.461   7.153  1.00  0.00     0.029 A 
BRANCH   9  13
HETATM   13  N   UNL     1      43.944  -9.851  10.840  1.00  0.00    -0.323 N 
HETATM   14  C   UNL     1      42.626  -9.461  11.016  1.00  0.00     0.258 C 
HETATM   15  O   UNL     1      41.786  -9.380  10.126  1.00  0.00    -0.267 OA
HETATM   16  H   UNL     1      44.523  -9.905  11.664  1.00  0.00     0.169 HD
BRANCH  14  17
HETATM   17  C   UNL     1      42.261  -9.116  12.388  1.00  0.00     0.056 A 
HETATM   18  C   UNL     1      41.230  -9.608  13.167  1.00  0.00     0.158 A 
HETATM   19  O   UNL     1      41.237  -9.041  14.402  1.00  0.00    -0.334 OA
HETATM   20  C   UNL     1      42.279  -8.175  14.436  1.00  0.00     0.142 A 
HETATM   21  C   UNL     1      42.938  -8.180  13.231  1.00  0.00     0.043 A 
ENDBRANCH  14  17
ENDBRANCH   9  13
ENDBRANCH   3   7
BRANCH   1  22
HETATM   22  C   UNL     1      42.153 -14.537   5.031  1.00  0.00     0.138 C 
BRANCH  22  23
HETATM   23  C   UNL     1      41.915 -15.993   5.541  1.00  0.00    -0.004 C 
HETATM   24  C   UNL     1      40.416 -16.370   5.466  1.00  0.00     0.021 C 
HETATM   25  C   UNL     1      42.318 -16.062   7.036  1.00  0.00     0.021 C 
BRANCH  23  26
HETATM   26  C   UNL     1      42.718 -16.970   4.659  1.00  0.00    -0.046 A 
HETATM   27  C   UNL     1      42.517 -16.995   3.268  1.00  0.00     0.027 A 
HETATM   28  C   UNL     1      43.233 -17.891   2.487  1.00  0.00     0.116 A 
HETATM   29  N   UNL     1      44.136 -18.761   2.978  1.00  0.00    -0.273 NA
HETATM   30  C   UNL     1      44.326 -18.732   4.311  1.00  0.00     0.116 A 
HETATM   31  C   UNL     1      43.658 -17.872   5.175  1.00  0.00     0.027 A 
ENDBRANCH  23  26
ENDBRANCH  22  23
ENDBRANCH   1  22
TORSDOF 6
ENDMDL
MODEL 3
REMARK VINA RESULT:      -8.4      1.631      1.965
REMARK  6 active torsions:
REMARK  status: ('A' for Active; 'I' for Inactive)
REMARK    1  A    between atoms: C_2  and  C_3 
REMARK    2  A    between atoms: C_2  and  C_9 
REMARK    3  A    between atoms: C_9  and  N_10 
REMARK       I    between atoms: N_10  and  C_11 
REMARK       I    between atoms: C_11  and  N_12 
REMARK    4  A    between atoms: N_12  and  C_13 
REMARK    5  A    between atoms: C_15  and  N_16 
REMARK       I    between atoms: N_16  and  C_17 
REMARK    6  A    between atoms: C_17  and  C_18 
ROOT
HETATM    1  N   UNL     1      42.624 -14.025   4.919  1.00  0.00    -0.342 N 
HETATM    2  C   UNL     1      43.243 -13.524   6.044  1.00  0.00     0.320 C 
HETATM    3  N   UNL     1      43.772 -12.279   5.785  1.00  0.00    -0.309 N 
HETATM    4  O   UNL     1      43.351 -14.163   7.082  1.00  0.00    -0.247 OA
HETATM    5  H   UNL     1      42.273 -13.367   4.238  1.00  0.00     0.164 HD
HETATM    6  H   UNL     1      43.902 -12.076   4.804  1.00  0.00     0.170 HD
ENDROOT
BRANCH   3   7
HETATM    7  C   UNL     1      44.504 -11.479   6.684  1.00  0.00     0.038 A 
HETATM    8  C   UNL     1      43.777 -10.797   7.672  1.00  0.00     0.059 A 
HETATM    9  C   UNL     1      44.414  -9.940   8.571  1.00  0.00     0.037 A 
HETATM   10  C   UNL     1      45.806  -9.814   8.510  1.00  0.00     0.029 A 
HETATM   11  C   UNL     1      46.541 -10.513   7.550  1.00  0.00     0.004 A 
HETATM   12  C   UNL     1      45.889 -11.338   6.633  1.00  0.00     0.029 A 
BRANCH   9  13
HETATM   13  N   UNL     1      43.735  -9.151   9.529  1.00  0.00    -0.323 N 
HETATM   14  C   UNL     1      43.471  -7.793   9.467  1.00  0.00     0.258 C 
HETATM   15  O   UNL     1      43.712  -7.066   8.509  1.00  0.00    -0.267 OA
HETATM   16  H   UNL     1      43.458  -9.638  10.367  1.00  0.00     0.169 HD
BRANCH  14  17
HETATM   17  C   UNL     1      42.870  -7.225  10.672  1.00  0.00     0.056 A 
HETATM   18  C   UNL     1      42.126  -6.069  10.815  1.00  0.00     0.158 A 
HETATM   19  O   UNL     1      41.731  -5.897  12.104  1.00  0.00    -0.334 OA
HETATM   20  C   UNL     1      42.216  -6.947  12.811  1.00  0.00     0.142 A 
HETATM   21  C   UNL     1      42.921  -7.789  11.986  1.00  0.00     0.043 A 
ENDBRANCH  14  17
ENDBRANCH   9  13
ENDBRANCH   3   7
BRANCH   1  22
HETATM   22  C   UNL     1      42.239 -15.422   4.800  1.00  0.00     0.138 C 
BRANCH  22  23
HETATM   23  C   UNL     1      42.359 -15.965   3.340  1.00  0.00    -0.004 C 
HETATM   24  C   UNL     1      43.253 -15.041   2.477  1.00  0.00     0.021 C 
HETATM   25  C   UNL     1      40.951 -15.955   2.695  1.00  0.00     0.021 C 
BRANCH  23  26
HETATM   26  C   UNL     1      42.990 -17.371   3.379  1.00  0.00    -0.046 A 
HETATM   27  C   UNL     1      42.849 -18.240   2.283  1.00  0.00     0.027 A 
HETATM   28  C   UNL     1      43.406 -19.510   2.336  1.00  0.00     0.116 A 
HETATM   29  N   UNL     1      44.096 -19.983   3.391  1.00  0.00    -0.273 NA
HETATM   30  C   UNL     1      44.229 -19.146   4.439  1.00  0.00     0.116 A 
HETATM   31  C   UNL     1      43.708 -17.859   4.478  1.00  0.00     0.027 A 
ENDBRANCH  23  26
ENDBRANCH  22  23
ENDBRANCH   1  22
TORSDOF 6
ENDMDL
MODEL 4
REMARK VINA RESULT:      -8.1      2.450      9.906
REMARK  6 active torsions:
REMARK  status: ('A' for Active; 'I' for Inactive)
REMARK    1  A    between atoms: C_2  and  C_3 
REMARK    2  A    between atoms: C_2  and  C_9 
REMARK    3  A    between atoms: C_9  and  N_10 
REMARK       I    between atoms: N_10  and  C_11 
REMARK       I    between atoms: C_11  and  N_12 
REMARK    4  A    between atoms: N_12  and  C_13 
REMARK    5  A    between atoms: C_15  and  N_16 
REMARK       I    between atoms: N_16  and  C_17 
REMARK    6  A    between atoms: C_17  and  C_18 
ROOT
HETATM    1  N   UNL     1      43.103 -11.056   7.685  1.00  0.00    -0.342 N 
HETATM    2  C   UNL     1      43.647 -11.711   6.600  1.00  0.00     0.320 C 
HETATM    3  N   UNL     1      42.657 -12.334   5.872  1.00  0.00    -0.309 N 
HETATM    4  O   UNL     1      44.851 -11.769   6.395  1.00  0.00    -0.247 OA
HETATM    5  H   UNL     1      42.141 -10.757   7.625  1.00  0.00     0.164 HD
HETATM    6  H   UNL     1      41.795 -12.480   6.379  1.00  0.00     0.170 HD
ENDROOT
BRANCH   3   7
HETATM    7  C   UNL     1      42.839 -13.124   4.721  1.00  0.00     0.038 A 
HETATM    8  C   UNL     1      42.818 -14.517   4.891  1.00  0.00     0.059 A 
HETATM    9  C   UNL     1      43.044 -15.377   3.814  1.00  0.00     0.037 A 
HETATM   10  C   UNL     1      43.237 -14.827   2.542  1.00  0.00     0.029 A 
HETATM   11  C   UNL     1      43.228 -13.442   2.359  1.00  0.00     0.004 A 
HETATM   12  C   UNL     1      43.039 -12.592   3.448  1.00  0.00     0.029 A 
BRANCH   9  13
HETATM   13  N   UNL     1      43.130 -16.783   3.930  1.00  0.00    -0.323 N 
HETATM   14  C   UNL     1      44.008 -17.513   4.716  1.00  0.00     0.258 C 
HETATM   15  O   UNL     1      44.803 -17.037   5.519  1.00  0.00    -0.267 OA
HETATM   16  H   UNL     1      42.506 -17.302   3.332  1.00  0.00     0.169 HD
BRANCH  14  17
HETATM   17  C   UNL     1      43.951 -18.960   4.524  1.00  0.00     0.056 A 
HETATM   18  C   UNL     1      43.922 -19.685   3.348  1.00  0.00     0.158 A 
HETATM   19  O   UNL     1      43.887 -21.021   3.596  1.00  0.00    -0.334 OA
HETATM   20  C   UNL     1      43.895 -21.174   4.943  1.00  0.00     0.142 A 
HETATM   21  C   UNL     1      43.932 -19.947   5.559  1.00  0.00     0.043 A 
ENDBRANCH  14  17
ENDBRANCH   9  13
ENDBRANCH   3   7
BRANCH   1  22
HETATM   22  C   UNL     1      43.918 -10.566   8.785  1.00  0.00     0.138 C 
BRANCH  22  23
HETATM   23  C   UNL     1      43.571  -9.099   9.193  1.00  0.00    -0.004 C 
HETATM   24  C   UNL     1      42.358  -8.572   8.389  1.00  0.00     0.021 C 
HETATM   25  C   UNL     1      44.774  -8.191   8.834  1.00  0.00     0.021 C 
BRANCH  23  26
HETATM   26  C   UNL     1      43.224  -9.067  10.695  1.00  0.00    -0.046 A 
HETATM   27  C   UNL     1      42.912 -10.257  11.375  1.00  0.00     0.027 A 
HETATM   28  C   UNL     1      42.585 -10.213  12.723  1.00  0.00     0.116 A 
HETATM   29  N   UNL     1      42.546  -9.080  13.449  1.00  0.00    -0.273 NA
HETATM   30  C   UNL     1      42.847  -7.942  12.793  1.00  0.00     0.116 A 
HETATM   31  C   UNL     1      43.187  -7.886  11.448  1.00  0.00     0.027 A 
ENDBRANCH  23  26
ENDBRANCH  22  23
ENDBRANCH   1  22
TORSDOF 6
ENDMDL
MODEL 5
REMARK VINA RESULT:      -8.0      6.727     11.074
REMARK  6 active torsions:
REMARK  status: ('A' for Active; 'I' for Inactive)
REMARK    1  A    between atoms: C_2  and  C_3 
REMARK    2  A    between atoms: C_2  and  C_9 
REMARK    3  A    between atoms: C_9  and  N_10 
REMARK       I    between atoms: N_10  and  C_11 
REMARK       I    between atoms: C_11  and  N_12 
REMARK    4  A    between atoms: N_12  and  C_13 
REMARK    5  A    between atoms: C_15  and  N_16 
REMARK       I    between atoms: N_16  and  C_17 
REMARK    6  A    between atoms: C_17  and  C_18 
ROOT
HETATM    1  N   UNL     1      40.953 -15.527   1.079  1.00  0.00    -0.342 N 
HETATM    2  C   UNL     1      40.465 -14.308   0.660  1.00  0.00     0.320 C 
HETATM    3  N   UNL     1      40.615 -14.175  -0.703  1.00  0.00    -0.309 N 
HETATM    4  O   UNL     1      40.038 -13.462   1.434  1.00  0.00    -0.247 OA
HETATM    5  H   UNL     1      40.970 -16.285   0.413  1.00  0.00     0.164 HD
HETATM    6  H   UNL     1      41.298 -14.798  -1.110  1.00  0.00     0.170 HD
ENDROOT
BRANCH   3   7
HETATM    7  C   UNL     1      40.264 -13.051  -1.476  1.00  0.00     0.038 A 
HETATM    8  C   UNL     1      38.915 -12.922  -1.841  1.00  0.00     0.059 A 
HETATM    9  C   UNL     1      38.487 -11.869  -2.652  1.00  0.00     0.037 A 
HETATM   10  C   UNL     1      39.419 -10.904  -3.051  1.00  0.00     0.029 A 
HETATM   11  C   UNL     1      40.758 -11.009  -2.666  1.00  0.00     0.004 A 
HETATM   12  C   UNL     1      41.181 -12.086  -1.887  1.00  0.00     0.029 A 
BRANCH   9  13
HETATM   13  N   UNL     1      37.166 -11.729  -3.134  1.00  0.00    -0.323 N 
HETATM   14  C   UNL     1      36.225 -10.785  -2.754  1.00  0.00     0.258 C 
HETATM   15  O   UNL     1      36.429  -9.849  -1.989  1.00  0.00    -0.267 OA
HETATM   16  H   UNL     1      36.874 -12.431  -3.797  1.00  0.00     0.169 HD
BRANCH  14  17
HETATM   17  C   UNL     1      34.895 -10.973  -3.329  1.00  0.00     0.056 A 
HETATM   18  C   UNL     1      34.467 -11.907  -4.254  1.00  0.00     0.158 A 
HETATM   19  O   UNL     1      33.143 -11.761  -4.521  1.00  0.00    -0.334 OA
HETATM   20  C   UNL     1      32.697 -10.727  -3.767  1.00  0.00     0.142 A 
HETATM   21  C   UNL     1      33.727 -10.207  -3.020  1.00  0.00     0.043 A 
ENDBRANCH  14  17
ENDBRANCH   9  13
ENDBRANCH   3   7
BRANCH   1  22
HETATM   22  C   UNL     1      41.199 -15.826   2.480  1.00  0.00     0.138 C 
BRANCH  22  23
HETATM   23  C   UNL     1      42.711 -15.751   2.862  1.00  0.00    -0.004 C 
HETATM   24  C   UNL     1      42.933 -14.794   4.059  1.00  0.00     0.021 C 
HETATM   25  C   UNL     1      43.492 -15.155   1.664  1.00  0.00     0.021 C 
BRANCH  23  26
HETATM   26  C   UNL     1      43.200 -17.160   3.254  1.00  0.00    -0.046 A 
HETATM   27  C   UNL     1      43.150 -18.210   2.321  1.00  0.00     0.027 A 
HETATM   28  C   UNL     1      43.577 -19.478   2.691  1.00  0.00     0.116 A 
HETATM   29  N   UNL     1      44.052 -19.783   3.913  1.00  0.00    -0.273 NA
HETATM   30  C   UNL     1      44.098 -18.773   4.803  1.00  0.00     0.116 A 
HETATM   31  C   UNL     1      43.696 -17.472   4.527  1.00  0.00     0.027 A 
ENDBRANCH  23  26
ENDBRANCH  22  23
ENDBRANCH   1  22
TORSDOF 6
ENDMDL
MODEL 6
REMARK VINA RESULT:      -8.0      1.958      2.331
REMARK  6 active torsions:
REMARK  status: ('A' for Active; 'I' for Inactive)
REMARK    1  A    between atoms: C_2  and  C_3 
REMARK    2  A    between atoms: C_2  and  C_9 
REMARK    3  A    between atoms: C_9  and  N_10 
REMARK       I    between atoms: N_10  and  C_11 
REMARK       I    between atoms: C_11  and  N_12 
REMARK    4  A    between atoms: N_12  and  C_13 
REMARK    5  A    between atoms: C_15  and  N_16 
REMARK       I    between atoms: N_16  and  C_17 
REMARK    6  A    between atoms: C_17  and  C_18 
ROOT
HETATM    1  N   UNL     1      43.084 -14.358   4.023  1.00  0.00    -0.342 N 
HETATM    2  C   UNL     1      42.301 -13.405   4.638  1.00  0.00     0.320 C 
HETATM    3  N   UNL     1      42.914 -12.172   4.579  1.00  0.00    -0.309 N 
HETATM    4  O   UNL     1      41.254 -13.673   5.210  1.00  0.00    -0.247 OA
HETATM    5  H   UNL     1      43.725 -14.054   3.306  1.00  0.00     0.164 HD
HETATM    6  H   UNL     1      43.907 -12.208   4.400  1.00  0.00     0.170 HD
ENDROOT
BRANCH   3   7
HETATM    7  C   UNL     1      42.428 -10.971   5.132  1.00  0.00     0.038 A 
HETATM    8  C   UNL     1      42.445 -10.857   6.531  1.00  0.00     0.059 A 
HETATM    9  C   UNL     1      41.933  -9.724   7.167  1.00  0.00     0.037 A 
HETATM   10  C   UNL     1      41.450  -8.671   6.381  1.00  0.00     0.029 A 
HETATM   11  C   UNL     1      41.457  -8.765   4.987  1.00  0.00     0.004 A 
HETATM   12  C   UNL     1      41.937  -9.917   4.365  1.00  0.00     0.029 A 
BRANCH   9  13
HETATM   13  N   UNL     1      41.834  -9.582   8.569  1.00  0.00    -0.323 N 
HETATM   14  C   UNL     1      42.868  -9.400   9.474  1.00  0.00     0.258 C 
HETATM   15  O   UNL     1      44.047  -9.240   9.180  1.00  0.00    -0.267 OA
HETATM   16  H   UNL     1      40.902  -9.671   8.945  1.00  0.00     0.169 HD
BRANCH  14  17
HETATM   17  C   UNL     1      42.469  -9.422  10.880  1.00  0.00     0.056 A 
HETATM   18  C   UNL     1      41.249  -9.757  11.436  1.00  0.00     0.158 A 
HETATM   19  O   UNL     1      41.288  -9.665  12.792  1.00  0.00    -0.334 OA
HETATM   20  C   UNL     1      42.540  -9.270  13.127  1.00  0.00     0.142 A 
HETATM   21  C   UNL     1      43.304  -9.105  11.997  1.00  0.00     0.043 A 
ENDBRANCH  14  17
ENDBRANCH   9  13
ENDBRANCH   3   7
BRANCH   1  22
HETATM   22  C   UNL     1      42.844 -15.783   4.184  1.00  0.00     0.138 C 
BRANCH  22  23
HETATM   23  C   UNL     1      42.688 -16.532   2.822  1.00  0.00    -0.004 C 
HETATM   24  C   UNL     1      43.566 -15.879   1.727  1.00  0.00     0.021 C 
HETATM   25  C   UNL     1      41.217 -16.400   2.354  1.00  0.00     0.021 C 
BRANCH  23  26
HETATM   26  C   UNL     1      43.129 -17.998   3.005  1.00  0.00    -0.046 A 
HETATM   27  C   UNL     1      43.797 -18.395   4.176  1.00  0.00     0.027 A 
HETATM   28  C   UNL     1      44.205 -19.714   4.321  1.00  0.00     0.116 A 
HETATM   29  N   UNL     1      43.997 -20.670   3.396  1.00  0.00    -0.273 NA
HETATM   30  C   UNL     1      43.355 -20.284   2.276  1.00  0.00     0.116 A 
HETATM   31  C   UNL     1      42.909 -18.990   2.040  1.00  0.00     0.027 A 
ENDBRANCH  23  26
ENDBRANCH  22  23
ENDBRANCH   1  22
TORSDOF 6
ENDMDL
MODEL 7
REMARK VINA RESULT:      -7.9      3.047      3.684
REMARK  6 active torsions:
REMARK  status: ('A' for Active; 'I' for Inactive)
REMARK    1  A    between atoms: C_2  and  C_3 
REMARK    2  A    between atoms: C_2  and  C_9 
REMARK    3  A    between atoms: C_9  and  N_10 
REMARK       I    between atoms: N_10  and  C_11 
REMARK       I    between atoms: C_11  and  N_12 
REMARK    4  A    between atoms: N_12  and  C_13 
REMARK    5  A    between atoms: C_15  and  N_16 
REMARK       I    between atoms: N_16  and  C_17 
REMARK    6  A    between atoms: C_17  and  C_18 
ROOT
HETATM    1  N   UNL     1      42.468 -14.212   3.818  1.00  0.00    -0.342 N 
HETATM    2  C   UNL     1      41.392 -13.622   4.446  1.00  0.00     0.320 C 
HETATM    3  N   UNL     1      41.458 -12.251   4.321  1.00  0.00    -0.309 N 
HETATM    4  O   UNL     1      40.562 -14.259   5.079  1.00  0.00    -0.247 OA
HETATM    5  H   UNL     1      42.908 -13.711   3.060  1.00  0.00     0.164 HD
HETATM    6  H   UNL     1      42.376 -11.897   4.092  1.00  0.00     0.170 HD
ENDROOT
BRANCH   3   7
HETATM    7  C   UNL     1      40.553 -11.319   4.864  1.00  0.00     0.038 A 
HETATM    8  C   UNL     1      40.754 -10.934   6.199  1.00  0.00     0.059 A 
HETATM    9  C   UNL     1      39.874 -10.056   6.835  1.00  0.00     0.037 A 
HETATM   10  C   UNL     1      38.812  -9.517   6.100  1.00  0.00     0.029 A 
HETATM   11  C   UNL     1      38.622  -9.872   4.763  1.00  0.00     0.004 A 
HETATM   12  C   UNL     1      39.486 -10.779   4.149  1.00  0.00     0.029 A 
BRANCH   9  13
HETATM   13  N   UNL     1      39.962  -9.699   8.200  1.00  0.00    -0.323 N 
HETATM   14  C   UNL     1      39.182 -10.164   9.245  1.00  0.00     0.258 C 
HETATM   15  O   UNL     1      38.334 -11.047   9.160  1.00  0.00    -0.267 OA
HETATM   16  H   UNL     1      40.646  -8.989   8.414  1.00  0.00     0.169 HD
BRANCH  14  17
HETATM   17  C   UNL     1      39.416  -9.510  10.531  1.00  0.00     0.056 A 
HETATM   18  C   UNL     1      39.794 -10.066  11.738  1.00  0.00     0.158 A 
HETATM   19  O   UNL     1      39.924  -9.113  12.697  1.00  0.00    -0.334 OA
HETATM   20  C   UNL     1      39.633  -7.923  12.117  1.00  0.00     0.142 A 
HETATM   21  C   UNL     1      39.314  -8.107  10.794  1.00  0.00     0.043 A 
ENDBRANCH  14  17
ENDBRANCH   9  13
ENDBRANCH   3   7
BRANCH   1  22
HETATM   22  C   UNL     1      42.824 -15.605   4.032  1.00  0.00     0.138 C 
BRANCH  22  23
HETATM   23  C   UNL     1      42.679 -16.475   2.743  1.00  0.00    -0.004 C 
HETATM   24  C   UNL     1      43.534 -15.901   1.587  1.00  0.00     0.021 C 
HETATM   25  C   UNL     1      41.202 -16.421   2.277  1.00  0.00     0.021 C 
BRANCH  23  26
HETATM   26  C   UNL     1      43.157 -17.909   3.050  1.00  0.00    -0.046 A 
HETATM   27  C   UNL     1      43.764 -18.202   4.284  1.00  0.00     0.027 A 
HETATM   28  C   UNL     1      44.206 -19.492   4.542  1.00  0.00     0.116 A 
HETATM   29  N   UNL     1      44.089 -20.514   3.673  1.00  0.00    -0.273 NA
HETATM   30  C   UNL     1      43.505 -20.228   2.493  1.00  0.00     0.116 A 
HETATM   31  C   UNL     1      43.031 -18.969   2.144  1.00  0.00     0.027 A 
ENDBRANCH  23  26
ENDBRANCH  22  23
ENDBRANCH   1  22
TORSDOF 6
ENDMDL
MODEL 8
REMARK VINA RESULT:      -7.9      6.617      9.860
REMARK  6 active torsions:
REMARK  status: ('A' for Active; 'I' for Inactive)
REMARK    1  A    between atoms: C_2  and  C_3 
REMARK    2  A    between atoms: C_2  and  C_9 
REMARK    3  A    between atoms: C_9  and  N_10 
REMARK       I    between atoms: N_10  and  C_11 
REMARK       I    between atoms: C_11  and  N_12 
REMARK    4  A    between atoms: N_12  and  C_13 
REMARK    5  A    between atoms: C_15  and  N_16 
REMARK       I    between atoms: N_16  and  C_17 
REMARK    6  A    between atoms: C_17  and  C_18 
ROOT
HETATM    1  N   UNL     1      40.637 -15.853   1.416  1.00  0.00    -0.342 N 
HETATM    2  C   UNL     1      40.109 -14.661   0.970  1.00  0.00     0.320 C 
HETATM    3  N   UNL     1      40.066 -14.642  -0.407  1.00  0.00    -0.309 N 
HETATM    4  O   UNL     1      39.807 -13.745   1.723  1.00  0.00    -0.247 OA
HETATM    5  H   UNL     1      40.551 -16.663   0.820  1.00  0.00     0.164 HD
HETATM    6  H   UNL     1      40.677 -15.311  -0.853  1.00  0.00     0.170 HD
ENDROOT
BRANCH   3   7
HETATM    7  C   UNL     1      39.622 -13.576  -1.214  1.00  0.00     0.038 A 
HETATM    8  C   UNL     1      40.547 -12.560  -1.498  1.00  0.00     0.059 A 
HETATM    9  C   UNL     1      40.178 -11.439  -2.245  1.00  0.00     0.037 A 
HETATM   10  C   UNL     1      38.878 -11.370  -2.757  1.00  0.00     0.029 A 
HETATM   11  C   UNL     1      37.960 -12.392  -2.505  1.00  0.00     0.004 A 
HETATM   12  C   UNL     1      38.329 -13.489  -1.726  1.00  0.00     0.029 A 
BRANCH   9  13
HETATM   13  N   UNL     1      41.029 -10.337  -2.490  1.00  0.00    -0.323 N 
HETATM   14  C   UNL     1      41.151  -9.182  -1.734  1.00  0.00     0.258 C 
HETATM   15  O   UNL     1      40.594  -8.974  -0.661  1.00  0.00    -0.267 OA
HETATM   16  H   UNL     1      41.568 -10.392  -3.340  1.00  0.00     0.169 HD
BRANCH  14  17
HETATM   17  C   UNL     1      42.016  -8.155  -2.311  1.00  0.00     0.056 A 
HETATM   18  C   UNL     1      42.960  -7.360  -1.691  1.00  0.00     0.158 A 
HETATM   19  O   UNL     1      43.568  -6.535  -2.583  1.00  0.00    -0.334 OA
HETATM   20  C   UNL     1      43.022  -6.791  -3.797  1.00  0.00     0.142 A 
HETATM   21  C   UNL     1      42.066  -7.772  -3.688  1.00  0.00     0.043 A 
ENDBRANCH  14  17
ENDBRANCH   9  13
ENDBRANCH   3   7
BRANCH   1  22
HETATM   22  C   UNL     1      41.077 -16.044   2.789  1.00  0.00     0.138 C 
BRANCH  22  23
HETATM   23  C   UNL     1      42.624 -15.914   2.956  1.00  0.00    -0.004 C 
HETATM   24  C   UNL     1      42.982 -14.754   3.917  1.00  0.00     0.021 C 
HETATM   25  C   UNL     1      43.240 -15.561   1.579  1.00  0.00     0.021 C 
BRANCH  23  26
HETATM   26  C   UNL     1      43.177 -17.230   3.539  1.00  0.00    -0.046 A 
HETATM   27  C   UNL     1      43.441 -18.321   2.693  1.00  0.00     0.027 A 
HETATM   28  C   UNL     1      43.922 -19.507   3.231  1.00  0.00     0.116 A 
HETATM   29  N   UNL     1      44.165 -19.692   4.543  1.00  0.00    -0.273 NA
HETATM   30  C   UNL     1      43.911 -18.642   5.349  1.00  0.00     0.116 A 
HETATM   31  C   UNL     1      43.430 -17.417   4.904  1.00  0.00     0.027 A 
ENDBRANCH  23  26
ENDBRANCH  22  23
ENDBRANCH   1  22
TORSDOF 6
ENDMDL
MODEL 9
REMARK VINA RESULT:      -7.6      5.228      9.239
REMARK  6 active torsions:
REMARK  status: ('A' for Active; 'I' for Inactive)
REMARK    1  A    between atoms: C_2  and  C_3 
REMARK    2  A    between atoms: C_2  and  C_9 
REMARK    3  A    between atoms: C_9  and  N_10 
REMARK       I    between atoms: N_10  and  C_11 
REMARK       I    between atoms: C_11  and  N_12 
REMARK    4  A    between atoms: N_12  and  C_13 
REMARK    5  A    between atoms: C_15  and  N_16 
REMARK       I    between atoms: N_16  and  C_17 
REMARK    6  A    between atoms: C_17  and  C_18 
ROOT
HETATM    1  N   UNL     1      39.739 -11.688   1.420  1.00  0.00    -0.342 N 
HETATM    2  C   UNL     1      40.028 -12.438   2.539  1.00  0.00     0.320 C 
HETATM    3  N   UNL     1      41.391 -12.574   2.686  1.00  0.00    -0.309 N 
HETATM    4  O   UNL     1      39.163 -12.957   3.232  1.00  0.00    -0.247 OA
HETATM    5  H   UNL     1      40.433 -11.029   1.099  1.00  0.00     0.164 HD
HETATM    6  H   UNL     1      41.921 -12.397   1.845  1.00  0.00     0.170 HD
ENDROOT
BRANCH   3   7
HETATM    7  C   UNL     1      42.053 -13.303   3.693  1.00  0.00     0.038 A 
HETATM    8  C   UNL     1      42.408 -14.628   3.396  1.00  0.00     0.059 A 
HETATM    9  C   UNL     1      43.020 -15.441   4.353  1.00  0.00     0.037 A 
HETATM   10  C   UNL     1      43.327 -14.894   5.604  1.00  0.00     0.029 A 
HETATM   11  C   UNL     1      43.005 -13.567   5.897  1.00  0.00     0.004 A 
HETATM   12  C   UNL     1      42.361 -12.776   4.946  1.00  0.00     0.029 A 
BRANCH   9  13
HETATM   13  N   UNL     1      43.319 -16.808   4.154  1.00  0.00    -0.323 N 
HETATM   14  C   UNL     1      43.408 -17.485   2.948  1.00  0.00     0.258 C 
HETATM   15  O   UNL     1      43.329 -16.969   1.838  1.00  0.00    -0.267 OA
HETATM   16  H   UNL     1      43.433 -17.349   4.997  1.00  0.00     0.169 HD
BRANCH  14  17
HETATM   17  C   UNL     1      43.600 -18.929   3.063  1.00  0.00     0.056 A 
HETATM   18  C   UNL     1      43.474 -19.906   2.094  1.00  0.00     0.158 A 
HETATM   19  O   UNL     1      43.754 -21.136   2.600  1.00  0.00    -0.334 OA
HETATM   20  C   UNL     1      44.068 -20.966   3.907  1.00  0.00     0.142 A 
HETATM   21  C   UNL     1      43.989 -19.636   4.244  1.00  0.00     0.043 A 
ENDBRANCH  14  17
ENDBRANCH   9  13
ENDBRANCH   3   7
BRANCH   1  22
HETATM   22  C   UNL     1      38.404 -11.626   0.848  1.00  0.00     0.138 C 
BRANCH  22  23
HETATM   23  C   UNL     1      38.395 -11.107  -0.625  1.00  0.00    -0.004 C 
HETATM   24  C   UNL     1      39.480 -10.024  -0.837  1.00  0.00     0.021 C 
HETATM   25  C   UNL     1      37.028 -10.431  -0.899  1.00  0.00     0.021 C 
BRANCH  23  26
HETATM   26  C   UNL     1      38.679 -12.289  -1.574  1.00  0.00    -0.046 A 
HETATM   27  C   UNL     1      37.616 -12.974  -2.187  1.00  0.00     0.027 A 
HETATM   28  C   UNL     1      37.884 -14.047  -3.026  1.00  0.00     0.116 A 
HETATM   29  N   UNL     1      39.124 -14.490  -3.306  1.00  0.00    -0.273 NA
HETATM   30  C   UNL     1      40.139 -13.829  -2.716  1.00  0.00     0.116 A 
HETATM   31  C   UNL     1      39.972 -12.744  -1.864  1.00  0.00     0.027 A 
ENDBRANCH  23  26
ENDBRANCH  22  23
ENDBRANCH   1  22
TORSDOF 6
ENDMDL
MODEL 10
REMARK VINA RESULT:      -7.5      2.740      9.967
REMARK  6 active torsions:
REMARK  status: ('A' for Active; 'I' for Inactive)
REMARK    1  A    between atoms: C_2  and  C_3 
REMARK    2  A    between atoms: C_2  and  C_9 
REMARK    3  A    between atoms: C_9  and  N_10 
REMARK       I    between atoms: N_10  and  C_11 
REMARK       I    between atoms: C_11  and  N_12 
REMARK    4  A    between atoms: N_12  and  C_13 
REMARK    5  A    between atoms: C_15  and  N_16 
REMARK       I    between atoms: N_16  and  C_17 
REMARK    6  A    between atoms: C_17  and  C_18 
ROOT
HETATM    1  N   UNL     1      43.695 -11.589   8.328  1.00  0.00    -0.342 N 
HETATM    2  C   UNL     1      43.959 -12.245   7.145  1.00  0.00     0.320 C 
HETATM    3  N   UNL     1      43.133 -13.340   7.010  1.00  0.00    -0.309 N 
HETATM    4  O   UNL     1      44.861 -11.913   6.388  1.00  0.00    -0.247 OA
HETATM    5  H   UNL     1      42.772 -11.682   8.726  1.00  0.00     0.164 HD
HETATM    6  H   UNL     1      42.720 -13.660   7.875  1.00  0.00     0.170 HD
ENDROOT
BRANCH   3   7
HETATM    7  C   UNL     1      43.140 -14.265   5.948  1.00  0.00     0.038 A 
HETATM    8  C   UNL     1      42.536 -13.864   4.747  1.00  0.00     0.059 A 
HETATM    9  C   UNL     1      42.449 -14.735   3.659  1.00  0.00     0.037 A 
HETATM   10  C   UNL     1      43.027 -16.006   3.766  1.00  0.00     0.029 A 
HETATM   11  C   UNL     1      43.657 -16.401   4.948  1.00  0.00     0.004 A 
HETATM   12  C   UNL     1      43.705 -15.535   6.040  1.00  0.00     0.029 A 
BRANCH   9  13
HETATM   13  N   UNL     1      41.774 -14.432   2.455  1.00  0.00    -0.323 N 
HETATM   14  C   UNL     1      40.471 -13.984   2.308  1.00  0.00     0.258 C 
HETATM   15  O   UNL     1      39.715 -13.688   3.227  1.00  0.00    -0.267 OA
HETATM   16  H   UNL     1      42.298 -14.611   1.612  1.00  0.00     0.169 HD
BRANCH  14  17
HETATM   17  C   UNL     1      40.004 -13.886   0.927  1.00  0.00     0.056 A 
HETATM   18  C   UNL     1      39.526 -12.784   0.243  1.00  0.00     0.158 A 
HETATM   19  O   UNL     1      39.206 -13.103  -1.038  1.00  0.00    -0.334 OA
HETATM   20  C   UNL     1      39.477 -14.422  -1.198  1.00  0.00     0.142 A 
HETATM   21  C   UNL     1      39.965 -14.950  -0.028  1.00  0.00     0.043 A 
ENDBRANCH  14  17
ENDBRANCH   9  13
ENDBRANCH   3   7
BRANCH   1  22
HETATM   22  C   UNL     1      44.593 -10.587   8.879  1.00  0.00     0.138 C 
BRANCH  22  23
HETATM   23  C   UNL     1      43.894  -9.213   9.126  1.00  0.00    -0.004 C 
HETATM   24  C   UNL     1      42.681  -9.030   8.183  1.00  0.00     0.021 C 
HETATM   25  C   UNL     1      44.898  -8.083   8.788  1.00  0.00     0.021 C 
BRANCH  23  26
HETATM   26  C   UNL     1      43.400  -9.158  10.586  1.00  0.00    -0.046 A 
HETATM   27  C   UNL     1      43.135  -7.920  11.197  1.00  0.00     0.027 A 
HETATM   28  C   UNL     1      42.708  -7.882  12.517  1.00  0.00     0.116 A 
HETATM   29  N   UNL     1      42.520  -8.978  13.276  1.00  0.00    -0.273 NA
HETATM   30  C   UNL     1      42.775 -10.162  12.686  1.00  0.00     0.116 A 
HETATM   31  C   UNL     1      43.204 -10.301  11.372  1.00  0.00     0.027 A 
ENDBRANCH  23  26
ENDBRANCH  22  23
ENDBRANCH   1  22
TORSDOF 6
ENDMDL
