MODEL 1
REMARK VINA RESULT:      -8.3      0.000      0.000
REMARK  6 active torsions:
REMARK  status: ('A' for Active; 'I' for Inactive)
REMARK    1  A    between atoms: O_2  and  C_3 
REMARK    2  A    between atoms: C_7  and  C_8 
REMARK    3  A    between atoms: C_8  and  C_9 
REMARK       I    between atoms: C_9  and  N_10 
REMARK    4  A    between atoms: N_10  and  C_11 
REMARK    5  A    between atoms: C_12  and  C_13 
REMARK       I    between atoms: C_13  and  N_14 
REMARK    6  A    between atoms: N_14  and  C_15 
ROOT
HETATM    1  C   UNL     1      43.291 -16.129   5.621  1.00  0.00     0.226 C 
HETATM    2  N   UNL     1      44.178 -16.914   4.909  1.00  0.00    -0.326 N 
HETATM    3  O   UNL     1      42.066 -16.234   5.587  1.00  0.00    -0.273 OA
HETATM    4  H   UNL     1      45.134 -16.574   4.834  1.00  0.00     0.169 HD
ENDROOT
BRANCH   2   5
HETATM    5  C   UNL     1      43.892 -18.130   4.232  1.00  0.00     0.050 A 
HETATM    6  C   UNL     1      43.410 -18.102   2.909  1.00  0.00     0.058 A 
HETATM    7  C   UNL     1      43.255 -19.285   2.172  1.00  0.00     0.019 A 
HETATM    8  C   UNL     1      43.545 -20.514   2.757  1.00  0.00     0.001 A 
HETATM    9  C   UNL     1      43.987 -20.559   4.076  1.00  0.00     0.002 A 
HETATM   10  C   UNL     1      44.164 -19.378   4.806  1.00  0.00     0.030 A 
BRANCH   6  11
HETATM   11  C   UNL     1      42.990 -16.847   2.239  1.00  0.00     0.254 C 
HETATM   12  N   UNL     1      41.646 -16.552   2.354  1.00  0.00    -0.352 N 
HETATM   13  H   UNL     1      41.031 -17.244   2.772  1.00  0.00     0.163 HD
HETATM   14  O   UNL     1      43.806 -16.175   1.621  1.00  0.00    -0.268 OA
BRANCH  12  15
HETATM   15  C   UNL     1      41.043 -15.468   1.646  1.00  0.00     0.084 A 
HETATM   16  C   UNL     1      39.784 -15.686   0.854  1.00  0.00     0.027 A 
HETATM   17  C   UNL     1      39.742 -14.877   2.117  1.00  0.00     0.027 A 
ENDBRANCH  12  15
ENDBRANCH   6  11
ENDBRANCH   2   5
BRANCH   1  18
HETATM   18  C   UNL     1      43.947 -15.134   6.565  1.00  0.00     0.144 C 
BRANCH  18  19
HETATM   19  C   UNL     1      43.637 -13.704   6.283  1.00  0.00    -0.014 A 
HETATM   20  C   UNL     1      43.363 -13.102   5.016  1.00  0.00     0.006 A 
HETATM   21  C   UNL     1      43.028 -11.781   5.285  1.00  0.00     0.088 A 
HETATM   22  C   UNL     1      43.338 -13.535   3.679  1.00  0.00     0.017 A 
HETATM   23  C   UNL     1      42.631 -10.852   4.325  1.00  0.00     0.074 A 
HETATM   24  O   UNL     1      43.129 -11.532   6.619  1.00  0.00    -0.321 OA
HETATM   25  C   UNL     1      42.570 -11.313   3.007  1.00  0.00     0.070 A 
HETATM   26  C   UNL     1      42.948 -12.622   2.688  1.00  0.00     0.038 A 
HETATM   27  C   UNL     1      43.488 -12.695   7.215  1.00  0.00     0.151 A 
BRANCH  25  28
HETATM   28  O   UNL     1      42.176 -10.547   1.940  1.00  0.00    -0.356 OA
HETATM   29  C   UNL     1      41.394 -11.230   0.962  1.00  0.00     0.210 C 
ENDBRANCH  25  28
ENDBRANCH  18  19
ENDBRANCH   1  18
TORSDOF 6
ENDMDL
MODEL 2
REMARK VINA RESULT:      -8.2      1.453      1.625
REMARK  6 active torsions:
REMARK  status: ('A' for Active; 'I' for Inactive)
REMARK    1  A    between atoms: O_2  and  C_3 
REMARK    2  A    between atoms: C_7  and  C_8 
REMARK    3  A    between atoms: C_8  and  C_9 
REMARK       I    between atoms: C_9  and  N_10 
REMARK    4  A    between atoms: N_10  and  C_11 
REMARK    5  A    between atoms: C_12  and  C_13 
REMARK       I    between atoms: C_13  and  N_14 
REMARK    6  A    between atoms: N_14  and  C_15 
ROOT
HETATM    1  C   UNL     1      43.876 -16.117   6.748  1.00  0.00     0.226 C 
HETATM    2  N   UNL     1      43.007 -17.079   6.266  1.00  0.00    -0.326 N 
HETATM    3  O   UNL     1      45.102 -16.173   6.683  1.00  0.00    -0.273 OA
HETATM    4  H   UNL     1      42.046 -17.035   6.594  1.00  0.00     0.169 HD
ENDROOT
BRANCH   2   5
HETATM    5  C   UNL     1      43.321 -18.152   5.390  1.00  0.00     0.050 A 
HETATM    6  C   UNL     1      43.343 -17.940   3.997  1.00  0.00     0.058 A 
HETATM    7  C   UNL     1      43.786 -18.943   3.121  1.00  0.00     0.019 A 
HETATM    8  C   UNL     1      44.178 -20.181   3.621  1.00  0.00     0.001 A 
HETATM    9  C   UNL     1      44.126 -20.417   4.991  1.00  0.00     0.002 A 
HETATM   10  C   UNL     1      43.705 -19.410   5.869  1.00  0.00     0.030 A 
BRANCH   6  11
HETATM   11  C   UNL     1      42.857 -16.686   3.373  1.00  0.00     0.254 C 
HETATM   12  N   UNL     1      41.580 -16.756   2.851  1.00  0.00    -0.352 N 
HETATM   13  H   UNL     1      41.117 -17.659   2.824  1.00  0.00     0.163 HD
HETATM   14  O   UNL     1      43.582 -15.701   3.324  1.00  0.00    -0.268 OA
BRANCH  12  15
HETATM   15  C   UNL     1      41.014 -15.694   2.084  1.00  0.00     0.084 A 
HETATM   16  C   UNL     1      39.972 -15.985   1.040  1.00  0.00     0.027 A 
HETATM   17  C   UNL     1      39.588 -15.269   2.301  1.00  0.00     0.027 A 
ENDBRANCH  12  15
ENDBRANCH   6  11
ENDBRANCH   2   5
BRANCH   1  18
HETATM   18  C   UNL     1      43.195 -14.881   7.314  1.00  0.00     0.144 C 
BRANCH  18  19
HETATM   19  C   UNL     1      42.258 -14.198   6.379  1.00  0.00    -0.014 A 
HETATM   20  C   UNL     1      42.576 -13.251   5.358  1.00  0.00     0.006 A 
HETATM   21  C   UNL     1      41.384 -12.993   4.691  1.00  0.00     0.088 A 
HETATM   22  C   UNL     1      43.740 -12.604   4.911  1.00  0.00     0.017 A 
HETATM   23  C   UNL     1      41.261 -12.161   3.580  1.00  0.00     0.074 A 
HETATM   24  O   UNL     1      40.362 -13.680   5.270  1.00  0.00    -0.321 OA
HETATM   25  C   UNL     1      42.438 -11.562   3.123  1.00  0.00     0.070 A 
HETATM   26  C   UNL     1      43.649 -11.755   3.798  1.00  0.00     0.038 A 
HETATM   27  C   UNL     1      40.895 -14.410   6.280  1.00  0.00     0.151 A 
BRANCH  25  28
HETATM   28  O   UNL     1      42.509 -10.736   2.030  1.00  0.00    -0.356 OA
HETATM   29  C   UNL     1      41.350 -10.735   1.199  1.00  0.00     0.210 C 
ENDBRANCH  25  28
ENDBRANCH  18  19
ENDBRANCH   1  18
TORSDOF 6
ENDMDL
MODEL 3
REMARK VINA RESULT:      -8.0      1.745      1.873
REMARK  6 active torsions:
REMARK  status: ('A' for Active; 'I' for Inactive)
REMARK    1  A    between atoms: O_2  and  C_3 
REMARK    2  A    between atoms: C_7  and  C_8 
REMARK    3  A    between atoms: C_8  and  C_9 
REMARK       I    between atoms: C_9  and  N_10 
REMARK    4  A    between atoms: N_10  and  C_11 
REMARK    5  A    between atoms: C_12  and  C_13 
REMARK       I    between atoms: C_13  and  N_14 
REMARK    6  A    between atoms: N_14  and  C_15 
ROOT
HETATM    1  C   UNL     1      43.897 -16.263   6.868  1.00  0.00     0.226 C 
HETATM    2  N   UNL     1      43.012 -17.148   6.280  1.00  0.00    -0.326 N 
HETATM    3  O   UNL     1      45.121 -16.326   6.786  1.00  0.00    -0.273 OA
HETATM    4  H   UNL     1      42.053 -17.132   6.620  1.00  0.00     0.169 HD
ENDROOT
BRANCH   2   5
HETATM    5  C   UNL     1      43.304 -18.112   5.279  1.00  0.00     0.050 A 
HETATM    6  C   UNL     1      43.240 -17.755   3.918  1.00  0.00     0.058 A 
HETATM    7  C   UNL     1      43.660 -18.644   2.918  1.00  0.00     0.019 A 
HETATM    8  C   UNL     1      44.116 -19.913   3.260  1.00  0.00     0.001 A 
HETATM    9  C   UNL     1      44.150 -20.293   4.598  1.00  0.00     0.002 A 
HETATM   10  C   UNL     1      43.752 -19.400   5.600  1.00  0.00     0.030 A 
BRANCH   6  11
HETATM   11  C   UNL     1      42.683 -16.459   3.458  1.00  0.00     0.254 C 
HETATM   12  N   UNL     1      41.418 -16.536   2.911  1.00  0.00    -0.352 N 
HETATM   13  H   UNL     1      41.011 -17.453   2.755  1.00  0.00     0.163 HD
HETATM   14  O   UNL     1      43.346 -15.434   3.554  1.00  0.00    -0.268 OA
BRANCH  12  15
HETATM   15  C   UNL     1      40.793 -15.416   2.282  1.00  0.00     0.084 A 
HETATM   16  C   UNL     1      41.234 -14.971   0.915  1.00  0.00     0.027 A 
HETATM   17  C   UNL     1      39.889 -15.610   1.097  1.00  0.00     0.027 A 
ENDBRANCH  12  15
ENDBRANCH   6  11
ENDBRANCH   2   5
BRANCH   1  18
HETATM   18  C   UNL     1      43.237 -15.095   7.584  1.00  0.00     0.144 C 
BRANCH  18  19
HETATM   19  C   UNL     1      43.149 -13.840   6.787  1.00  0.00    -0.014 A 
HETATM   20  C   UNL     1      42.049 -13.377   6.001  1.00  0.00     0.006 A 
HETATM   21  C   UNL     1      42.407 -12.114   5.546  1.00  0.00     0.088 A 
HETATM   22  C   UNL     1      40.784 -13.876   5.647  1.00  0.00     0.017 A 
HETATM   23  C   UNL     1      41.587 -11.282   4.787  1.00  0.00     0.074 A 
HETATM   24  O   UNL     1      43.666 -11.804   5.961  1.00  0.00    -0.321 OA
HETATM   25  C   UNL     1      40.316 -11.778   4.483  1.00  0.00     0.070 A 
HETATM   26  C   UNL     1      39.936 -13.065   4.878  1.00  0.00     0.038 A 
HETATM   27  C   UNL     1      44.104 -12.843   6.713  1.00  0.00     0.151 A 
BRANCH  25  28
HETATM   28  O   UNL     1      39.370 -11.087   3.769  1.00  0.00    -0.356 OA
HETATM   29  C   UNL     1      38.837 -11.782   2.643  1.00  0.00     0.210 C 
ENDBRANCH  25  28
ENDBRANCH  18  19
ENDBRANCH   1  18
TORSDOF 6
ENDMDL
MODEL 4
REMARK VINA RESULT:      -8.0      3.532      8.011
REMARK  6 active torsions:
REMARK  status: ('A' for Active; 'I' for Inactive)
REMARK    1  A    between atoms: O_2  and  C_3 
REMARK    2  A    between atoms: C_7  and  C_8 
REMARK    3  A    between atoms: C_8  and  C_9 
REMARK       I    between atoms: C_9  and  N_10 
REMARK    4  A    between atoms: N_10  and  C_11 
REMARK    5  A    between atoms: C_12  and  C_13 
REMARK       I    between atoms: C_13  and  N_14 
REMARK    6  A    between atoms: N_14  and  C_15 
ROOT
HETATM    1  C   UNL     1      42.769 -12.786   5.913  1.00  0.00     0.226 C 
HETATM    2  N   UNL     1      43.019 -12.181   7.132  1.00  0.00    -0.326 N 
HETATM    3  O   UNL     1      43.191 -12.394   4.828  1.00  0.00    -0.273 OA
HETATM    4  H   UNL     1      42.423 -12.453   7.909  1.00  0.00     0.169 HD
ENDROOT
BRANCH   2   5
HETATM    5  C   UNL     1      43.995 -11.188   7.409  1.00  0.00     0.050 A 
HETATM    6  C   UNL     1      43.606  -9.955   7.969  1.00  0.00     0.058 A 
HETATM    7  C   UNL     1      44.563  -9.016   8.382  1.00  0.00     0.019 A 
HETATM    8  C   UNL     1      45.918  -9.279   8.210  1.00  0.00     0.001 A 
HETATM    9  C   UNL     1      46.316 -10.477   7.624  1.00  0.00     0.002 A 
HETATM   10  C   UNL     1      45.364 -11.426   7.231  1.00  0.00     0.030 A 
BRANCH   6  11
HETATM   11  C   UNL     1      42.184  -9.554   8.105  1.00  0.00     0.254 C 
HETATM   12  N   UNL     1      41.718  -9.509   9.404  1.00  0.00    -0.352 N 
HETATM   13  H   UNL     1      42.319  -9.854  10.146  1.00  0.00     0.163 HD
HETATM   14  O   UNL     1      41.513  -9.318   7.109  1.00  0.00    -0.268 OA
BRANCH  12  15
HETATM   15  C   UNL     1      40.341  -9.291   9.709  1.00  0.00     0.084 A 
HETATM   16  C   UNL     1      39.767  -9.771  11.013  1.00  0.00     0.027 A 
HETATM   17  C   UNL     1      39.940  -8.301  10.768  1.00  0.00     0.027 A 
ENDBRANCH  12  15
ENDBRANCH   6  11
ENDBRANCH   2   5
BRANCH   1  18
HETATM   18  C   UNL     1      41.973 -14.078   6.003  1.00  0.00     0.144 C 
BRANCH  18  19
HETATM   19  C   UNL     1      42.796 -15.321   5.999  1.00  0.00    -0.014 A 
HETATM   20  C   UNL     1      42.939 -16.272   4.942  1.00  0.00     0.006 A 
HETATM   21  C   UNL     1      43.890 -17.187   5.377  1.00  0.00     0.088 A 
HETATM   22  C   UNL     1      42.389 -16.445   3.660  1.00  0.00     0.017 A 
HETATM   23  C   UNL     1      44.371 -18.252   4.618  1.00  0.00     0.074 A 
HETATM   24  O   UNL     1      44.293 -16.882   6.640  1.00  0.00    -0.321 OA
HETATM   25  C   UNL     1      43.844 -18.381   3.330  1.00  0.00     0.070 A 
HETATM   26  C   UNL     1      42.847 -17.512   2.874  1.00  0.00     0.038 A 
HETATM   27  C   UNL     1      43.637 -15.754   7.006  1.00  0.00     0.151 A 
BRANCH  25  28
HETATM   28  O   UNL     1      44.218 -19.353   2.438  1.00  0.00    -0.356 OA
HETATM   29  C   UNL     1      43.165 -20.209   2.000  1.00  0.00     0.210 C 
ENDBRANCH  25  28
ENDBRANCH  18  19
ENDBRANCH   1  18
TORSDOF 6
ENDMDL
MODEL 5
REMARK VINA RESULT:      -7.8      3.598      8.127
REMARK  6 active torsions:
REMARK  status: ('A' for Active; 'I' for Inactive)
REMARK    1  A    between atoms: O_2  and  C_3 
REMARK    2  A    between atoms: C_7  and  C_8 
REMARK    3  A    between atoms: C_8  and  C_9 
REMARK       I    between atoms: C_9  and  N_10 
REMARK    4  A    between atoms: N_10  and  C_11 
REMARK    5  A    between atoms: C_12  and  C_13 
REMARK       I    between atoms: C_13  and  N_14 
REMARK    6  A    between atoms: N_14  and  C_15 
ROOT
HETATM    1  C   UNL     1      42.646 -12.730   6.106  1.00  0.00     0.226 C 
HETATM    2  N   UNL     1      43.124 -12.257   7.314  1.00  0.00    -0.326 N 
HETATM    3  O   UNL     1      42.806 -12.184   5.017  1.00  0.00    -0.273 OA
HETATM    4  H   UNL     1      42.722 -12.660   8.157  1.00  0.00     0.169 HD
ENDROOT
BRANCH   2   5
HETATM    5  C   UNL     1      44.090 -11.235   7.510  1.00  0.00     0.050 A 
HETATM    6  C   UNL     1      43.716 -10.018   8.114  1.00  0.00     0.058 A 
HETATM    7  C   UNL     1      44.677  -9.052   8.447  1.00  0.00     0.019 A 
HETATM    8  C   UNL     1      46.018  -9.270   8.148  1.00  0.00     0.001 A 
HETATM    9  C   UNL     1      46.398 -10.451   7.518  1.00  0.00     0.002 A 
HETATM   10  C   UNL     1      45.443 -11.427   7.205  1.00  0.00     0.030 A 
BRANCH   6  11
HETATM   11  C   UNL     1      42.301  -9.663   8.384  1.00  0.00     0.254 C 
HETATM   12  N   UNL     1      41.975  -9.563   9.722  1.00  0.00    -0.352 N 
HETATM   13  H   UNL     1      42.666  -9.843  10.411  1.00  0.00     0.163 HD
HETATM   14  O   UNL     1      41.517  -9.509   7.457  1.00  0.00    -0.268 OA
BRANCH  12  15
HETATM   15  C   UNL     1      40.630  -9.379  10.164  1.00  0.00     0.084 A 
HETATM   16  C   UNL     1      40.237  -9.744  11.569  1.00  0.00     0.027 A 
HETATM   17  C   UNL     1      40.292  -8.302  11.157  1.00  0.00     0.027 A 
ENDBRANCH  12  15
ENDBRANCH   6  11
ENDBRANCH   2   5
BRANCH   1  18
HETATM   18  C   UNL     1      41.949 -14.079   6.190  1.00  0.00     0.144 C 
BRANCH  18  19
HETATM   19  C   UNL     1      41.921 -14.850   4.915  1.00  0.00    -0.014 A 
HETATM   20  C   UNL     1      42.693 -16.002   4.572  1.00  0.00     0.006 A 
HETATM   21  C   UNL     1      42.231 -16.416   3.328  1.00  0.00     0.088 A 
HETATM   22  C   UNL     1      43.710 -16.752   5.185  1.00  0.00     0.017 A 
HETATM   23  C   UNL     1      42.678 -17.549   2.653  1.00  0.00     0.074 A 
HETATM   24  O   UNL     1      41.269 -15.565   2.877  1.00  0.00    -0.321 OA
HETATM   25  C   UNL     1      43.659 -18.307   3.299  1.00  0.00     0.070 A 
HETATM   26  C   UNL     1      44.188 -17.896   4.527  1.00  0.00     0.038 A 
HETATM   27  C   UNL     1      41.082 -14.630   3.839  1.00  0.00     0.151 A 
BRANCH  25  28
HETATM   28  O   UNL     1      44.197 -19.463   2.794  1.00  0.00    -0.356 OA
HETATM   29  C   UNL     1      43.324 -20.219   1.958  1.00  0.00     0.210 C 
ENDBRANCH  25  28
ENDBRANCH  18  19
ENDBRANCH   1  18
TORSDOF 6
ENDMDL
MODEL 6
REMARK VINA RESULT:      -7.8      3.120      7.190
REMARK  6 active torsions:
REMARK  status: ('A' for Active; 'I' for Inactive)
REMARK    1  A    between atoms: O_2  and  C_3 
REMARK    2  A    between atoms: C_7  and  C_8 
REMARK    3  A    between atoms: C_8  and  C_9 
REMARK       I    between atoms: C_9  and  N_10 
REMARK    4  A    between atoms: N_10  and  C_11 
REMARK    5  A    between atoms: C_12  and  C_13 
REMARK       I    between atoms: C_13  and  N_14 
REMARK    6  A    between atoms: N_14  and  C_15 
ROOT
HETATM    1  C   UNL     1      41.358 -13.649   1.605  1.00  0.00     0.226 C 
HETATM    2  N   UNL     1      41.323 -13.185   0.303  1.00  0.00    -0.326 N 
HETATM    3  O   UNL     1      40.392 -14.081   2.230  1.00  0.00    -0.273 OA
HETATM    4  H   UNL     1      42.120 -12.636  -0.010  1.00  0.00     0.169 HD
ENDROOT
BRANCH   2   5
HETATM    5  C   UNL     1      40.272 -13.356  -0.637  1.00  0.00     0.050 A 
HETATM    6  C   UNL     1      39.725 -12.235  -1.293  1.00  0.00     0.058 A 
HETATM    7  C   UNL     1      38.789 -12.389  -2.326  1.00  0.00     0.019 A 
HETATM    8  C   UNL     1      38.359 -13.660  -2.694  1.00  0.00     0.001 A 
HETATM    9  C   UNL     1      38.863 -14.774  -2.030  1.00  0.00     0.002 A 
HETATM   10  C   UNL     1      39.815 -14.624  -1.014  1.00  0.00     0.030 A 
BRANCH   6  11
HETATM   11  C   UNL     1      40.056 -10.842  -0.904  1.00  0.00     0.254 C 
HETATM   12  N   UNL     1      40.565 -10.063  -1.924  1.00  0.00    -0.352 N 
HETATM   13  H   UNL     1      40.782 -10.506  -2.811  1.00  0.00     0.163 HD
HETATM   14  O   UNL     1      39.898 -10.471   0.252  1.00  0.00    -0.268 OA
BRANCH  12  15
HETATM   15  C   UNL     1      41.076  -8.750  -1.693  1.00  0.00     0.084 A 
HETATM   16  C   UNL     1      42.530  -8.549  -1.365  1.00  0.00     0.027 A 
HETATM   17  C   UNL     1      41.994  -8.100  -2.692  1.00  0.00     0.027 A 
ENDBRANCH  12  15
ENDBRANCH   6  11
ENDBRANCH   2   5
BRANCH   1  18
HETATM   18  C   UNL     1      42.746 -13.680   2.225  1.00  0.00     0.144 C 
BRANCH  18  19
HETATM   19  C   UNL     1      42.914 -14.658   3.337  1.00  0.00    -0.014 A 
HETATM   20  C   UNL     1      43.156 -16.063   3.237  1.00  0.00     0.006 A 
HETATM   21  C   UNL     1      43.347 -16.512   4.538  1.00  0.00     0.088 A 
HETATM   22  C   UNL     1      43.259 -16.996   2.191  1.00  0.00     0.017 A 
HETATM   23  C   UNL     1      43.670 -17.821   4.886  1.00  0.00     0.074 A 
HETATM   24  O   UNL     1      43.188 -15.485   5.418  1.00  0.00    -0.321 OA
HETATM   25  C   UNL     1      43.811 -18.725   3.829  1.00  0.00     0.070 A 
HETATM   26  C   UNL     1      43.577 -18.325   2.509  1.00  0.00     0.038 A 
HETATM   27  C   UNL     1      42.935 -14.372   4.689  1.00  0.00     0.151 A 
BRANCH  25  28
HETATM   28  O   UNL     1      44.150 -20.045   3.984  1.00  0.00    -0.356 OA
HETATM   29  C   UNL     1      44.032 -20.546   5.313  1.00  0.00     0.210 C 
ENDBRANCH  25  28
ENDBRANCH  18  19
ENDBRANCH   1  18
TORSDOF 6
ENDMDL
MODEL 7
REMARK VINA RESULT:      -7.7      2.255      4.187
REMARK  6 active torsions:
REMARK  status: ('A' for Active; 'I' for Inactive)
REMARK    1  A    between atoms: O_2  and  C_3 
REMARK    2  A    between atoms: C_7  and  C_8 
REMARK    3  A    between atoms: C_8  and  C_9 
REMARK       I    between atoms: C_9  and  N_10 
REMARK    4  A    between atoms: N_10  and  C_11 
REMARK    5  A    between atoms: C_12  and  C_13 
REMARK       I    between atoms: C_13  and  N_14 
REMARK    6  A    between atoms: N_14  and  C_15 
ROOT
HETATM    1  C   UNL     1      42.435 -16.477   2.721  1.00  0.00     0.226 C 
HETATM    2  N   UNL     1      43.550 -17.292   2.655  1.00  0.00    -0.326 N 
HETATM    3  O   UNL     1      41.347 -16.801   3.193  1.00  0.00    -0.273 OA
HETATM    4  H   UNL     1      44.298 -16.997   2.032  1.00  0.00     0.169 HD
ENDROOT
BRANCH   2   5
HETATM    5  C   UNL     1      43.751 -18.523   3.333  1.00  0.00     0.050 A 
HETATM    6  C   UNL     1      43.824 -18.547   4.740  1.00  0.00     0.058 A 
HETATM    7  C   UNL     1      43.879 -19.763   5.439  1.00  0.00     0.019 A 
HETATM    8  C   UNL     1      43.899 -20.967   4.743  1.00  0.00     0.001 A 
HETATM    9  C   UNL     1      43.865 -20.957   3.352  1.00  0.00     0.002 A 
HETATM   10  C   UNL     1      43.787 -19.746   2.653  1.00  0.00     0.030 A 
BRANCH   6  11
HETATM   11  C   UNL     1      43.900 -17.311   5.557  1.00  0.00     0.254 C 
HETATM   12  N   UNL     1      42.705 -16.919   6.125  1.00  0.00    -0.352 N 
HETATM   13  H   UNL     1      41.858 -17.414   5.863  1.00  0.00     0.163 HD
HETATM   14  O   UNL     1      44.960 -16.709   5.665  1.00  0.00    -0.268 OA
BRANCH  12  15
HETATM   15  C   UNL     1      42.563 -15.676   6.814  1.00  0.00     0.084 A 
HETATM   16  C   UNL     1      42.716 -14.377   6.074  1.00  0.00     0.027 A 
HETATM   17  C   UNL     1      41.365 -14.800   6.573  1.00  0.00     0.027 A 
ENDBRANCH  12  15
ENDBRANCH   6  11
ENDBRANCH   2   5
BRANCH   1  18
HETATM   18  C   UNL     1      42.664 -15.055   2.233  1.00  0.00     0.144 C 
BRANCH  18  19
HETATM   19  C   UNL     1      41.440 -14.353   1.753  1.00  0.00    -0.014 A 
HETATM   20  C   UNL     1      40.745 -13.277   2.386  1.00  0.00     0.006 A 
HETATM   21  C   UNL     1      39.741 -12.898   1.502  1.00  0.00     0.088 A 
HETATM   22  C   UNL     1      40.869 -12.568   3.592  1.00  0.00     0.017 A 
HETATM   23  C   UNL     1      38.863 -11.836   1.707  1.00  0.00     0.074 A 
HETATM   24  O   UNL     1      39.752 -13.702   0.404  1.00  0.00    -0.321 OA
HETATM   25  C   UNL     1      39.031 -11.115   2.893  1.00  0.00     0.070 A 
HETATM   26  C   UNL     1      39.995 -11.496   3.832  1.00  0.00     0.038 A 
HETATM   27  C   UNL     1      40.781 -14.571   0.558  1.00  0.00     0.151 A 
BRANCH  25  28
HETATM   28  O   UNL     1      38.275 -10.027   3.247  1.00  0.00    -0.356 OA
HETATM   29  C   UNL     1      38.376  -9.643   4.617  1.00  0.00     0.210 C 
ENDBRANCH  25  28
ENDBRANCH  18  19
ENDBRANCH   1  18
TORSDOF 6
ENDMDL
MODEL 8
REMARK VINA RESULT:      -7.6      2.217      4.823
REMARK  6 active torsions:
REMARK  status: ('A' for Active; 'I' for Inactive)
REMARK    1  A    between atoms: O_2  and  C_3 
REMARK    2  A    between atoms: C_7  and  C_8 
REMARK    3  A    between atoms: C_8  and  C_9 
REMARK       I    between atoms: C_9  and  N_10 
REMARK    4  A    between atoms: N_10  and  C_11 
REMARK    5  A    between atoms: C_12  and  C_13 
REMARK       I    between atoms: C_13  and  N_14 
REMARK    6  A    between atoms: N_14  and  C_15 
ROOT
HETATM    1  C   UNL     1      41.598 -15.338   1.598  1.00  0.00     0.226 C 
HETATM    2  N   UNL     1      41.454 -16.491   2.348  1.00  0.00    -0.326 N 
HETATM    3  O   UNL     1      42.619 -14.657   1.533  1.00  0.00    -0.273 OA
HETATM    4  H   UNL     1      40.504 -16.817   2.509  1.00  0.00     0.169 HD
ENDROOT
BRANCH   2   5
HETATM    5  C   UNL     1      42.488 -17.250   2.956  1.00  0.00     0.050 A 
HETATM    6  C   UNL     1      42.820 -17.033   4.308  1.00  0.00     0.058 A 
HETATM    7  C   UNL     1      43.737 -17.864   4.969  1.00  0.00     0.019 A 
HETATM    8  C   UNL     1      44.361 -18.900   4.281  1.00  0.00     0.001 A 
HETATM    9  C   UNL     1      44.071 -19.103   2.935  1.00  0.00     0.002 A 
HETATM   10  C   UNL     1      43.139 -18.289   2.279  1.00  0.00     0.030 A 
BRANCH   6  11
HETATM   11  C   UNL     1      42.273 -15.898   5.091  1.00  0.00     0.254 C 
HETATM   12  N   UNL     1      43.196 -14.925   5.420  1.00  0.00    -0.352 N 
HETATM   13  H   UNL     1      44.175 -15.096   5.215  1.00  0.00     0.163 HD
HETATM   14  O   UNL     1      41.094 -15.888   5.420  1.00  0.00    -0.268 OA
BRANCH  12  15
HETATM   15  C   UNL     1      42.878 -13.843   6.296  1.00  0.00     0.084 A 
HETATM   16  C   UNL     1      43.958 -12.910   6.770  1.00  0.00     0.027 A 
HETATM   17  C   UNL     1      42.920 -12.422   5.803  1.00  0.00     0.027 A 
ENDBRANCH  12  15
ENDBRANCH   6  11
ENDBRANCH   2   5
BRANCH   1  18
HETATM   18  C   UNL     1      40.390 -14.986   0.745  1.00  0.00     0.144 C 
BRANCH  18  19
HETATM   19  C   UNL     1      39.828 -13.627   0.983  1.00  0.00    -0.014 A 
HETATM   20  C   UNL     1      39.604 -12.981   2.238  1.00  0.00     0.006 A 
HETATM   21  C   UNL     1      39.175 -11.694   1.935  1.00  0.00     0.088 A 
HETATM   22  C   UNL     1      39.741 -13.333   3.592  1.00  0.00     0.017 A 
HETATM   23  C   UNL     1      38.901 -10.706   2.878  1.00  0.00     0.074 A 
HETATM   24  O   UNL     1      39.077 -11.537   0.586  1.00  0.00    -0.321 OA
HETATM   25  C   UNL     1      39.085 -11.062   4.217  1.00  0.00     0.070 A 
HETATM   26  C   UNL     1      39.467 -12.362   4.567  1.00  0.00     0.038 A 
HETATM   27  C   UNL     1      39.479 -12.700   0.020  1.00  0.00     0.151 A 
BRANCH  25  28
HETATM   28  O   UNL     1      38.888 -10.212   5.275  1.00  0.00    -0.356 OA
HETATM   29  C   UNL     1      38.862 -10.838   6.556  1.00  0.00     0.210 C 
ENDBRANCH  25  28
ENDBRANCH  18  19
ENDBRANCH   1  18
TORSDOF 6
ENDMDL
MODEL 9
REMARK VINA RESULT:      -7.5      2.552      5.614
REMARK  6 active torsions:
REMARK  status: ('A' for Active; 'I' for Inactive)
REMARK    1  A    between atoms: O_2  and  C_3 
REMARK    2  A    between atoms: C_7  and  C_8 
REMARK    3  A    between atoms: C_8  and  C_9 
REMARK       I    between atoms: C_9  and  N_10 
REMARK    4  A    between atoms: N_10  and  C_11 
REMARK    5  A    between atoms: C_12  and  C_13 
REMARK       I    between atoms: C_13  and  N_14 
REMARK    6  A    between atoms: N_14  and  C_15 
ROOT
HETATM    1  C   UNL     1      42.054 -13.326   3.276  1.00  0.00     0.226 C 
HETATM    2  N   UNL     1      41.705 -14.599   3.689  1.00  0.00    -0.326 N 
HETATM    3  O   UNL     1      43.199 -12.884   3.235  1.00  0.00    -0.273 OA
HETATM    4  H   UNL     1      40.724 -14.758   3.907  1.00  0.00     0.169 HD
ENDROOT
BRANCH   2   5
HETATM    5  C   UNL     1      42.575 -15.704   3.882  1.00  0.00     0.050 A 
HETATM    6  C   UNL     1      43.162 -15.926   5.144  1.00  0.00     0.058 A 
HETATM    7  C   UNL     1      43.909 -17.086   5.398  1.00  0.00     0.019 A 
HETATM    8  C   UNL     1      44.112 -18.020   4.387  1.00  0.00     0.001 A 
HETATM    9  C   UNL     1      43.570 -17.796   3.126  1.00  0.00     0.002 A 
HETATM   10  C   UNL     1      42.805 -16.650   2.876  1.00  0.00     0.030 A 
BRANCH   6  11
HETATM   11  C   UNL     1      43.074 -14.941   6.249  1.00  0.00     0.254 C 
HETATM   12  N   UNL     1      43.810 -13.789   6.056  1.00  0.00    -0.352 N 
HETATM   13  H   UNL     1      44.433 -13.740   5.256  1.00  0.00     0.163 HD
HETATM   14  O   UNL     1      42.410 -15.191   7.246  1.00  0.00    -0.268 OA
BRANCH  12  15
HETATM   15  C   UNL     1      43.962 -12.804   7.079  1.00  0.00     0.084 A 
HETATM   16  C   UNL     1      45.020 -11.743   6.959  1.00  0.00     0.027 A 
HETATM   17  C   UNL     1      43.571 -11.374   6.828  1.00  0.00     0.027 A 
ENDBRANCH  12  15
ENDBRANCH   6  11
ENDBRANCH   2   5
BRANCH   1  18
HETATM   18  C   UNL     1      40.892 -12.489   2.765  1.00  0.00     0.144 C 
BRANCH  18  19
HETATM   19  C   UNL     1      40.977 -12.111   1.326  1.00  0.00    -0.014 A 
HETATM   20  C   UNL     1      40.555 -12.875   0.195  1.00  0.00     0.006 A 
HETATM   21  C   UNL     1      40.740 -12.055  -0.911  1.00  0.00     0.088 A 
HETATM   22  C   UNL     1      40.015 -14.156  -0.011  1.00  0.00     0.017 A 
HETATM   23  C   UNL     1      40.396 -12.395  -2.218  1.00  0.00     0.074 A 
HETATM   24  O   UNL     1      41.290 -10.869  -0.531  1.00  0.00    -0.321 OA
HETATM   25  C   UNL     1      39.820 -13.656  -2.397  1.00  0.00     0.070 A 
HETATM   26  C   UNL     1      39.664 -14.532  -1.317  1.00  0.00     0.038 A 
HETATM   27  C   UNL     1      41.422 -10.906   0.817  1.00  0.00     0.151 A 
BRANCH  25  28
HETATM   28  O   UNL     1      39.398 -14.146  -3.606  1.00  0.00    -0.356 OA
HETATM   29  C   UNL     1      38.036 -14.568  -3.643  1.00  0.00     0.210 C 
ENDBRANCH  25  28
ENDBRANCH  18  19
ENDBRANCH   1  18
TORSDOF 6
ENDMDL
MODEL 10
REMARK VINA RESULT:      -7.5      2.338      5.791
REMARK  6 active torsions:
REMARK  status: ('A' for Active; 'I' for Inactive)
REMARK    1  A    between atoms: O_2  and  C_3 
REMARK    2  A    between atoms: C_7  and  C_8 
REMARK    3  A    between atoms: C_8  and  C_9 
REMARK       I    between atoms: C_9  and  N_10 
REMARK    4  A    between atoms: N_10  and  C_11 
REMARK    5  A    between atoms: C_12  and  C_13 
REMARK       I    between atoms: C_13  and  N_14 
REMARK    6  A    between atoms: N_14  and  C_15 
ROOT
HETATM    1  C   UNL     1      40.262 -11.643   2.855  1.00  0.00     0.226 C 
HETATM    2  N   UNL     1      41.099 -12.321   1.989  1.00  0.00    -0.326 N 
HETATM    3  O   UNL     1      39.132 -11.243   2.583  1.00  0.00    -0.273 OA
HETATM    4  H   UNL     1      42.080 -12.378   2.249  1.00  0.00     0.169 HD
ENDROOT
BRANCH   2   5
HETATM    5  C   UNL     1      40.745 -12.916   0.749  1.00  0.00     0.050 A 
HETATM    6  C   UNL     1      40.423 -14.286   0.691  1.00  0.00     0.058 A 
HETATM    7  C   UNL     1      39.934 -14.864  -0.490  1.00  0.00     0.019 A 
HETATM    8  C   UNL     1      39.796 -14.091  -1.639  1.00  0.00     0.001 A 
HETATM    9  C   UNL     1      40.145 -12.745  -1.607  1.00  0.00     0.002 A 
HETATM   10  C   UNL     1      40.611 -12.160  -0.423  1.00  0.00     0.030 A 
BRANCH   6  11
HETATM   11  C   UNL     1      40.626 -15.203   1.840  1.00  0.00     0.254 C 
HETATM   12  N   UNL     1      41.764 -15.982   1.763  1.00  0.00    -0.352 N 
HETATM   13  H   UNL     1      42.306 -15.964   0.905  1.00  0.00     0.163 HD
HETATM   14  O   UNL     1      39.805 -15.247   2.746  1.00  0.00    -0.268 OA
BRANCH  12  15
HETATM   15  C   UNL     1      42.036 -17.022   2.702  1.00  0.00     0.084 A 
HETATM   16  C   UNL     1      42.619 -18.328   2.238  1.00  0.00     0.027 A 
HETATM   17  C   UNL     1      43.453 -17.384   3.052  1.00  0.00     0.027 A 
ENDBRANCH  12  15
ENDBRANCH   6  11
ENDBRANCH   2   5
BRANCH   1  18
HETATM   18  C   UNL     1      40.808 -11.485   4.265  1.00  0.00     0.144 C 
BRANCH  18  19
HETATM   19  C   UNL     1      40.642 -12.681   5.139  1.00  0.00    -0.014 A 
HETATM   20  C   UNL     1      41.608 -13.692   5.432  1.00  0.00     0.006 A 
HETATM   21  C   UNL     1      41.017 -14.525   6.374  1.00  0.00     0.088 A 
HETATM   22  C   UNL     1      42.921 -13.979   5.023  1.00  0.00     0.017 A 
HETATM   23  C   UNL     1      41.645 -15.612   6.978  1.00  0.00     0.074 A 
HETATM   24  O   UNL     1      39.745 -14.114   6.633  1.00  0.00    -0.321 OA
HETATM   25  C   UNL     1      42.966 -15.855   6.591  1.00  0.00     0.070 A 
HETATM   26  C   UNL     1      43.580 -15.072   5.607  1.00  0.00     0.038 A 
HETATM   27  C   UNL     1      39.528 -13.000   5.893  1.00  0.00     0.151 A 
BRANCH  25  28
HETATM   28  O   UNL     1      43.745 -16.864   7.098  1.00  0.00    -0.356 OA
HETATM   29  C   UNL     1      43.380 -18.177   6.677  1.00  0.00     0.210 C 
ENDBRANCH  25  28
ENDBRANCH  18  19
ENDBRANCH   1  18
TORSDOF 6
ENDMDL
