MODEL 1
REMARK VINA RESULT:      -8.4      0.000      0.000
REMARK  8 active torsions:
REMARK  status: ('A' for Active; 'I' for Inactive)
REMARK    1  A    between atoms: C_2  and  O_3 
REMARK    2  A    between atoms: O_3  and  C_4 
REMARK    3  A    between atoms: C_4  and  C_5 
REMARK    4  A    between atoms: C_6  and  C_8 
REMARK    5  A    between atoms: C_6  and  O_7 
REMARK    6  A    between atoms: C_16  and  C_17 
REMARK    7  A    between atoms: C_18  and  C_19 
REMARK    8  A    between atoms: N_26  and  C_27 
ROOT
HETATM    1  C   UNL     1      40.326 -11.516   2.713  1.00  0.00     0.177 C 
HETATM    2  C   UNL     1      41.232 -11.102   3.884  1.00  0.00     0.250 C 
HETATM    3  N   UNL     1      40.581 -11.307   5.160  1.00  0.00    -0.303 N 
HETATM    4  C   UNL     1      39.768 -12.355   5.416  1.00  0.00     0.319 C 
HETATM    5  O   UNL     1      39.469 -12.666   6.560  1.00  0.00    -0.247 OA
HETATM    6  N   UNL     1      39.256 -13.008   4.350  1.00  0.00    -0.333 N 
HETATM    7  C   UNL     1      39.661 -12.869   2.961  1.00  0.00     0.142 C 
HETATM    8  H   UNL     1      41.030 -10.929   5.989  1.00  0.00     0.167 HD
HETATM    9  H   UNL     1      38.646 -13.779   4.598  1.00  0.00     0.165 HD
ENDROOT
BRANCH   7  10
HETATM   10  C   UNL     1      40.465 -14.085   2.571  1.00  0.00     0.015 A 
HETATM   11  C   UNL     1      40.811 -14.558   1.265  1.00  0.00     0.097 A 
HETATM   12  N   UNL     1      41.603 -15.637   1.334  1.00  0.00    -0.167 NA
HETATM   13  N   UNL     1      41.767 -15.897   2.649  1.00  0.00    -0.244 N 
HETATM   14  C   UNL     1      41.038 -15.022   3.416  1.00  0.00     0.130 A 
BRANCH  11  15
HETATM   15  C   UNL     1      40.458 -14.009  -0.042  1.00  0.00    -0.005 A 
HETATM   16  C   UNL     1      39.603 -14.730  -0.889  1.00  0.00     0.014 A 
HETATM   17  C   UNL     1      39.264 -14.232  -2.149  1.00  0.00     0.001 A 
HETATM   18  C   UNL     1      39.775 -13.008  -2.572  1.00  0.00     0.000 A 
HETATM   19  C   UNL     1      40.616 -12.276  -1.734  1.00  0.00     0.001 A 
HETATM   20  C   UNL     1      40.952 -12.771  -0.470  1.00  0.00     0.014 A 
ENDBRANCH  11  15
BRANCH  13  21
HETATM   21  C   UNL     1      42.623 -16.945   3.093  1.00  0.00     0.058 A 
HETATM   22  C   UNL     1      43.185 -16.878   4.377  1.00  0.00     0.031 A 
HETATM   23  C   UNL     1      44.005 -17.910   4.840  1.00  0.00     0.002 A 
HETATM   24  C   UNL     1      44.273 -19.009   4.028  1.00  0.00     0.000 A 
HETATM   25  C   UNL     1      43.723 -19.080   2.750  1.00  0.00     0.002 A 
HETATM   26  C   UNL     1      42.899 -18.054   2.279  1.00  0.00     0.031 A 
ENDBRANCH  13  21
ENDBRANCH   7  10
BRANCH   1  27
HETATM   27  C   UNL     1      39.204 -10.543   2.402  1.00  0.00     0.270 C 
HETATM   28  O   UNL     1      38.418 -10.149   3.255  1.00  0.00    -0.265 OA
BRANCH  27  29
HETATM   29  O   UNL     1      39.224 -10.098   1.117  1.00  0.00    -0.321 OA
BRANCH  29  30
HETATM   30  C   UNL     1      37.961 -10.007   0.438  1.00  0.00     0.174 C 
HETATM   31  C   UNL     1      37.483 -11.399   0.078  1.00  0.00     0.034 C 
ENDBRANCH  29  30
ENDBRANCH  27  29
ENDBRANCH   1  27
BRANCH   2  32
HETATM   32  C   UNL     1      42.624 -11.832   3.814  1.00  0.00     0.439 C 
HETATM   33  F   UNL     1      42.889 -12.297   2.573  1.00  0.00    -0.166 F 
HETATM   34  F   UNL     1      43.627 -10.978   4.150  1.00  0.00    -0.166 F 
HETATM   35  F   UNL     1      42.715 -12.868   4.672  1.00  0.00    -0.166 F 
ENDBRANCH   2  32
BRANCH   2  36
HETATM   36  O   UNL     1      41.463  -9.686   3.839  1.00  0.00    -0.363 OA
HETATM   37  H   UNL     1      42.203  -9.572   3.212  1.00  0.00     0.213 HD
ENDBRANCH   2  36
TORSDOF 8
ENDMDL
MODEL 2
REMARK VINA RESULT:      -8.0      2.235      6.100
REMARK  8 active torsions:
REMARK  status: ('A' for Active; 'I' for Inactive)
REMARK    1  A    between atoms: C_2  and  O_3 
REMARK    2  A    between atoms: O_3  and  C_4 
REMARK    3  A    between atoms: C_4  and  C_5 
REMARK    4  A    between atoms: C_6  and  C_8 
REMARK    5  A    between atoms: C_6  and  O_7 
REMARK    6  A    between atoms: C_16  and  C_17 
REMARK    7  A    between atoms: C_18  and  C_19 
REMARK    8  A    between atoms: N_26  and  C_27 
ROOT
HETATM    1  C   UNL     1      42.246 -13.006   4.862  1.00  0.00     0.177 C 
HETATM    2  C   UNL     1      41.063 -12.130   5.307  1.00  0.00     0.250 C 
HETATM    3  N   UNL     1      41.282 -10.735   4.992  1.00  0.00    -0.303 N 
HETATM    4  C   UNL     1      41.901 -10.321   3.864  1.00  0.00     0.319 C 
HETATM    5  O   UNL     1      41.818  -9.163   3.480  1.00  0.00    -0.247 OA
HETATM    6  N   UNL     1      42.660 -11.227   3.212  1.00  0.00    -0.333 N 
HETATM    7  C   UNL     1      42.704 -12.662   3.445  1.00  0.00     0.142 C 
HETATM    8  H   UNL     1      40.635 -10.054   5.374  1.00  0.00     0.167 HD
HETATM    9  H   UNL     1      43.109 -10.862   2.380  1.00  0.00     0.165 HD
ENDROOT
BRANCH   7  10
HETATM   10  C   UNL     1      41.967 -13.354   2.325  1.00  0.00     0.015 A 
HETATM   11  C   UNL     1      41.871 -14.751   2.034  1.00  0.00     0.097 A 
HETATM   12  N   UNL     1      41.060 -14.975   0.991  1.00  0.00    -0.167 NA
HETATM   13  N   UNL     1      40.639 -13.761   0.576  1.00  0.00    -0.244 N 
HETATM   14  C   UNL     1      41.223 -12.762   1.315  1.00  0.00     0.130 A 
BRANCH  11  15
HETATM   15  C   UNL     1      42.481 -15.885   2.726  1.00  0.00    -0.005 A 
HETATM   16  C   UNL     1      43.247 -16.809   2.001  1.00  0.00     0.014 A 
HETATM   17  C   UNL     1      43.826 -17.908   2.639  1.00  0.00     0.001 A 
HETATM   18  C   UNL     1      43.646 -18.092   4.008  1.00  0.00     0.000 A 
HETATM   19  C   UNL     1      42.895 -17.173   4.741  1.00  0.00     0.001 A 
HETATM   20  C   UNL     1      42.320 -16.069   4.105  1.00  0.00     0.014 A 
ENDBRANCH  11  15
BRANCH  13  21
HETATM   21  C   UNL     1      39.694 -13.628  -0.480  1.00  0.00     0.058 A 
HETATM   22  C   UNL     1      39.592 -14.642  -1.445  1.00  0.00     0.031 A 
HETATM   23  C   UNL     1      38.652 -14.543  -2.473  1.00  0.00     0.002 A 
HETATM   24  C   UNL     1      37.813 -13.433  -2.550  1.00  0.00     0.000 A 
HETATM   25  C   UNL     1      37.912 -12.420  -1.599  1.00  0.00     0.002 A 
HETATM   26  C   UNL     1      38.848 -12.513  -0.564  1.00  0.00     0.031 A 
ENDBRANCH  13  21
ENDBRANCH   7  10
BRANCH   1  27
HETATM   27  C   UNL     1      43.479 -12.904   5.741  1.00  0.00     0.270 C 
HETATM   28  O   UNL     1      43.988 -13.881   6.278  1.00  0.00    -0.265 OA
BRANCH  27  29
HETATM   29  O   UNL     1      43.996 -11.647   5.792  1.00  0.00    -0.321 OA
BRANCH  29  30
HETATM   30  C   UNL     1      45.342 -11.514   6.277  1.00  0.00     0.174 C 
HETATM   31  C   UNL     1      45.325 -10.804   7.616  1.00  0.00     0.034 C 
ENDBRANCH  29  30
ENDBRANCH  27  29
ENDBRANCH   1  27
BRANCH   2  32
HETATM   32  C   UNL     1      39.707 -12.658   4.710  1.00  0.00     0.439 C 
HETATM   33  F   UNL     1      39.794 -13.951   4.323  1.00  0.00    -0.166 F 
HETATM   34  F   UNL     1      38.715 -12.579   5.636  1.00  0.00    -0.166 F 
HETATM   35  F   UNL     1      39.286 -11.937   3.651  1.00  0.00    -0.166 F 
ENDBRANCH   2  32
BRANCH   2  36
HETATM   36  O   UNL     1      40.961 -12.148   6.739  1.00  0.00    -0.363 OA
HETATM   37  H   UNL     1      41.080 -13.084   6.988  1.00  0.00     0.213 HD
ENDBRANCH   2  36
TORSDOF 8
ENDMDL
MODEL 3
REMARK VINA RESULT:      -7.9      3.336      5.950
REMARK  8 active torsions:
REMARK  status: ('A' for Active; 'I' for Inactive)
REMARK    1  A    between atoms: C_2  and  O_3 
REMARK    2  A    between atoms: O_3  and  C_4 
REMARK    3  A    between atoms: C_4  and  C_5 
REMARK    4  A    between atoms: C_6  and  C_8 
REMARK    5  A    between atoms: C_6  and  O_7 
REMARK    6  A    between atoms: C_16  and  C_17 
REMARK    7  A    between atoms: C_18  and  C_19 
REMARK    8  A    between atoms: N_26  and  C_27 
ROOT
HETATM    1  C   UNL     1      41.120 -14.980   3.687  1.00  0.00     0.177 C 
HETATM    2  C   UNL     1      40.852 -15.740   4.996  1.00  0.00     0.250 C 
HETATM    3  N   UNL     1      41.925 -16.658   5.310  1.00  0.00    -0.303 N 
HETATM    4  C   UNL     1      43.227 -16.385   5.070  1.00  0.00     0.319 C 
HETATM    5  O   UNL     1      44.122 -17.029   5.597  1.00  0.00    -0.247 OA
HETATM    6  N   UNL     1      43.493 -15.405   4.178  1.00  0.00    -0.333 N 
HETATM    7  C   UNL     1      42.551 -14.448   3.622  1.00  0.00     0.142 C 
HETATM    8  H   UNL     1      41.782 -17.316   6.069  1.00  0.00     0.167 HD
HETATM    9  H   UNL     1      44.483 -15.248   4.028  1.00  0.00     0.165 HD
ENDROOT
BRANCH   7  10
HETATM   10  C   UNL     1      42.789 -13.106   4.272  1.00  0.00     0.015 A 
HETATM   11  C   UNL     1      42.224 -11.832   3.948  1.00  0.00     0.097 A 
HETATM   12  N   UNL     1      42.630 -10.888   4.808  1.00  0.00    -0.167 NA
HETATM   13  N   UNL     1      43.464 -11.504   5.673  1.00  0.00    -0.244 N 
HETATM   14  C   UNL     1      43.634 -12.824   5.334  1.00  0.00     0.130 A 
BRANCH  11  15
HETATM   15  C   UNL     1      41.284 -11.480   2.885  1.00  0.00    -0.005 A 
HETATM   16  C   UNL     1      41.769 -10.970   1.672  1.00  0.00     0.014 A 
HETATM   17  C   UNL     1      40.888 -10.612   0.649  1.00  0.00     0.001 A 
HETATM   18  C   UNL     1      39.516 -10.764   0.828  1.00  0.00     0.000 A 
HETATM   19  C   UNL     1      39.023 -11.281   2.026  1.00  0.00     0.001 A 
HETATM   20  C   UNL     1      39.903 -11.645   3.049  1.00  0.00     0.014 A 
ENDBRANCH  11  15
BRANCH  13  21
HETATM   21  C   UNL     1      44.028 -10.805   6.778  1.00  0.00     0.058 A 
HETATM   22  C   UNL     1      45.389 -10.971   7.075  1.00  0.00     0.031 A 
HETATM   23  C   UNL     1      45.967 -10.273   8.138  1.00  0.00     0.002 A 
HETATM   24  C   UNL     1      45.194  -9.412   8.913  1.00  0.00     0.000 A 
HETATM   25  C   UNL     1      43.840  -9.247   8.628  1.00  0.00     0.002 A 
HETATM   26  C   UNL     1      43.254  -9.938   7.564  1.00  0.00     0.031 A 
ENDBRANCH  13  21
ENDBRANCH   7  10
BRANCH   1  27
HETATM   27  C   UNL     1      40.915 -15.796   2.424  1.00  0.00     0.270 C 
HETATM   28  O   UNL     1      41.402 -16.911   2.274  1.00  0.00    -0.265 OA
BRANCH  27  29
HETATM   29  O   UNL     1      40.075 -15.203   1.535  1.00  0.00    -0.321 OA
BRANCH  29  30
HETATM   30  C   UNL     1      40.676 -14.420   0.491  1.00  0.00     0.174 C 
HETATM   31  C   UNL     1      39.689 -14.261  -0.649  1.00  0.00     0.034 C 
ENDBRANCH  29  30
ENDBRANCH  27  29
ENDBRANCH   1  27
BRANCH   2  32
HETATM   32  C   UNL     1      40.567 -14.747   6.183  1.00  0.00     0.439 C 
HETATM   33  F   UNL     1      40.078 -13.565   5.746  1.00  0.00    -0.166 F 
HETATM   34  F   UNL     1      39.649 -15.275   7.036  1.00  0.00    -0.166 F 
HETATM   35  F   UNL     1      41.662 -14.493   6.927  1.00  0.00    -0.166 F 
ENDBRANCH   2  32
BRANCH   2  36
HETATM   36  O   UNL     1      39.707 -16.590   4.835  1.00  0.00    -0.363 OA
HETATM   37  H   UNL     1      40.045 -17.383   4.379  1.00  0.00     0.213 HD
ENDBRANCH   2  36
TORSDOF 8
ENDMDL
MODEL 4
REMARK VINA RESULT:      -7.3     16.411     18.755
REMARK  8 active torsions:
REMARK  status: ('A' for Active; 'I' for Inactive)
REMARK    1  A    between atoms: C_2  and  O_3 
REMARK    2  A    between atoms: O_3  and  C_4 
REMARK    3  A    between atoms: C_4  and  C_5 
REMARK    4  A    between atoms: C_6  and  C_8 
REMARK    5  A    between atoms: C_6  and  O_7 
REMARK    6  A    between atoms: C_16  and  C_17 
REMARK    7  A    between atoms: C_18  and  C_19 
REMARK    8  A    between atoms: N_26  and  C_27 
ROOT
HETATM    1  C   UNL     1      46.806 -29.742   1.168  1.00  0.00     0.177 C 
HETATM    2  C   UNL     1      47.801 -28.725   0.586  1.00  0.00     0.250 C 
HETATM    3  N   UNL     1      49.099 -29.320   0.354  1.00  0.00    -0.303 N 
HETATM    4  C   UNL     1      49.264 -30.587  -0.083  1.00  0.00     0.319 C 
HETATM    5  O   UNL     1      50.330 -30.970  -0.545  1.00  0.00    -0.247 OA
HETATM    6  N   UNL     1      48.217 -31.428   0.064  1.00  0.00    -0.333 N 
HETATM    7  C   UNL     1      46.853 -31.073   0.419  1.00  0.00     0.142 C 
HETATM    8  H   UNL     1      49.869 -28.703   0.114  1.00  0.00     0.167 HD
HETATM    9  H   UNL     1      48.398 -32.368  -0.272  1.00  0.00     0.165 HD
ENDROOT
BRANCH   7  10
HETATM   10  C   UNL     1      45.993 -31.169  -0.818  1.00  0.00     0.015 A 
HETATM   11  C   UNL     1      44.577 -31.008  -0.949  1.00  0.00     0.097 A 
HETATM   12  N   UNL     1      44.196 -31.095  -2.230  1.00  0.00    -0.167 NA
HETATM   13  N   UNL     1      45.319 -31.331  -2.940  1.00  0.00    -0.244 N 
HETATM   14  C   UNL     1      46.407 -31.450  -2.111  1.00  0.00     0.130 A 
BRANCH  11  15
HETATM   15  C   UNL     1      43.578 -30.735   0.082  1.00  0.00    -0.005 A 
HETATM   16  C   UNL     1      43.253 -29.406   0.397  1.00  0.00     0.014 A 
HETATM   17  C   UNL     1      42.313 -29.121   1.389  1.00  0.00     0.001 A 
HETATM   18  C   UNL     1      41.687 -30.160   2.073  1.00  0.00     0.000 A 
HETATM   19  C   UNL     1      41.993 -31.484   1.760  1.00  0.00     0.001 A 
HETATM   20  C   UNL     1      42.931 -31.772   0.764  1.00  0.00     0.014 A 
ENDBRANCH  11  15
BRANCH  13  21
HETATM   21  C   UNL     1      45.292 -31.407  -4.362  1.00  0.00     0.058 A 
HETATM   22  C   UNL     1      46.406 -31.918  -5.046  1.00  0.00     0.031 A 
HETATM   23  C   UNL     1      46.387 -32.026  -6.438  1.00  0.00     0.002 A 
HETATM   24  C   UNL     1      45.264 -31.621  -7.157  1.00  0.00     0.000 A 
HETATM   25  C   UNL     1      44.157 -31.108  -6.485  1.00  0.00     0.002 A 
HETATM   26  C   UNL     1      44.165 -30.999  -5.091  1.00  0.00     0.031 A 
ENDBRANCH  13  21
ENDBRANCH   7  10
BRANCH   1  27
HETATM   27  C   UNL     1      47.019 -30.073   2.633  1.00  0.00     0.270 C 
HETATM   28  O   UNL     1      46.142 -29.926   3.477  1.00  0.00    -0.265 OA
BRANCH  27  29
HETATM   29  O   UNL     1      48.236 -30.624   2.884  1.00  0.00    -0.321 OA
BRANCH  29  30
HETATM   30  C   UNL     1      48.988 -30.077   3.980  1.00  0.00     0.174 C 
HETATM   31  C   UNL     1      50.468 -30.155   3.662  1.00  0.00     0.034 C 
ENDBRANCH  29  30
ENDBRANCH  27  29
ENDBRANCH   1  27
BRANCH   2  32
HETATM   32  C   UNL     1      47.229 -28.047  -0.713  1.00  0.00     0.439 C 
HETATM   33  F   UNL     1      45.882 -27.938  -0.675  1.00  0.00    -0.166 F 
HETATM   34  F   UNL     1      47.733 -26.793  -0.859  1.00  0.00    -0.166 F 
HETATM   35  F   UNL     1      47.558 -28.712  -1.839  1.00  0.00    -0.166 F 
ENDBRANCH   2  32
BRANCH   2  36
HETATM   36  O   UNL     1      48.061 -27.696   1.553  1.00  0.00    -0.363 OA
HETATM   37  H   UNL     1      48.710 -28.088   2.168  1.00  0.00     0.213 HD
ENDBRANCH   2  36
TORSDOF 8
ENDMDL
MODEL 5
REMARK VINA RESULT:      -7.2      3.500      6.397
REMARK  8 active torsions:
REMARK  status: ('A' for Active; 'I' for Inactive)
REMARK    1  A    between atoms: C_2  and  O_3 
REMARK    2  A    between atoms: O_3  and  C_4 
REMARK    3  A    between atoms: C_4  and  C_5 
REMARK    4  A    between atoms: C_6  and  C_8 
REMARK    5  A    between atoms: C_6  and  O_7 
REMARK    6  A    between atoms: C_16  and  C_17 
REMARK    7  A    between atoms: C_18  and  C_19 
REMARK    8  A    between atoms: N_26  and  C_27 
ROOT
HETATM    1  C   UNL     1      41.195  -9.310   5.827  1.00  0.00     0.177 C 
HETATM    2  C   UNL     1      39.737  -9.703   5.540  1.00  0.00     0.250 C 
HETATM    3  N   UNL     1      39.315  -9.271   4.225  1.00  0.00    -0.303 N 
HETATM    4  C   UNL     1      40.128  -9.286   3.146  1.00  0.00     0.319 C 
HETATM    5  O   UNL     1      39.683  -9.199   2.010  1.00  0.00    -0.247 OA
HETATM    6  N   UNL     1      41.457  -9.344   3.380  1.00  0.00    -0.333 N 
HETATM    7  C   UNL     1      42.111  -9.631   4.647  1.00  0.00     0.142 C 
HETATM    8  H   UNL     1      38.330  -9.346   3.993  1.00  0.00     0.167 HD
HETATM    9  H   UNL     1      42.021  -9.343   2.538  1.00  0.00     0.165 HD
ENDROOT
BRANCH   7  10
HETATM   10  C   UNL     1      42.659 -11.037   4.597  1.00  0.00     0.015 A 
HETATM   11  C   UNL     1      43.560 -11.688   5.498  1.00  0.00     0.097 A 
HETATM   12  N   UNL     1      43.751 -12.968   5.152  1.00  0.00    -0.167 NA
HETATM   13  N   UNL     1      43.019 -13.168   4.036  1.00  0.00    -0.244 N 
HETATM   14  C   UNL     1      42.406 -12.005   3.638  1.00  0.00     0.130 A 
BRANCH  11  15
HETATM   15  C   UNL     1      44.212 -11.162   6.695  1.00  0.00    -0.005 A 
HETATM   16  C   UNL     1      43.460 -10.958   7.862  1.00  0.00     0.014 A 
HETATM   17  C   UNL     1      44.059 -10.441   9.012  1.00  0.00     0.001 A 
HETATM   18  C   UNL     1      45.415 -10.126   9.008  1.00  0.00     0.000 A 
HETATM   19  C   UNL     1      46.176 -10.335   7.858  1.00  0.00     0.001 A 
HETATM   20  C   UNL     1      45.579 -10.858   6.707  1.00  0.00     0.014 A 
ENDBRANCH  11  15
BRANCH  13  21
HETATM   21  C   UNL     1      42.930 -14.454   3.431  1.00  0.00     0.058 A 
HETATM   22  C   UNL     1      42.498 -15.547   4.197  1.00  0.00     0.031 A 
HETATM   23  C   UNL     1      42.379 -16.811   3.614  1.00  0.00     0.002 A 
HETATM   24  C   UNL     1      42.693 -16.994   2.269  1.00  0.00     0.000 A 
HETATM   25  C   UNL     1      43.127 -15.915   1.504  1.00  0.00     0.002 A 
HETATM   26  C   UNL     1      43.247 -14.645   2.078  1.00  0.00     0.031 A 
ENDBRANCH  13  21
ENDBRANCH   7  10
BRANCH   1  27
HETATM   27  C   UNL     1      41.408  -7.840   6.139  1.00  0.00     0.270 C 
HETATM   28  O   UNL     1      40.695  -6.958   5.676  1.00  0.00    -0.265 OA
BRANCH  27  29
HETATM   29  O   UNL     1      42.402  -7.625   7.042  1.00  0.00    -0.321 OA
BRANCH  29  30
HETATM   30  C   UNL     1      42.007  -7.236   8.368  1.00  0.00     0.174 C 
HETATM   31  C   UNL     1      43.231  -6.798   9.148  1.00  0.00     0.034 C 
ENDBRANCH  29  30
ENDBRANCH  27  29
ENDBRANCH   1  27
BRANCH   2  32
HETATM   32  C   UNL     1      39.511 -11.246   5.748  1.00  0.00     0.439 C 
HETATM   33  F   UNL     1      40.477 -11.799   6.515  1.00  0.00    -0.166 F 
HETATM   34  F   UNL     1      38.322 -11.475   6.367  1.00  0.00    -0.166 F 
HETATM   35  F   UNL     1      39.463 -11.929   4.586  1.00  0.00    -0.166 F 
ENDBRANCH   2  32
BRANCH   2  36
HETATM   36  O   UNL     1      38.862  -8.996   6.432  1.00  0.00    -0.363 OA
HETATM   37  H   UNL     1      39.084  -8.053   6.307  1.00  0.00     0.213 HD
ENDBRANCH   2  36
TORSDOF 8
ENDMDL
MODEL 6
REMARK VINA RESULT:      -7.2      8.879     11.553
REMARK  8 active torsions:
REMARK  status: ('A' for Active; 'I' for Inactive)
REMARK    1  A    between atoms: C_2  and  O_3 
REMARK    2  A    between atoms: O_3  and  C_4 
REMARK    3  A    between atoms: C_4  and  C_5 
REMARK    4  A    between atoms: C_6  and  C_8 
REMARK    5  A    between atoms: C_6  and  O_7 
REMARK    6  A    between atoms: C_16  and  C_17 
REMARK    7  A    between atoms: C_18  and  C_19 
REMARK    8  A    between atoms: N_26  and  C_27 
ROOT
HETATM    1  C   UNL     1      40.323  -6.879  12.810  1.00  0.00     0.177 C 
HETATM    2  C   UNL     1      41.116  -7.567  13.934  1.00  0.00     0.250 C 
HETATM    3  N   UNL     1      40.640  -8.912  14.176  1.00  0.00    -0.303 N 
HETATM    4  C   UNL     1      40.221  -9.737  13.192  1.00  0.00     0.319 C 
HETATM    5  O   UNL     1      40.105 -10.941  13.374  1.00  0.00    -0.247 OA
HETATM    6  N   UNL     1      39.884  -9.166  12.015  1.00  0.00    -0.333 N 
HETATM    7  C   UNL     1      40.141  -7.796  11.601  1.00  0.00     0.142 C 
HETATM    8  H   UNL     1      40.992  -9.400  14.994  1.00  0.00     0.167 HD
HETATM    9  H   UNL     1      39.568  -9.828  11.316  1.00  0.00     0.165 HD
ENDROOT
BRANCH   7  10
HETATM   10  C   UNL     1      41.268  -7.801  10.597  1.00  0.00     0.015 A 
HETATM   11  C   UNL     1      41.855  -6.703   9.893  1.00  0.00     0.097 A 
HETATM   12  N   UNL     1      42.888  -7.106   9.140  1.00  0.00    -0.167 NA
HETATM   13  N   UNL     1      42.980  -8.441   9.314  1.00  0.00    -0.244 N 
HETATM   14  C   UNL     1      41.975  -8.899  10.131  1.00  0.00     0.130 A 
BRANCH  11  15
HETATM   15  C   UNL     1      41.506  -5.284   9.934  1.00  0.00    -0.005 A 
HETATM   16  C   UNL     1      40.269  -4.859   9.427  1.00  0.00     0.014 A 
HETATM   17  C   UNL     1      39.922  -3.507   9.442  1.00  0.00     0.001 A 
HETATM   18  C   UNL     1      40.806  -2.568   9.967  1.00  0.00     0.000 A 
HETATM   19  C   UNL     1      42.033  -2.980  10.484  1.00  0.00     0.001 A 
HETATM   20  C   UNL     1      42.381  -4.334  10.475  1.00  0.00     0.014 A 
ENDBRANCH  11  15
BRANCH  13  21
HETATM   21  C   UNL     1      44.028  -9.194   8.712  1.00  0.00     0.058 A 
HETATM   22  C   UNL     1      45.297  -8.614   8.566  1.00  0.00     0.031 A 
HETATM   23  C   UNL     1      46.344  -9.346   8.003  1.00  0.00     0.002 A 
HETATM   24  C   UNL     1      46.133 -10.656   7.578  1.00  0.00     0.000 A 
HETATM   25  C   UNL     1      44.875 -11.237   7.714  1.00  0.00     0.002 A 
HETATM   26  C   UNL     1      43.821 -10.513   8.280  1.00  0.00     0.031 A 
ENDBRANCH  13  21
ENDBRANCH   7  10
BRANCH   1  27
HETATM   27  C   UNL     1      38.933  -6.417  13.203  1.00  0.00     0.270 C 
HETATM   28  O   UNL     1      37.940  -7.123  13.068  1.00  0.00    -0.265 OA
BRANCH  27  29
HETATM   29  O   UNL     1      38.925  -5.191  13.793  1.00  0.00    -0.321 OA
BRANCH  29  30
HETATM   30  C   UNL     1      39.573  -4.122  13.086  1.00  0.00     0.174 C 
HETATM   31  C   UNL     1      40.634  -3.503  13.976  1.00  0.00     0.034 C 
ENDBRANCH  29  30
ENDBRANCH  27  29
ENDBRANCH   1  27
BRANCH   2  32
HETATM   32  C   UNL     1      42.661  -7.537  13.642  1.00  0.00     0.439 C 
HETATM   33  F   UNL     1      42.992  -6.559  12.770  1.00  0.00    -0.166 F 
HETATM   34  F   UNL     1      43.358  -7.312  14.787  1.00  0.00    -0.166 F 
HETATM   35  F   UNL     1      43.123  -8.705  13.149  1.00  0.00    -0.166 F 
ENDBRANCH   2  32
BRANCH   2  36
HETATM   36  O   UNL     1      40.879  -6.889  15.176  1.00  0.00    -0.363 OA
HETATM   37  H   UNL     1      40.261  -7.466  15.664  1.00  0.00     0.213 HD
ENDBRANCH   2  36
TORSDOF 8
ENDMDL
MODEL 7
REMARK VINA RESULT:      -7.0      2.610      5.613
REMARK  8 active torsions:
REMARK  status: ('A' for Active; 'I' for Inactive)
REMARK    1  A    between atoms: C_2  and  O_3 
REMARK    2  A    between atoms: O_3  and  C_4 
REMARK    3  A    between atoms: C_4  and  C_5 
REMARK    4  A    between atoms: C_6  and  C_8 
REMARK    5  A    between atoms: C_6  and  O_7 
REMARK    6  A    between atoms: C_16  and  C_17 
REMARK    7  A    between atoms: C_18  and  C_19 
REMARK    8  A    between atoms: N_26  and  C_27 
ROOT
HETATM    1  C   UNL     1      40.210 -12.779   0.598  1.00  0.00     0.177 C 
HETATM    2  C   UNL     1      40.249 -11.310   0.146  1.00  0.00     0.250 C 
HETATM    3  N   UNL     1      38.945 -10.689   0.233  1.00  0.00    -0.303 N 
HETATM    4  C   UNL     1      38.065 -10.953   1.224  1.00  0.00     0.319 C 
HETATM    5  O   UNL     1      37.111 -10.220   1.442  1.00  0.00    -0.247 OA
HETATM    6  N   UNL     1      38.255 -12.092   1.925  1.00  0.00    -0.333 N 
HETATM    7  C   UNL     1      39.428 -12.950   1.900  1.00  0.00     0.142 C 
HETATM    8  H   UNL     1      38.827  -9.770  -0.181  1.00  0.00     0.167 HD
HETATM    9  H   UNL     1      37.562 -12.246   2.649  1.00  0.00     0.165 HD
ENDROOT
BRANCH   7  10
HETATM   10  C   UNL     1      40.208 -12.736   3.174  1.00  0.00     0.015 A 
HETATM   11  C   UNL     1      41.303 -13.492   3.701  1.00  0.00     0.097 A 
HETATM   12  N   UNL     1      41.777 -12.939   4.826  1.00  0.00    -0.167 NA
HETATM   13  N   UNL     1      41.007 -11.856   5.065  1.00  0.00    -0.244 N 
HETATM   14  C   UNL     1      40.011 -11.748   4.126  1.00  0.00     0.130 A 
BRANCH  11  15
HETATM   15  C   UNL     1      41.947 -14.688   3.161  1.00  0.00    -0.005 A 
HETATM   16  C   UNL     1      42.946 -14.557   2.185  1.00  0.00     0.014 A 
HETATM   17  C   UNL     1      43.563 -15.686   1.644  1.00  0.00     0.001 A 
HETATM   18  C   UNL     1      43.189 -16.956   2.075  1.00  0.00     0.000 A 
HETATM   19  C   UNL     1      42.206 -17.098   3.054  1.00  0.00     0.001 A 
HETATM   20  C   UNL     1      41.590 -15.969   3.601  1.00  0.00     0.014 A 
ENDBRANCH  11  15
BRANCH  13  21
HETATM   21  C   UNL     1      41.280 -10.982   6.154  1.00  0.00     0.058 A 
HETATM   22  C   UNL     1      40.218 -10.320   6.790  1.00  0.00     0.031 A 
HETATM   23  C   UNL     1      40.463  -9.480   7.878  1.00  0.00     0.002 A 
HETATM   24  C   UNL     1      41.765  -9.290   8.336  1.00  0.00     0.000 A 
HETATM   25  C   UNL     1      42.825  -9.939   7.708  1.00  0.00     0.002 A 
HETATM   26  C   UNL     1      42.589 -10.784   6.619  1.00  0.00     0.031 A 
ENDBRANCH  13  21
ENDBRANCH   7  10
BRANCH   1  27
HETATM   27  C   UNL     1      39.585 -13.735  -0.400  1.00  0.00     0.270 C 
HETATM   28  O   UNL     1      39.903 -14.917  -0.469  1.00  0.00    -0.265 OA
BRANCH  27  29
HETATM   29  O   UNL     1      38.590 -13.167  -1.132  1.00  0.00    -0.321 OA
BRANCH  29  30
HETATM   30  C   UNL     1      38.294 -13.763  -2.406  1.00  0.00     0.174 C 
HETATM   31  C   UNL     1      36.952 -13.257  -2.897  1.00  0.00     0.034 C 
ENDBRANCH  29  30
ENDBRANCH  27  29
ENDBRANCH   1  27
BRANCH   2  32
HETATM   32  C   UNL     1      41.337 -10.497   0.940  1.00  0.00     0.439 C 
HETATM   33  F   UNL     1      40.789  -9.743   1.919  1.00  0.00    -0.166 F 
HETATM   34  F   UNL     1      42.228 -11.340   1.527  1.00  0.00    -0.166 F 
HETATM   35  F   UNL     1      42.063  -9.683   0.147  1.00  0.00    -0.166 F 
ENDBRANCH   2  32
BRANCH   2  36
HETATM   36  O   UNL     1      40.569 -11.243  -1.252  1.00  0.00    -0.363 OA
HETATM   37  H   UNL     1      40.352 -12.128  -1.602  1.00  0.00     0.213 HD
ENDBRANCH   2  36
TORSDOF 8
ENDMDL
MODEL 8
REMARK VINA RESULT:      -7.0     16.451     18.871
REMARK  8 active torsions:
REMARK  status: ('A' for Active; 'I' for Inactive)
REMARK    1  A    between atoms: C_2  and  O_3 
REMARK    2  A    between atoms: O_3  and  C_4 
REMARK    3  A    between atoms: C_4  and  C_5 
REMARK    4  A    between atoms: C_6  and  C_8 
REMARK    5  A    between atoms: C_6  and  O_7 
REMARK    6  A    between atoms: C_16  and  C_17 
REMARK    7  A    between atoms: C_18  and  C_19 
REMARK    8  A    between atoms: N_26  and  C_27 
ROOT
HETATM    1  C   UNL     1      47.680 -29.513  -0.594  1.00  0.00     0.177 C 
HETATM    2  C   UNL     1      46.738 -28.810  -1.586  1.00  0.00     0.250 C 
HETATM    3  N   UNL     1      46.398 -29.669  -2.700  1.00  0.00    -0.303 N 
HETATM    4  C   UNL     1      46.198 -30.999  -2.574  1.00  0.00     0.319 C 
HETATM    5  O   UNL     1      45.636 -31.646  -3.447  1.00  0.00    -0.247 OA
HETATM    6  N   UNL     1      46.695 -31.592  -1.467  1.00  0.00    -0.333 N 
HETATM    7  C   UNL     1      47.214 -30.933  -0.279  1.00  0.00     0.142 C 
HETATM    8  H   UNL     1      45.905 -29.256  -3.485  1.00  0.00     0.167 HD
HETATM    9  H   UNL     1      46.525 -32.591  -1.427  1.00  0.00     0.165 HD
ENDROOT
BRANCH   7  10
HETATM   10  C   UNL     1      46.197 -31.067   0.828  1.00  0.00     0.015 A 
HETATM   11  C   UNL     1      46.362 -30.869   2.236  1.00  0.00     0.097 A 
HETATM   12  N   UNL     1      45.199 -31.011   2.885  1.00  0.00    -0.167 NA
HETATM   13  N   UNL     1      44.280 -31.319   1.945  1.00  0.00    -0.244 N 
HETATM   14  C   UNL     1      44.864 -31.428   0.707  1.00  0.00     0.130 A 
BRANCH  11  15
HETATM   15  C   UNL     1      47.564 -30.511   2.985  1.00  0.00    -0.005 A 
HETATM   16  C   UNL     1      48.040 -29.191   2.942  1.00  0.00     0.014 A 
HETATM   17  C   UNL     1      49.196 -28.830   3.638  1.00  0.00     0.001 A 
HETATM   18  C   UNL     1      49.885 -29.783   4.383  1.00  0.00     0.000 A 
HETATM   19  C   UNL     1      49.415 -31.094   4.442  1.00  0.00     0.001 A 
HETATM   20  C   UNL     1      48.255 -31.457   3.751  1.00  0.00     0.014 A 
ENDBRANCH  11  15
BRANCH  13  21
HETATM   21  C   UNL     1      42.904 -31.468   2.279  1.00  0.00     0.058 A 
HETATM   22  C   UNL     1      42.068 -32.216   1.435  1.00  0.00     0.031 A 
HETATM   23  C   UNL     1      40.721 -32.396   1.760  1.00  0.00     0.002 A 
HETATM   24  C   UNL     1      40.199 -31.830   2.921  1.00  0.00     0.000 A 
HETATM   25  C   UNL     1      41.021 -31.082   3.760  1.00  0.00     0.002 A 
HETATM   26  C   UNL     1      42.371 -30.899   3.445  1.00  0.00     0.031 A 
ENDBRANCH  13  21
ENDBRANCH   7  10
BRANCH   1  27
HETATM   27  C   UNL     1      49.119 -29.634  -1.061  1.00  0.00     0.270 C 
HETATM   28  O   UNL     1      49.432 -29.612  -2.246  1.00  0.00    -0.265 OA
BRANCH  27  29
HETATM   29  O   UNL     1      50.011 -29.677  -0.035  1.00  0.00    -0.321 OA
BRANCH  29  30
HETATM   30  C   UNL     1      51.014 -30.705  -0.085  1.00  0.00     0.174 C 
HETATM   31  C   UNL     1      50.845 -31.628   1.106  1.00  0.00     0.034 C 
ENDBRANCH  29  30
ENDBRANCH  27  29
ENDBRANCH   1  27
BRANCH   2  32
HETATM   32  C   UNL     1      45.456 -28.259  -0.861  1.00  0.00     0.439 C 
HETATM   33  F   UNL     1      44.404 -29.100  -0.984  1.00  0.00    -0.166 F 
HETATM   34  F   UNL     1      45.691 -28.097   0.468  1.00  0.00    -0.166 F 
HETATM   35  F   UNL     1      45.074 -27.050  -1.320  1.00  0.00    -0.166 F 
ENDBRANCH   2  32
BRANCH   2  36
HETATM   36  O   UNL     1      47.419 -27.705  -2.198  1.00  0.00    -0.363 OA
HETATM   37  H   UNL     1      46.786 -27.351  -2.852  1.00  0.00     0.213 HD
ENDBRANCH   2  36
TORSDOF 8
ENDMDL
MODEL 9
REMARK VINA RESULT:      -6.9      6.451      9.782
REMARK  8 active torsions:
REMARK  status: ('A' for Active; 'I' for Inactive)
REMARK    1  A    between atoms: C_2  and  O_3 
REMARK    2  A    between atoms: O_3  and  C_4 
REMARK    3  A    between atoms: C_4  and  C_5 
REMARK    4  A    between atoms: C_6  and  C_8 
REMARK    5  A    between atoms: C_6  and  O_7 
REMARK    6  A    between atoms: C_16  and  C_17 
REMARK    7  A    between atoms: C_18  and  C_19 
REMARK    8  A    between atoms: N_26  and  C_27 
ROOT
HETATM    1  C   UNL     1      41.761  -8.556   7.034  1.00  0.00     0.177 C 
HETATM    2  C   UNL     1      41.292  -7.093   6.988  1.00  0.00     0.250 C 
HETATM    3  N   UNL     1      39.860  -6.985   7.164  1.00  0.00    -0.303 N 
HETATM    4  C   UNL     1      39.156  -7.779   8.001  1.00  0.00     0.319 C 
HETATM    5  O   UNL     1      38.021  -7.488   8.352  1.00  0.00    -0.247 OA
HETATM    6  N   UNL     1      39.740  -8.934   8.386  1.00  0.00    -0.333 N 
HETATM    7  C   UNL     1      41.130  -9.317   8.199  1.00  0.00     0.142 C 
HETATM    8  H   UNL     1      39.427  -6.081   7.002  1.00  0.00     0.167 HD
HETATM    9  H   UNL     1      39.166  -9.496   9.004  1.00  0.00     0.165 HD
ENDROOT
BRANCH   7  10
HETATM   10  C   UNL     1      41.841  -9.206   9.525  1.00  0.00     0.015 A 
HETATM   11  C   UNL     1      43.223  -9.422   9.831  1.00  0.00     0.097 A 
HETATM   12  N   UNL     1      43.483  -9.151  11.117  1.00  0.00    -0.167 NA
HETATM   13  N   UNL     1      42.307  -8.785  11.669  1.00  0.00    -0.244 N 
HETATM   14  C   UNL     1      41.288  -8.876  10.753  1.00  0.00     0.130 A 
BRANCH  11  15
HETATM   15  C   UNL     1      44.312  -9.833   8.948  1.00  0.00    -0.005 A 
HETATM   16  C   UNL     1      44.193 -11.017   8.204  1.00  0.00     0.014 A 
HETATM   17  C   UNL     1      45.228 -11.437   7.366  1.00  0.00     0.001 A 
HETATM   18  C   UNL     1      46.390 -10.678   7.262  1.00  0.00     0.000 A 
HETATM   19  C   UNL     1      46.515  -9.493   7.987  1.00  0.00     0.001 A 
HETATM   20  C   UNL     1      45.477  -9.067   8.822  1.00  0.00     0.014 A 
ENDBRANCH  11  15
BRANCH  13  21
HETATM   21  C   UNL     1      42.229  -8.352  13.023  1.00  0.00     0.058 A 
HETATM   22  C   UNL     1      43.134  -7.387  13.491  1.00  0.00     0.031 A 
HETATM   23  C   UNL     1      43.056  -6.930  14.808  1.00  0.00     0.002 A 
HETATM   24  C   UNL     1      42.081  -7.434  15.667  1.00  0.00     0.000 A 
HETATM   25  C   UNL     1      41.183  -8.396  15.211  1.00  0.00     0.002 A 
HETATM   26  C   UNL     1      41.252  -8.857  13.893  1.00  0.00     0.031 A 
ENDBRANCH  13  21
ENDBRANCH   7  10
BRANCH   1  27
HETATM   27  C   UNL     1      41.452  -9.362   5.786  1.00  0.00     0.270 C 
HETATM   28  O   UNL     1      41.888  -9.060   4.681  1.00  0.00    -0.265 OA
BRANCH  27  29
HETATM   29  O   UNL     1      40.728 -10.484   6.041  1.00  0.00    -0.321 OA
BRANCH  29  30
HETATM   30  C   UNL     1      40.858 -11.572   5.110  1.00  0.00     0.174 C 
HETATM   31  C   UNL     1      41.494 -12.757   5.810  1.00  0.00     0.034 C 
ENDBRANCH  29  30
ENDBRANCH  27  29
ENDBRANCH   1  27
BRANCH   2  32
HETATM   32  C   UNL     1      42.077  -6.210   8.026  1.00  0.00     0.439 C 
HETATM   33  F   UNL     1      43.329  -6.672   8.238  1.00  0.00    -0.166 F 
HETATM   34  F   UNL     1      42.188  -4.931   7.578  1.00  0.00    -0.166 F 
HETATM   35  F   UNL     1      41.456  -6.132   9.221  1.00  0.00    -0.166 F 
ENDBRANCH   2  32
BRANCH   2  36
HETATM   36  O   UNL     1      41.519  -6.554   5.677  1.00  0.00    -0.363 OA
HETATM   37  H   UNL     1      42.079  -7.215   5.227  1.00  0.00     0.213 HD
ENDBRANCH   2  36
TORSDOF 8
ENDMDL
MODEL 10
REMARK VINA RESULT:      -6.8      8.323     11.679
REMARK  8 active torsions:
REMARK  status: ('A' for Active; 'I' for Inactive)
REMARK    1  A    between atoms: C_2  and  O_3 
REMARK    2  A    between atoms: O_3  and  C_4 
REMARK    3  A    between atoms: C_4  and  C_5 
REMARK    4  A    between atoms: C_6  and  C_8 
REMARK    5  A    between atoms: C_6  and  O_7 
REMARK    6  A    between atoms: C_16  and  C_17 
REMARK    7  A    between atoms: C_18  and  C_19 
REMARK    8  A    between atoms: N_26  and  C_27 
ROOT
HETATM    1  C   UNL     1      40.517  -5.600  11.164  1.00  0.00     0.177 C 
HETATM    2  C   UNL     1      39.559  -5.873   9.994  1.00  0.00     0.250 C 
HETATM    3  N   UNL     1      39.820  -4.995   8.873  1.00  0.00    -0.303 N 
HETATM    4  C   UNL     1      41.063  -4.611   8.509  1.00  0.00     0.319 C 
HETATM    5  O   UNL     1      41.284  -4.121   7.411  1.00  0.00    -0.247 OA
HETATM    6  N   UNL     1      42.040  -4.740   9.433  1.00  0.00    -0.333 N 
HETATM    7  C   UNL     1      41.964  -5.463  10.692  1.00  0.00     0.142 C 
HETATM    8  H   UNL     1      39.153  -4.988   8.109  1.00  0.00     0.167 HD
HETATM    9  H   UNL     1      42.950  -4.428   9.112  1.00  0.00     0.165 HD
ENDROOT
BRANCH   7  10
HETATM   10  C   UNL     1      42.741  -6.750  10.555  1.00  0.00     0.015 A 
HETATM   11  C   UNL     1      42.973  -7.773  11.529  1.00  0.00     0.097 A 
HETATM   12  N   UNL     1      43.652  -8.800  11.000  1.00  0.00    -0.167 NA
HETATM   13  N   UNL     1      43.890  -8.469   9.713  1.00  0.00    -0.244 N 
HETATM   14  C   UNL     1      43.415  -7.211   9.435  1.00  0.00     0.130 A 
BRANCH  11  15
HETATM   15  C   UNL     1      42.544  -7.837  12.924  1.00  0.00    -0.005 A 
HETATM   16  C   UNL     1      43.061  -6.920  13.851  1.00  0.00     0.014 A 
HETATM   17  C   UNL     1      42.678  -6.972  15.193  1.00  0.00     0.001 A 
HETATM   18  C   UNL     1      41.772  -7.940  15.619  1.00  0.00     0.000 A 
HETATM   19  C   UNL     1      41.242  -8.849  14.705  1.00  0.00     0.001 A 
HETATM   20  C   UNL     1      41.621  -8.795  13.360  1.00  0.00     0.014 A 
ENDBRANCH  11  15
BRANCH  13  21
HETATM   21  C   UNL     1      44.534  -9.376   8.824  1.00  0.00     0.058 A 
HETATM   22  C   UNL     1      43.801 -10.437   8.272  1.00  0.00     0.031 A 
HETATM   23  C   UNL     1      44.408 -11.321   7.377  1.00  0.00     0.002 A 
HETATM   24  C   UNL     1      45.747 -11.157   7.030  1.00  0.00     0.000 A 
HETATM   25  C   UNL     1      46.483 -10.109   7.578  1.00  0.00     0.002 A 
HETATM   26  C   UNL     1      45.883  -9.217   8.473  1.00  0.00     0.031 A 
ENDBRANCH  13  21
ENDBRANCH   7  10
BRANCH   1  27
HETATM   27  C   UNL     1      40.211  -4.343  11.957  1.00  0.00     0.270 C 
HETATM   28  O   UNL     1      39.983  -3.264  11.421  1.00  0.00    -0.265 OA
BRANCH  27  29
HETATM   29  O   UNL     1      40.130  -4.563  13.297  1.00  0.00    -0.321 OA
BRANCH  29  30
HETATM   30  C   UNL     1      39.429  -5.742  13.724  1.00  0.00     0.174 C 
HETATM   31  C   UNL     1      37.971  -5.401  13.961  1.00  0.00     0.034 C 
ENDBRANCH  29  30
ENDBRANCH  27  29
ENDBRANCH   1  27
BRANCH   2  32
HETATM   32  C   UNL     1      39.593  -7.387   9.570  1.00  0.00     0.439 C 
HETATM   33  F   UNL     1      40.484  -7.614   8.579  1.00  0.00    -0.166 F 
HETATM   34  F   UNL     1      39.951  -8.169  10.623  1.00  0.00    -0.166 F 
HETATM   35  F   UNL     1      38.392  -7.843   9.160  1.00  0.00    -0.166 F 
ENDBRANCH   2  32
BRANCH   2  36
HETATM   36  O   UNL     1      38.217  -5.545  10.382  1.00  0.00    -0.363 OA
HETATM   37  H   UNL     1      38.283  -5.281  11.319  1.00  0.00     0.213 HD
ENDBRANCH   2  36
TORSDOF 8
ENDMDL
