MODEL 1
REMARK VINA RESULT:      -7.7      0.000      0.000
REMARK  10 active torsions:
REMARK  status: ('A' for Active; 'I' for Inactive)
REMARK    1  A    between atoms: C_3  and  N_4 
REMARK    2  A    between atoms: C_5  and  S_6 
REMARK    3  A    between atoms: S_6  and  C_7 
REMARK    4  A    between atoms: C_7  and  C_8 
REMARK       I    between atoms: C_8  and  N_9 
REMARK    5  A    between atoms: N_9  and  C_10 
REMARK    6  A    between atoms: C_10  and  C_11 
REMARK    7  A    between atoms: C_11  and  C_12 
REMARK    8  A    between atoms: C_14  and  O_15 
REMARK    9  A    between atoms: C_17  and  O_18 
REMARK   10  A    between atoms: C_26  and  N_27 
ROOT
HETATM    1  N   UNL     1      42.460 -11.667   6.220  1.00  0.00    -0.275 N 
HETATM    2  C   UNL     1      42.153 -13.049   6.114  1.00  0.00     0.177 A 
HETATM    3  N   UNL     1      41.120 -13.564   5.493  1.00  0.00    -0.204 NA
HETATM    4  C   UNL     1      40.341 -12.642   4.882  1.00  0.00     0.162 A 
HETATM    5  C   UNL     1      40.473 -11.282   4.845  1.00  0.00     0.081 A 
HETATM    6  C   UNL     1      41.582 -10.717   5.554  1.00  0.00     0.124 A 
HETATM    7  N   UNL     1      39.232 -12.917   4.139  1.00  0.00    -0.260 N 
HETATM    8  H   UNL     1      38.830 -13.825   3.938  1.00  0.00     0.191 HD
HETATM    9  N   UNL     1      38.643 -11.808   3.638  1.00  0.00    -0.177 NA
HETATM   10  C   UNL     1      39.412 -10.794   4.066  1.00  0.00     0.068 A 
HETATM   11  C   UNL     1      39.065  -9.405   3.686  1.00  0.00     0.073 C 
ENDROOT
BRANCH   2  12
HETATM   12  S   UNL     1      43.189 -14.243   6.923  1.00  0.00    -0.082 SA
BRANCH  12  13
HETATM   13  C   UNL     1      42.836 -15.703   5.907  1.00  0.00     0.185 C 
BRANCH  13  14
HETATM   14  C   UNL     1      44.071 -16.570   5.694  1.00  0.00     0.227 C 
HETATM   15  N   UNL     1      44.073 -17.415   4.613  1.00  0.00    -0.360 N 
HETATM   16  H   UNL     1      44.907 -17.990   4.544  1.00  0.00     0.162 HD
HETATM   17  O   UNL     1      45.070 -16.533   6.416  1.00  0.00    -0.273 OA
BRANCH  15  18
HETATM   18  C   UNL     1      43.010 -17.602   3.637  1.00  0.00     0.127 C 
BRANCH  18  19
HETATM   19  C   UNL     1      43.350 -17.042   2.252  1.00  0.00     0.058 C 
BRANCH  19  20
HETATM   20  C   UNL     1      42.749 -15.681   1.975  1.00  0.00    -0.054 A 
HETATM   21  C   UNL     1      41.542 -15.550   1.271  1.00  0.00     0.046 A 
HETATM   22  C   UNL     1      40.997 -14.289   1.001  1.00  0.00     0.102 A 
HETATM   23  C   UNL     1      41.648 -13.134   1.474  1.00  0.00     0.101 A 
HETATM   24  C   UNL     1      42.836 -13.264   2.198  1.00  0.00     0.040 A 
HETATM   25  C   UNL     1      43.382 -14.526   2.446  1.00  0.00     0.010 A 
BRANCH  22  26
HETATM   26  O   UNL     1      39.830 -14.085   0.304  1.00  0.00    -0.353 OA
HETATM   27  C   UNL     1      39.865 -14.269  -1.103  1.00  0.00     0.210 C 
ENDBRANCH  22  26
BRANCH  23  28
HETATM   28  O   UNL     1      41.047 -11.936   1.173  1.00  0.00    -0.353 OA
HETATM   29  C   UNL     1      41.772 -10.747   1.450  1.00  0.00     0.210 C 
ENDBRANCH  23  28
ENDBRANCH  19  20
ENDBRANCH  18  19
ENDBRANCH  15  18
ENDBRANCH  13  14
ENDBRANCH  12  13
ENDBRANCH   2  12
BRANCH   1  30
HETATM   30  C   UNL     1      43.643 -11.209   6.876  1.00  0.00     0.051 A 
HETATM   31  C   UNL     1      44.895 -11.173   6.223  1.00  0.00    -0.035 A 
HETATM   32  C   UNL     1      45.061 -11.491   4.762  1.00  0.00     0.050 C 
HETATM   33  C   UNL     1      46.031 -10.771   6.947  1.00  0.00     0.011 A 
HETATM   34  C   UNL     1      45.941 -10.455   8.304  1.00  0.00     0.024 A 
HETATM   35  C   UNL     1      44.710 -10.515   8.946  1.00  0.00     0.036 A 
HETATM   36  C   UNL     1      43.566 -10.883   8.243  1.00  0.00     0.054 A 
HETATM   37 CL   UNL     1      44.602 -10.160  10.625  1.00  0.00    -0.084 Cl
ENDBRANCH   1  30
BRANCH   6  38
HETATM   38  N   UNL     1      41.767  -9.412   5.611  1.00  0.00    -0.384 N 
HETATM   39  H   UNL     1      41.169  -8.767   5.118  1.00  0.00     0.157 HD
HETATM   40  H   UNL     1      42.522  -9.037   6.171  1.00  0.00     0.157 HD
ENDBRANCH   6  38
TORSDOF 10
ENDMDL
MODEL 2
REMARK VINA RESULT:      -7.6      2.581      4.472
REMARK  10 active torsions:
REMARK  status: ('A' for Active; 'I' for Inactive)
REMARK    1  A    between atoms: C_3  and  N_4 
REMARK    2  A    between atoms: C_5  and  S_6 
REMARK    3  A    between atoms: S_6  and  C_7 
REMARK    4  A    between atoms: C_7  and  C_8 
REMARK       I    between atoms: C_8  and  N_9 
REMARK    5  A    between atoms: N_9  and  C_10 
REMARK    6  A    between atoms: C_10  and  C_11 
REMARK    7  A    between atoms: C_11  and  C_12 
REMARK    8  A    between atoms: C_14  and  O_15 
REMARK    9  A    between atoms: C_17  and  O_18 
REMARK   10  A    between atoms: C_26  and  N_27 
ROOT
HETATM    1  N   UNL     1      40.930 -11.536   3.704  1.00  0.00    -0.275 N 
HETATM    2  C   UNL     1      40.032 -12.632   3.794  1.00  0.00     0.177 A 
HETATM    3  N   UNL     1      39.365 -13.166   2.800  1.00  0.00    -0.204 NA
HETATM    4  C   UNL     1      39.638 -12.603   1.601  1.00  0.00     0.162 A 
HETATM    5  C   UNL     1      40.477 -11.566   1.300  1.00  0.00     0.081 A 
HETATM    6  C   UNL     1      41.179 -10.960   2.392  1.00  0.00     0.124 A 
HETATM    7  N   UNL     1      39.110 -12.996   0.407  1.00  0.00    -0.260 N 
HETATM    8  H   UNL     1      38.450 -13.746   0.239  1.00  0.00     0.191 HD
HETATM    9  N   UNL     1      39.557 -12.263  -0.637  1.00  0.00    -0.177 NA
HETATM   10  C   UNL     1      40.411 -11.382  -0.090  1.00  0.00     0.068 A 
HETATM   11  C   UNL     1      41.112 -10.410  -0.961  1.00  0.00     0.073 C 
ENDROOT
BRANCH   2  12
HETATM   12  S   UNL     1      39.687 -13.359   5.377  1.00  0.00    -0.082 SA
BRANCH  12  13
HETATM   13  C   UNL     1      40.794 -14.793   5.312  1.00  0.00     0.185 C 
BRANCH  13  14
HETATM   14  C   UNL     1      40.822 -15.561   6.628  1.00  0.00     0.227 C 
HETATM   15  N   UNL     1      42.020 -15.631   7.294  1.00  0.00    -0.360 N 
HETATM   16  H   UNL     1      41.983 -16.183   8.146  1.00  0.00     0.162 HD
HETATM   17  O   UNL     1      39.832 -16.090   7.136  1.00  0.00    -0.273 OA
BRANCH  15  18
HETATM   18  C   UNL     1      43.296 -15.068   6.877  1.00  0.00     0.127 C 
BRANCH  18  19
HETATM   19  C   UNL     1      44.355 -16.131   6.563  1.00  0.00     0.058 C 
BRANCH  19  20
HETATM   20  C   UNL     1      44.063 -16.940   5.318  1.00  0.00    -0.054 A 
HETATM   21  C   UNL     1      43.644 -16.319   4.131  1.00  0.00     0.046 A 
HETATM   22  C   UNL     1      43.357 -17.072   2.985  1.00  0.00     0.102 A 
HETATM   23  C   UNL     1      43.525 -18.469   3.011  1.00  0.00     0.101 A 
HETATM   24  C   UNL     1      43.967 -19.086   4.184  1.00  0.00     0.040 A 
HETATM   25  C   UNL     1      44.232 -18.328   5.328  1.00  0.00     0.010 A 
BRANCH  22  26
HETATM   26  O   UNL     1      42.928 -16.534   1.796  1.00  0.00    -0.353 OA
HETATM   27  C   UNL     1      41.693 -15.834   1.799  1.00  0.00     0.210 C 
ENDBRANCH  22  26
BRANCH  23  28
HETATM   28  O   UNL     1      43.229 -19.134   1.846  1.00  0.00    -0.353 OA
HETATM   29  C   UNL     1      43.567 -20.511   1.770  1.00  0.00     0.210 C 
ENDBRANCH  23  28
ENDBRANCH  19  20
ENDBRANCH  18  19
ENDBRANCH  15  18
ENDBRANCH  13  14
ENDBRANCH  12  13
ENDBRANCH   2  12
BRANCH   1  30
HETATM   30  C   UNL     1      41.650 -11.061   4.842  1.00  0.00     0.051 A 
HETATM   31  C   UNL     1      41.200  -9.964   5.608  1.00  0.00    -0.035 A 
HETATM   32  C   UNL     1      39.875  -9.291   5.368  1.00  0.00     0.050 C 
HETATM   33  C   UNL     1      41.990  -9.508   6.678  1.00  0.00     0.011 A 
HETATM   34  C   UNL     1      43.226 -10.095   6.957  1.00  0.00     0.024 A 
HETATM   35  C   UNL     1      43.673 -11.160   6.185  1.00  0.00     0.036 A 
HETATM   36  C   UNL     1      42.895 -11.647   5.137  1.00  0.00     0.054 A 
HETATM   37 CL   UNL     1      45.209 -11.863   6.503  1.00  0.00    -0.084 Cl
ENDBRANCH   1  30
BRANCH   6  38
HETATM   38  N   UNL     1      41.977  -9.927   2.205  1.00  0.00    -0.384 N 
HETATM   39  H   UNL     1      41.687  -9.118   1.678  1.00  0.00     0.157 HD
HETATM   40  H   UNL     1      42.906  -9.932   2.606  1.00  0.00     0.157 HD
ENDBRANCH   6  38
TORSDOF 10
ENDMDL
MODEL 3
REMARK VINA RESULT:      -7.6      3.152      7.264
REMARK  10 active torsions:
REMARK  status: ('A' for Active; 'I' for Inactive)
REMARK    1  A    between atoms: C_3  and  N_4 
REMARK    2  A    between atoms: C_5  and  S_6 
REMARK    3  A    between atoms: S_6  and  C_7 
REMARK    4  A    between atoms: C_7  and  C_8 
REMARK       I    between atoms: C_8  and  N_9 
REMARK    5  A    between atoms: N_9  and  C_10 
REMARK    6  A    between atoms: C_10  and  C_11 
REMARK    7  A    between atoms: C_11  and  C_12 
REMARK    8  A    between atoms: C_14  and  O_15 
REMARK    9  A    between atoms: C_17  and  O_18 
REMARK   10  A    between atoms: C_26  and  N_27 
ROOT
HETATM    1  N   UNL     1      43.024 -16.791   4.286  1.00  0.00    -0.275 N 
HETATM    2  C   UNL     1      42.887 -16.733   2.875  1.00  0.00     0.177 A 
HETATM    3  N   UNL     1      43.115 -17.716   2.037  1.00  0.00    -0.204 NA
HETATM    4  C   UNL     1      43.465 -18.873   2.643  1.00  0.00     0.162 A 
HETATM    5  C   UNL     1      43.630 -19.141   3.974  1.00  0.00     0.081 A 
HETATM    6  C   UNL     1      43.416 -18.058   4.886  1.00  0.00     0.124 A 
HETATM    7  N   UNL     1      43.717 -20.051   2.004  1.00  0.00    -0.260 N 
HETATM    8  H   UNL     1      43.685 -20.236   1.009  1.00  0.00     0.191 HD
HETATM    9  N   UNL     1      44.043 -21.053   2.851  1.00  0.00    -0.177 NA
HETATM   10  C   UNL     1      43.982 -20.497   4.072  1.00  0.00     0.068 A 
HETATM   11  C   UNL     1      44.271 -21.324   5.266  1.00  0.00     0.073 C 
ENDROOT
BRANCH   2  12
HETATM   12  S   UNL     1      42.425 -15.205   2.099  1.00  0.00    -0.082 SA
BRANCH  12  13
HETATM   13  C   UNL     1      40.681 -15.550   1.739  1.00  0.00     0.185 C 
BRANCH  13  14
HETATM   14  C   UNL     1      40.054 -14.486   0.847  1.00  0.00     0.227 C 
HETATM   15  N   UNL     1      39.524 -13.379   1.459  1.00  0.00    -0.360 N 
HETATM   16  H   UNL     1      39.091 -12.722   0.816  1.00  0.00     0.162 HD
HETATM   17  O   UNL     1      40.025 -14.551  -0.384  1.00  0.00    -0.273 OA
BRANCH  15  18
HETATM   18  C   UNL     1      39.467 -13.101   2.887  1.00  0.00     0.127 C 
BRANCH  18  19
HETATM   19  C   UNL     1      40.517 -12.085   3.351  1.00  0.00     0.058 C 
BRANCH  19  20
HETATM   20  C   UNL     1      40.110 -11.298   4.578  1.00  0.00    -0.054 A 
HETATM   21  C   UNL     1      40.858 -10.192   5.012  1.00  0.00     0.046 A 
HETATM   22  C   UNL     1      40.489  -9.477   6.158  1.00  0.00     0.102 A 
HETATM   23  C   UNL     1      39.330  -9.847   6.867  1.00  0.00     0.101 A 
HETATM   24  C   UNL     1      38.571 -10.932   6.421  1.00  0.00     0.040 A 
HETATM   25  C   UNL     1      38.958 -11.652   5.286  1.00  0.00     0.010 A 
BRANCH  22  26
HETATM   26  O   UNL     1      41.181  -8.397   6.650  1.00  0.00    -0.353 OA
HETATM   27  C   UNL     1      42.413  -8.651   7.309  1.00  0.00     0.210 C 
ENDBRANCH  22  26
BRANCH  23  28
HETATM   28  O   UNL     1      39.033  -9.093   7.975  1.00  0.00    -0.353 OA
HETATM   29  C   UNL     1      39.232  -9.687   9.249  1.00  0.00     0.210 C 
ENDBRANCH  23  28
ENDBRANCH  19  20
ENDBRANCH  18  19
ENDBRANCH  15  18
ENDBRANCH  13  14
ENDBRANCH  12  13
ENDBRANCH   2  12
BRANCH   1  30
HETATM   30  C   UNL     1      42.700 -15.676   5.118  1.00  0.00     0.051 A 
HETATM   31  C   UNL     1      41.385 -15.442   5.576  1.00  0.00    -0.035 A 
HETATM   32  C   UNL     1      40.254 -16.405   5.334  1.00  0.00     0.050 C 
HETATM   33  C   UNL     1      41.123 -14.291   6.340  1.00  0.00     0.011 A 
HETATM   34  C   UNL     1      42.131 -13.363   6.606  1.00  0.00     0.024 A 
HETATM   35  C   UNL     1      43.418 -13.588   6.132  1.00  0.00     0.036 A 
HETATM   36  C   UNL     1      43.708 -14.736   5.398  1.00  0.00     0.054 A 
HETATM   37 CL   UNL     1      44.655 -12.431   6.429  1.00  0.00    -0.084 Cl
ENDBRANCH   1  30
BRANCH   6  38
HETATM   38  N   UNL     1      43.593 -18.209   6.184  1.00  0.00    -0.384 N 
HETATM   39  H   UNL     1      42.830 -18.130   6.839  1.00  0.00     0.157 HD
HETATM   40  H   UNL     1      44.515 -18.420   6.542  1.00  0.00     0.157 HD
ENDBRANCH   6  38
TORSDOF 10
ENDMDL
MODEL 4
REMARK VINA RESULT:      -7.4      3.869      7.763
REMARK  10 active torsions:
REMARK  status: ('A' for Active; 'I' for Inactive)
REMARK    1  A    between atoms: C_3  and  N_4 
REMARK    2  A    between atoms: C_5  and  S_6 
REMARK    3  A    between atoms: S_6  and  C_7 
REMARK    4  A    between atoms: C_7  and  C_8 
REMARK       I    between atoms: C_8  and  N_9 
REMARK    5  A    between atoms: N_9  and  C_10 
REMARK    6  A    between atoms: C_10  and  C_11 
REMARK    7  A    between atoms: C_11  and  C_12 
REMARK    8  A    between atoms: C_14  and  O_15 
REMARK    9  A    between atoms: C_17  and  O_18 
REMARK   10  A    between atoms: C_26  and  N_27 
ROOT
HETATM    1  N   UNL     1      41.546 -13.417   2.259  1.00  0.00    -0.275 N 
HETATM    2  C   UNL     1      42.235 -12.185   2.414  1.00  0.00     0.177 A 
HETATM    3  N   UNL     1      42.054 -11.105   1.693  1.00  0.00    -0.204 NA
HETATM    4  C   UNL     1      41.078 -11.231   0.765  1.00  0.00     0.162 A 
HETATM    5  C   UNL     1      40.291 -12.310   0.474  1.00  0.00     0.081 A 
HETATM    6  C   UNL     1      40.513 -13.501   1.238  1.00  0.00     0.124 A 
HETATM    7  N   UNL     1      40.668 -10.246  -0.084  1.00  0.00    -0.260 N 
HETATM    8  H   UNL     1      41.020  -9.299  -0.152  1.00  0.00     0.191 HD
HETATM    9  N   UNL     1      39.670 -10.640  -0.907  1.00  0.00    -0.177 NA
HETATM   10  C   UNL     1      39.428 -11.914  -0.560  1.00  0.00     0.068 A 
HETATM   11  C   UNL     1      38.364 -12.671  -1.260  1.00  0.00     0.073 C 
ENDROOT
BRANCH   2  12
HETATM   12  S   UNL     1      43.512 -12.040   3.638  1.00  0.00    -0.082 SA
BRANCH  12  13
HETATM   13  C   UNL     1      42.771 -10.788   4.719  1.00  0.00     0.185 C 
BRANCH  13  14
HETATM   14  C   UNL     1      42.102 -11.404   5.942  1.00  0.00     0.227 C 
HETATM   15  N   UNL     1      42.854 -11.520   7.084  1.00  0.00    -0.360 N 
HETATM   16  H   UNL     1      42.365 -11.968   7.853  1.00  0.00     0.162 HD
HETATM   17  O   UNL     1      40.926 -11.772   5.970  1.00  0.00    -0.273 OA
BRANCH  15  18
HETATM   18  C   UNL     1      44.247 -11.138   7.266  1.00  0.00     0.127 C 
BRANCH  18  19
HETATM   19  C   UNL     1      44.422  -9.854   8.086  1.00  0.00     0.058 C 
BRANCH  19  20
HETATM   20  C   UNL     1      43.651  -9.847   9.387  1.00  0.00    -0.054 A 
HETATM   21  C   UNL     1      42.365  -9.287   9.466  1.00  0.00     0.046 A 
HETATM   22  C   UNL     1      41.661  -9.266  10.677  1.00  0.00     0.102 A 
HETATM   23  C   UNL     1      42.232  -9.846  11.825  1.00  0.00     0.101 A 
HETATM   24  C   UNL     1      43.500 -10.426  11.742  1.00  0.00     0.040 A 
HETATM   25  C   UNL     1      44.204 -10.426  10.534  1.00  0.00     0.010 A 
BRANCH  22  26
HETATM   26  O   UNL     1      40.409  -8.722  10.831  1.00  0.00    -0.353 OA
HETATM   27  C   UNL     1      39.328  -9.366  10.174  1.00  0.00     0.210 C 
ENDBRANCH  22  26
BRANCH  23  28
HETATM   28  O   UNL     1      41.476  -9.790  12.969  1.00  0.00    -0.353 OA
HETATM   29  C   UNL     1      42.002  -9.068  14.072  1.00  0.00     0.210 C 
ENDBRANCH  23  28
ENDBRANCH  19  20
ENDBRANCH  18  19
ENDBRANCH  15  18
ENDBRANCH  13  14
ENDBRANCH  12  13
ENDBRANCH   2  12
BRANCH   1  30
HETATM   30  C   UNL     1      41.779 -14.522   3.134  1.00  0.00     0.051 A 
HETATM   31  C   UNL     1      42.678 -15.560   2.805  1.00  0.00    -0.035 A 
HETATM   32  C   UNL     1      43.549 -15.525   1.578  1.00  0.00     0.050 C 
HETATM   33  C   UNL     1      42.813 -16.650   3.682  1.00  0.00     0.011 A 
HETATM   34  C   UNL     1      42.039 -16.737   4.841  1.00  0.00     0.024 A 
HETATM   35  C   UNL     1      41.139 -15.723   5.147  1.00  0.00     0.036 A 
HETATM   36  C   UNL     1      41.009 -14.619   4.307  1.00  0.00     0.054 A 
HETATM   37 CL   UNL     1      40.159 -15.843   6.555  1.00  0.00    -0.084 Cl
ENDBRANCH   1  30
BRANCH   6  38
HETATM   38  N   UNL     1      39.833 -14.605   1.000  1.00  0.00    -0.384 N 
HETATM   39  H   UNL     1      39.296 -15.066   1.719  1.00  0.00     0.157 HD
HETATM   40  H   UNL     1      39.836 -15.005   0.070  1.00  0.00     0.157 HD
ENDBRANCH   6  38
TORSDOF 10
ENDMDL
MODEL 5
REMARK VINA RESULT:      -7.4      3.673      7.990
REMARK  10 active torsions:
REMARK  status: ('A' for Active; 'I' for Inactive)
REMARK    1  A    between atoms: C_3  and  N_4 
REMARK    2  A    between atoms: C_5  and  S_6 
REMARK    3  A    between atoms: S_6  and  C_7 
REMARK    4  A    between atoms: C_7  and  C_8 
REMARK       I    between atoms: C_8  and  N_9 
REMARK    5  A    between atoms: N_9  and  C_10 
REMARK    6  A    between atoms: C_10  and  C_11 
REMARK    7  A    between atoms: C_11  and  C_12 
REMARK    8  A    between atoms: C_14  and  O_15 
REMARK    9  A    between atoms: C_17  and  O_18 
REMARK   10  A    between atoms: C_26  and  N_27 
ROOT
HETATM    1  N   UNL     1      42.120 -13.692   4.355  1.00  0.00    -0.275 N 
HETATM    2  C   UNL     1      42.917 -13.545   5.520  1.00  0.00     0.177 A 
HETATM    3  N   UNL     1      43.680 -14.468   6.053  1.00  0.00    -0.204 NA
HETATM    4  C   UNL     1      43.699 -15.626   5.355  1.00  0.00     0.162 A 
HETATM    5  C   UNL     1      43.030 -15.959   4.209  1.00  0.00     0.081 A 
HETATM    6  C   UNL     1      42.168 -14.962   3.647  1.00  0.00     0.124 A 
HETATM    7  N   UNL     1      44.439 -16.726   5.672  1.00  0.00    -0.260 N 
HETATM    8  H   UNL     1      45.069 -16.844   6.457  1.00  0.00     0.191 HD
HETATM    9  N   UNL     1      44.273 -17.745   4.800  1.00  0.00    -0.177 NA
HETATM   10  C   UNL     1      43.408 -17.272   3.888  1.00  0.00     0.068 A 
HETATM   11  C   UNL     1      43.001 -18.133   2.753  1.00  0.00     0.073 C 
ENDROOT
BRANCH   2  12
HETATM   12  S   UNL     1      42.880 -12.018   6.424  1.00  0.00    -0.082 SA
BRANCH  12  13
HETATM   13  C   UNL     1      44.563 -12.010   7.098  1.00  0.00     0.185 C 
BRANCH  13  14
HETATM   14  C   UNL     1      45.508 -11.137   6.282  1.00  0.00     0.227 C 
HETATM   15  N   UNL     1      46.214 -10.171   6.952  1.00  0.00    -0.360 N 
HETATM   16  H   UNL     1      46.801  -9.600   6.350  1.00  0.00     0.162 HD
HETATM   17  O   UNL     1      45.692 -11.270   5.070  1.00  0.00    -0.273 OA
BRANCH  15  18
HETATM   18  C   UNL     1      46.155  -9.858   8.372  1.00  0.00     0.127 C 
BRANCH  18  19
HETATM   19  C   UNL     1      45.206  -8.700   8.701  1.00  0.00     0.058 C 
BRANCH  19  20
HETATM   20  C   UNL     1      44.078  -9.077   9.636  1.00  0.00    -0.054 A 
HETATM   21  C   UNL     1      42.743  -8.776   9.322  1.00  0.00     0.046 A 
HETATM   22  C   UNL     1      41.703  -9.110  10.199  1.00  0.00     0.102 A 
HETATM   23  C   UNL     1      41.993  -9.791  11.396  1.00  0.00     0.101 A 
HETATM   24  C   UNL     1      43.319 -10.114  11.697  1.00  0.00     0.040 A 
HETATM   25  C   UNL     1      44.352  -9.759  10.825  1.00  0.00     0.010 A 
BRANCH  22  26
HETATM   26  O   UNL     1      40.378  -8.832   9.965  1.00  0.00    -0.353 OA
HETATM   27  C   UNL     1      39.776  -9.420   8.821  1.00  0.00     0.210 C 
ENDBRANCH  22  26
BRANCH  23  28
HETATM   28  O   UNL     1      40.919 -10.088  12.197  1.00  0.00    -0.353 OA
HETATM   29  C   UNL     1      40.843  -9.448  13.462  1.00  0.00     0.210 C 
ENDBRANCH  23  28
ENDBRANCH  19  20
ENDBRANCH  18  19
ENDBRANCH  15  18
ENDBRANCH  13  14
ENDBRANCH  12  13
ENDBRANCH   2  12
BRANCH   1  30
HETATM   30  C   UNL     1      41.362 -12.605   3.822  1.00  0.00     0.051 A 
HETATM   31  C   UNL     1      40.066 -12.296   4.292  1.00  0.00    -0.035 A 
HETATM   32  C   UNL     1      39.436 -12.998   5.465  1.00  0.00     0.050 C 
HETATM   33  C   UNL     1      39.350 -11.253   3.681  1.00  0.00     0.011 A 
HETATM   34  C   UNL     1      39.883 -10.558   2.594  1.00  0.00     0.024 A 
HETATM   35  C   UNL     1      41.149 -10.883   2.122  1.00  0.00     0.036 A 
HETATM   36  C   UNL     1      41.890 -11.894   2.729  1.00  0.00     0.054 A 
HETATM   37 CL   UNL     1      41.796 -10.053   0.762  1.00  0.00    -0.084 Cl
ENDBRANCH   1  30
BRANCH   6  38
HETATM   38  N   UNL     1      41.450 -15.207   2.569  1.00  0.00    -0.384 N 
HETATM   39  H   UNL     1      41.827 -15.707   1.778  1.00  0.00     0.157 HD
HETATM   40  H   UNL     1      40.487 -14.896   2.527  1.00  0.00     0.157 HD
ENDBRANCH   6  38
TORSDOF 10
ENDMDL
MODEL 6
REMARK VINA RESULT:      -7.3      4.632      8.607
REMARK  10 active torsions:
REMARK  status: ('A' for Active; 'I' for Inactive)
REMARK    1  A    between atoms: C_3  and  N_4 
REMARK    2  A    between atoms: C_5  and  S_6 
REMARK    3  A    between atoms: S_6  and  C_7 
REMARK    4  A    between atoms: C_7  and  C_8 
REMARK       I    between atoms: C_8  and  N_9 
REMARK    5  A    between atoms: N_9  and  C_10 
REMARK    6  A    between atoms: C_10  and  C_11 
REMARK    7  A    between atoms: C_11  and  C_12 
REMARK    8  A    between atoms: C_14  and  O_15 
REMARK    9  A    between atoms: C_17  and  O_18 
REMARK   10  A    between atoms: C_26  and  N_27 
ROOT
HETATM    1  N   UNL     1      39.984 -10.496  -1.551  1.00  0.00    -0.275 N 
HETATM    2  C   UNL     1      40.198 -10.274  -0.165  1.00  0.00     0.177 A 
HETATM    3  N   UNL     1      41.055  -9.429   0.356  1.00  0.00    -0.204 NA
HETATM    4  C   UNL     1      41.730  -8.705  -0.564  1.00  0.00     0.162 A 
HETATM    5  C   UNL     1      41.656  -8.750  -1.929  1.00  0.00     0.081 A 
HETATM    6  C   UNL     1      40.746  -9.698  -2.499  1.00  0.00     0.124 A 
HETATM    7  N   UNL     1      42.646  -7.735  -0.286  1.00  0.00    -0.260 N 
HETATM    8  H   UNL     1      42.955  -7.417   0.625  1.00  0.00     0.191 HD
HETATM    9  N   UNL     1      43.168  -7.165  -1.395  1.00  0.00    -0.177 NA
HETATM   10  C   UNL     1      42.552  -7.785  -2.415  1.00  0.00     0.068 A 
HETATM   11  C   UNL     1      42.876  -7.396  -3.807  1.00  0.00     0.073 C 
ENDROOT
BRANCH   2  12
HETATM   12  S   UNL     1      39.301 -11.234   1.028  1.00  0.00    -0.082 SA
BRANCH  12  13
HETATM   13  C   UNL     1      40.544 -12.496   1.415  1.00  0.00     0.185 C 
BRANCH  13  14
HETATM   14  C   UNL     1      40.203 -13.273   2.681  1.00  0.00     0.227 C 
HETATM   15  N   UNL     1      40.473 -14.618   2.690  1.00  0.00    -0.360 N 
HETATM   16  H   UNL     1      40.193 -15.086   3.546  1.00  0.00     0.162 HD
HETATM   17  O   UNL     1      39.730 -12.758   3.696  1.00  0.00    -0.273 OA
BRANCH  15  18
HETATM   18  C   UNL     1      41.037 -15.413   1.609  1.00  0.00     0.127 C 
BRANCH  18  19
HETATM   19  C   UNL     1      42.565 -15.522   1.668  1.00  0.00     0.058 C 
BRANCH  19  20
HETATM   20  C   UNL     1      43.067 -16.637   2.559  1.00  0.00    -0.054 A 
HETATM   21  C   UNL     1      43.253 -16.439   3.936  1.00  0.00     0.046 A 
HETATM   22  C   UNL     1      43.735 -17.468   4.755  1.00  0.00     0.102 A 
HETATM   23  C   UNL     1      44.001 -18.733   4.199  1.00  0.00     0.101 A 
HETATM   24  C   UNL     1      43.791 -18.940   2.833  1.00  0.00     0.040 A 
HETATM   25  C   UNL     1      43.328 -17.901   2.020  1.00  0.00     0.010 A 
BRANCH  22  26
HETATM   26  O   UNL     1      43.956 -17.340   6.105  1.00  0.00    -0.353 OA
HETATM   27  C   UNL     1      44.726 -16.230   6.542  1.00  0.00     0.210 C 
ENDBRANCH  22  26
BRANCH  23  28
HETATM   28  O   UNL     1      44.463 -19.690   5.068  1.00  0.00    -0.353 OA
HETATM   29  C   UNL     1      43.908 -20.993   4.971  1.00  0.00     0.210 C 
ENDBRANCH  23  28
ENDBRANCH  19  20
ENDBRANCH  18  19
ENDBRANCH  15  18
ENDBRANCH  13  14
ENDBRANCH  12  13
ENDBRANCH   2  12
BRANCH   1  30
HETATM   30  C   UNL     1      38.986 -11.404  -2.020  1.00  0.00     0.051 A 
HETATM   31  C   UNL     1      37.654 -10.997  -2.253  1.00  0.00    -0.035 A 
HETATM   32  C   UNL     1      37.211  -9.563  -2.150  1.00  0.00     0.050 C 
HETATM   33  C   UNL     1      36.708 -11.956  -2.653  1.00  0.00     0.011 A 
HETATM   34  C   UNL     1      37.058 -13.302  -2.775  1.00  0.00     0.024 A 
HETATM   35  C   UNL     1      38.365 -13.699  -2.521  1.00  0.00     0.036 A 
HETATM   36  C   UNL     1      39.328 -12.763  -2.151  1.00  0.00     0.054 A 
HETATM   37 CL   UNL     1      38.794 -15.361  -2.637  1.00  0.00    -0.084 Cl
ENDBRANCH   1  30
BRANCH   6  38
HETATM   38  N   UNL     1      40.638  -9.845  -3.805  1.00  0.00    -0.384 N 
HETATM   39  H   UNL     1      41.136  -9.252  -4.451  1.00  0.00     0.157 HD
HETATM   40  H   UNL     1      40.046 -10.575  -4.180  1.00  0.00     0.157 HD
ENDBRANCH   6  38
TORSDOF 10
ENDMDL
MODEL 7
REMARK VINA RESULT:      -7.1      2.718      5.182
REMARK  10 active torsions:
REMARK  status: ('A' for Active; 'I' for Inactive)
REMARK    1  A    between atoms: C_3  and  N_4 
REMARK    2  A    between atoms: C_5  and  S_6 
REMARK    3  A    between atoms: S_6  and  C_7 
REMARK    4  A    between atoms: C_7  and  C_8 
REMARK       I    between atoms: C_8  and  N_9 
REMARK    5  A    between atoms: N_9  and  C_10 
REMARK    6  A    between atoms: C_10  and  C_11 
REMARK    7  A    between atoms: C_11  and  C_12 
REMARK    8  A    between atoms: C_14  and  O_15 
REMARK    9  A    between atoms: C_17  and  O_18 
REMARK   10  A    between atoms: C_26  and  N_27 
ROOT
HETATM    1  N   UNL     1      41.802 -11.225   5.459  1.00  0.00    -0.275 N 
HETATM    2  C   UNL     1      41.939 -11.048   4.057  1.00  0.00     0.177 A 
HETATM    3  N   UNL     1      41.784  -9.922   3.404  1.00  0.00    -0.204 NA
HETATM    4  C   UNL     1      41.514  -8.866   4.203  1.00  0.00     0.162 A 
HETATM    5  C   UNL     1      41.365  -8.820   5.562  1.00  0.00     0.081 A 
HETATM    6  C   UNL     1      41.500 -10.057   6.272  1.00  0.00     0.124 A 
HETATM    7  N   UNL     1      41.348  -7.580   3.780  1.00  0.00    -0.260 N 
HETATM    8  H   UNL     1      41.396  -7.229   2.831  1.00  0.00     0.191 HD
HETATM    9  N   UNL     1      41.092  -6.719   4.790  1.00  0.00    -0.177 NA
HETATM   10  C   UNL     1      41.110  -7.481   5.896  1.00  0.00     0.068 A 
HETATM   11  C   UNL     1      40.877  -6.853   7.218  1.00  0.00     0.073 C 
ENDROOT
BRANCH   2  12
HETATM   12  S   UNL     1      42.294 -12.448   3.025  1.00  0.00    -0.082 SA
BRANCH  12  13
HETATM   13  C   UNL     1      41.425 -11.952   1.513  1.00  0.00     0.185 C 
BRANCH  13  14
HETATM   14  C   UNL     1      39.954 -12.349   1.536  1.00  0.00     0.227 C 
HETATM   15  N   UNL     1      39.641 -13.639   1.190  1.00  0.00    -0.360 N 
HETATM   16  H   UNL     1      38.644 -13.834   1.192  1.00  0.00     0.162 HD
HETATM   17  O   UNL     1      39.043 -11.591   1.874  1.00  0.00    -0.273 OA
BRANCH  15  18
HETATM   18  C   UNL     1      40.559 -14.690   0.775  1.00  0.00     0.127 C 
BRANCH  18  19
HETATM   19  C   UNL     1      40.221 -16.062   1.369  1.00  0.00     0.058 C 
BRANCH  19  20
HETATM   20  C   UNL     1      41.314 -16.641   2.239  1.00  0.00    -0.054 A 
HETATM   21  C   UNL     1      42.183 -17.631   1.752  1.00  0.00     0.046 A 
HETATM   22  C   UNL     1      43.183 -18.178   2.566  1.00  0.00     0.102 A 
HETATM   23  C   UNL     1      43.347 -17.703   3.881  1.00  0.00     0.101 A 
HETATM   24  C   UNL     1      42.500 -16.699   4.358  1.00  0.00     0.040 A 
HETATM   25  C   UNL     1      41.492 -16.173   3.545  1.00  0.00     0.010 A 
BRANCH  22  26
HETATM   26  O   UNL     1      44.055 -19.159   2.162  1.00  0.00    -0.353 OA
HETATM   27  C   UNL     1      43.523 -20.453   1.922  1.00  0.00     0.210 C 
ENDBRANCH  22  26
BRANCH  23  28
HETATM   28  O   UNL     1      44.353 -18.285   4.612  1.00  0.00    -0.353 OA
HETATM   29  C   UNL     1      43.989 -19.272   5.565  1.00  0.00     0.210 C 
ENDBRANCH  23  28
ENDBRANCH  19  20
ENDBRANCH  18  19
ENDBRANCH  15  18
ENDBRANCH  13  14
ENDBRANCH  12  13
ENDBRANCH   2  12
BRANCH   1  30
HETATM   30  C   UNL     1      42.044 -12.487   6.083  1.00  0.00     0.051 A 
HETATM   31  C   UNL     1      43.333 -12.874   6.512  1.00  0.00    -0.035 A 
HETATM   32  C   UNL     1      44.520 -11.951   6.463  1.00  0.00     0.050 C 
HETATM   33  C   UNL     1      43.513 -14.156   7.061  1.00  0.00     0.011 A 
HETATM   34  C   UNL     1      42.449 -15.057   7.142  1.00  0.00     0.024 A 
HETATM   35  C   UNL     1      41.189 -14.677   6.696  1.00  0.00     0.036 A 
HETATM   36  C   UNL     1      40.980 -13.403   6.175  1.00  0.00     0.054 A 
HETATM   37 CL   UNL     1      39.884 -15.795   6.762  1.00  0.00    -0.084 Cl
ENDBRANCH   1  30
BRANCH   6  38
HETATM   38  N   UNL     1      41.330 -10.120   7.578  1.00  0.00    -0.384 N 
HETATM   39  H   UNL     1      42.086  -9.943   8.223  1.00  0.00     0.157 HD
HETATM   40  H   UNL     1      40.418 -10.342   7.955  1.00  0.00     0.157 HD
ENDBRANCH   6  38
TORSDOF 10
ENDMDL
MODEL 8
REMARK VINA RESULT:      -7.0      3.000      6.040
REMARK  10 active torsions:
REMARK  status: ('A' for Active; 'I' for Inactive)
REMARK    1  A    between atoms: C_3  and  N_4 
REMARK    2  A    between atoms: C_5  and  S_6 
REMARK    3  A    between atoms: S_6  and  C_7 
REMARK    4  A    between atoms: C_7  and  C_8 
REMARK       I    between atoms: C_8  and  N_9 
REMARK    5  A    between atoms: N_9  and  C_10 
REMARK    6  A    between atoms: C_10  and  C_11 
REMARK    7  A    between atoms: C_11  and  C_12 
REMARK    8  A    between atoms: C_14  and  O_15 
REMARK    9  A    between atoms: C_17  and  O_18 
REMARK   10  A    between atoms: C_26  and  N_27 
ROOT
HETATM    1  N   UNL     1      42.128 -12.780   5.428  1.00  0.00    -0.275 N 
HETATM    2  C   UNL     1      41.124 -11.810   5.171  1.00  0.00     0.177 A 
HETATM    3  N   UNL     1      41.062 -10.609   5.693  1.00  0.00    -0.204 NA
HETATM    4  C   UNL     1      42.103 -10.316   6.504  1.00  0.00     0.162 A 
HETATM    5  C   UNL     1      43.171 -11.092   6.860  1.00  0.00     0.081 A 
HETATM    6  C   UNL     1      43.220 -12.417   6.318  1.00  0.00     0.124 A 
HETATM    7  N   UNL     1      42.297  -9.125   7.137  1.00  0.00    -0.260 N 
HETATM    8  H   UNL     1      41.709  -8.300   7.102  1.00  0.00     0.191 HD
HETATM    9  N   UNL     1      43.423  -9.100   7.885  1.00  0.00    -0.177 NA
HETATM   10  C   UNL     1      43.973 -10.313   7.709  1.00  0.00     0.068 A 
HETATM   11  C   UNL     1      45.250 -10.640   8.383  1.00  0.00     0.073 C 
ENDROOT
BRANCH   2  12
HETATM   12  S   UNL     1      39.765 -12.213   4.102  1.00  0.00    -0.082 SA
BRANCH  12  13
HETATM   13  C   UNL     1      39.311 -10.553   3.532  1.00  0.00     0.185 C 
BRANCH  13  14
HETATM   14  C   UNL     1      38.594 -10.580   2.187  1.00  0.00     0.227 C 
HETATM   15  N   UNL     1      39.315 -10.220   1.078  1.00  0.00    -0.360 N 
HETATM   16  H   UNL     1      38.775 -10.226   0.218  1.00  0.00     0.162 HD
HETATM   17  O   UNL     1      37.422 -10.934   2.041  1.00  0.00    -0.273 OA
BRANCH  15  18
HETATM   18  C   UNL     1      40.704  -9.786   1.030  1.00  0.00     0.127 C 
BRANCH  18  19
HETATM   19  C   UNL     1      41.678 -10.906   0.645  1.00  0.00     0.058 C 
BRANCH  19  20
HETATM   20  C   UNL     1      41.078 -11.955  -0.265  1.00  0.00    -0.054 A 
HETATM   21  C   UNL     1      40.632 -13.186   0.241  1.00  0.00     0.046 A 
HETATM   22  C   UNL     1      40.094 -14.163  -0.606  1.00  0.00     0.102 A 
HETATM   23  C   UNL     1      39.962 -13.895  -1.982  1.00  0.00     0.101 A 
HETATM   24  C   UNL     1      40.382 -12.660  -2.483  1.00  0.00     0.040 A 
HETATM   25  C   UNL     1      40.935 -11.699  -1.632  1.00  0.00     0.010 A 
BRANCH  22  26
HETATM   26  O   UNL     1      39.653 -15.393  -0.184  1.00  0.00    -0.353 OA
HETATM   27  C   UNL     1      39.811 -15.711   1.191  1.00  0.00     0.210 C 
ENDBRANCH  22  26
BRANCH  23  28
HETATM   28  O   UNL     1      39.420 -14.900  -2.744  1.00  0.00    -0.353 OA
HETATM   29  C   UNL     1      38.257 -14.599  -3.500  1.00  0.00     0.210 C 
ENDBRANCH  23  28
ENDBRANCH  19  20
ENDBRANCH  18  19
ENDBRANCH  15  18
ENDBRANCH  13  14
ENDBRANCH  12  13
ENDBRANCH   2  12
BRANCH   1  30
HETATM   30  C   UNL     1      42.134 -14.046   4.766  1.00  0.00     0.051 A 
HETATM   31  C   UNL     1      41.599 -15.206   5.366  1.00  0.00    -0.035 A 
HETATM   32  C   UNL     1      40.871 -15.181   6.684  1.00  0.00     0.050 C 
HETATM   33  C   UNL     1      41.695 -16.433   4.686  1.00  0.00     0.011 A 
HETATM   34  C   UNL     1      42.350 -16.521   3.457  1.00  0.00     0.024 A 
HETATM   35  C   UNL     1      42.896 -15.379   2.883  1.00  0.00     0.036 A 
HETATM   36  C   UNL     1      42.788 -14.147   3.525  1.00  0.00     0.054 A 
HETATM   37 CL   UNL     1      43.734 -15.489   1.385  1.00  0.00    -0.084 Cl
ENDBRANCH   1  30
BRANCH   6  38
HETATM   38  N   UNL     1      44.188 -13.253   6.638  1.00  0.00    -0.384 N 
HETATM   39  H   UNL     1      44.012 -14.101   7.155  1.00  0.00     0.157 HD
HETATM   40  H   UNL     1      45.138 -13.053   6.352  1.00  0.00     0.157 HD
ENDBRANCH   6  38
TORSDOF 10
ENDMDL
MODEL 9
REMARK VINA RESULT:      -7.0      1.591      2.591
REMARK  10 active torsions:
REMARK  status: ('A' for Active; 'I' for Inactive)
REMARK    1  A    between atoms: C_3  and  N_4 
REMARK    2  A    between atoms: C_5  and  S_6 
REMARK    3  A    between atoms: S_6  and  C_7 
REMARK    4  A    between atoms: C_7  and  C_8 
REMARK       I    between atoms: C_8  and  N_9 
REMARK    5  A    between atoms: N_9  and  C_10 
REMARK    6  A    between atoms: C_10  and  C_11 
REMARK    7  A    between atoms: C_11  and  C_12 
REMARK    8  A    between atoms: C_14  and  O_15 
REMARK    9  A    between atoms: C_17  and  O_18 
REMARK   10  A    between atoms: C_26  and  N_27 
ROOT
HETATM    1  N   UNL     1      41.681 -11.862   5.077  1.00  0.00    -0.275 N 
HETATM    2  C   UNL     1      41.270 -13.218   4.986  1.00  0.00     0.177 A 
HETATM    3  N   UNL     1      40.225 -13.664   4.331  1.00  0.00    -0.204 NA
HETATM    4  C   UNL     1      39.549 -12.700   3.668  1.00  0.00     0.162 A 
HETATM    5  C   UNL     1      39.790 -11.355   3.608  1.00  0.00     0.081 A 
HETATM    6  C   UNL     1      40.911 -10.863   4.353  1.00  0.00     0.124 A 
HETATM    7  N   UNL     1      38.454 -12.904   2.882  1.00  0.00    -0.260 N 
HETATM    8  H   UNL     1      37.989 -13.781   2.682  1.00  0.00     0.191 HD
HETATM    9  N   UNL     1      37.977 -11.764   2.333  1.00  0.00    -0.177 NA
HETATM   10  C   UNL     1      38.806 -10.804   2.772  1.00  0.00     0.068 A 
HETATM   11  C   UNL     1      38.587  -9.401   2.349  1.00  0.00     0.073 C 
ENDROOT
BRANCH   2  12
HETATM   12  S   UNL     1      42.171 -14.470   5.864  1.00  0.00    -0.082 SA
BRANCH  12  13
HETATM   13  C   UNL     1      41.881 -15.889   4.772  1.00  0.00     0.185 C 
BRANCH  13  14
HETATM   14  C   UNL     1      43.142 -16.313   4.029  1.00  0.00     0.227 C 
HETATM   15  N   UNL     1      43.393 -15.717   2.819  1.00  0.00    -0.360 N 
HETATM   16  H   UNL     1      44.229 -16.065   2.357  1.00  0.00     0.162 HD
HETATM   17  O   UNL     1      43.955 -17.131   4.465  1.00  0.00    -0.273 OA
BRANCH  15  18
HETATM   18  C   UNL     1      42.576 -14.726   2.136  1.00  0.00     0.127 C 
BRANCH  18  19
HETATM   19  C   UNL     1      41.439 -15.340   1.310  1.00  0.00     0.058 C 
BRANCH  19  20
HETATM   20  C   UNL     1      40.743 -14.355   0.397  1.00  0.00    -0.054 A 
HETATM   21  C   UNL     1      41.046 -12.985   0.440  1.00  0.00     0.046 A 
HETATM   22  C   UNL     1      40.386 -12.074  -0.395  1.00  0.00     0.102 A 
HETATM   23  C   UNL     1      39.432 -12.540  -1.318  1.00  0.00     0.101 A 
HETATM   24  C   UNL     1      39.149 -13.907  -1.381  1.00  0.00     0.040 A 
HETATM   25  C   UNL     1      39.798 -14.807  -0.530  1.00  0.00     0.010 A 
BRANCH  22  26
HETATM   26  O   UNL     1      40.620 -10.720  -0.395  1.00  0.00    -0.353 OA
HETATM   27  C   UNL     1      41.636 -10.228   0.466  1.00  0.00     0.210 C 
ENDBRANCH  22  26
BRANCH  23  28
HETATM   28  O   UNL     1      38.836 -11.585  -2.104  1.00  0.00    -0.353 OA
HETATM   29  C   UNL     1      37.429 -11.429  -1.998  1.00  0.00     0.210 C 
ENDBRANCH  23  28
ENDBRANCH  19  20
ENDBRANCH  18  19
ENDBRANCH  15  18
ENDBRANCH  13  14
ENDBRANCH  12  13
ENDBRANCH   2  12
BRANCH   1  30
HETATM   30  C   UNL     1      42.868 -11.483   5.774  1.00  0.00     0.051 A 
HETATM   31  C   UNL     1      44.141 -11.529   5.164  1.00  0.00    -0.035 A 
HETATM   32  C   UNL     1      44.336 -11.855   3.708  1.00  0.00     0.050 C 
HETATM   33  C   UNL     1      45.276 -11.203   5.928  1.00  0.00     0.011 A 
HETATM   34  C   UNL     1      45.160 -10.883   7.282  1.00  0.00     0.024 A 
HETATM   35  C   UNL     1      43.907 -10.863   7.881  1.00  0.00     0.036 A 
HETATM   36  C   UNL     1      42.765 -11.155   7.138  1.00  0.00     0.054 A 
HETATM   37 CL   UNL     1      43.764 -10.504   9.557  1.00  0.00    -0.084 Cl
ENDBRANCH   1  30
BRANCH   6  38
HETATM   38  N   UNL     1      41.196  -9.576   4.391  1.00  0.00    -0.384 N 
HETATM   39  H   UNL     1      42.017  -9.225   4.860  1.00  0.00     0.157 HD
HETATM   40  H   UNL     1      40.585  -8.913   3.931  1.00  0.00     0.157 HD
ENDBRANCH   6  38
TORSDOF 10
ENDMDL
MODEL 10
REMARK VINA RESULT:      -7.0      3.476      5.697
REMARK  10 active torsions:
REMARK  status: ('A' for Active; 'I' for Inactive)
REMARK    1  A    between atoms: C_3  and  N_4 
REMARK    2  A    between atoms: C_5  and  S_6 
REMARK    3  A    between atoms: S_6  and  C_7 
REMARK    4  A    between atoms: C_7  and  C_8 
REMARK       I    between atoms: C_8  and  N_9 
REMARK    5  A    between atoms: N_9  and  C_10 
REMARK    6  A    between atoms: C_10  and  C_11 
REMARK    7  A    between atoms: C_11  and  C_12 
REMARK    8  A    between atoms: C_14  and  O_15 
REMARK    9  A    between atoms: C_17  and  O_18 
REMARK   10  A    between atoms: C_26  and  N_27 
ROOT
HETATM    1  N   UNL     1      42.510  -9.528   9.344  1.00  0.00    -0.275 N 
HETATM    2  C   UNL     1      41.434  -8.894   8.669  1.00  0.00     0.177 A 
HETATM    3  N   UNL     1      40.360  -8.395   9.231  1.00  0.00    -0.204 NA
HETATM    4  C   UNL     1      40.362  -8.486  10.580  1.00  0.00     0.162 A 
HETATM    5  C   UNL     1      41.300  -9.033  11.412  1.00  0.00     0.081 A 
HETATM    6  C   UNL     1      42.457  -9.610  10.795  1.00  0.00     0.124 A 
HETATM    7  N   UNL     1      39.385  -8.011  11.403  1.00  0.00    -0.260 N 
HETATM    8  H   UNL     1      38.531  -7.533  11.140  1.00  0.00     0.191 HD
HETATM    9  N   UNL     1      39.641  -8.232  12.712  1.00  0.00    -0.177 NA
HETATM   10  C   UNL     1      40.830  -8.857  12.723  1.00  0.00     0.068 A 
HETATM   11  C   UNL     1      41.437  -9.246  14.016  1.00  0.00     0.073 C 
ENDROOT
BRANCH   2  12
HETATM   12  S   UNL     1      41.451  -8.783   6.898  1.00  0.00    -0.082 SA
BRANCH  12  13
HETATM   13  C   UNL     1      40.651 -10.355   6.477  1.00  0.00     0.185 C 
BRANCH  13  14
HETATM   14  C   UNL     1      41.326 -11.049   5.300  1.00  0.00     0.227 C 
HETATM   15  N   UNL     1      40.920 -12.325   5.001  1.00  0.00    -0.360 N 
HETATM   16  H   UNL     1      41.430 -12.747   4.230  1.00  0.00     0.162 HD
HETATM   17  O   UNL     1      42.186 -10.521   4.592  1.00  0.00    -0.273 OA
BRANCH  15  18
HETATM   18  C   UNL     1      39.919 -13.120   5.698  1.00  0.00     0.127 C 
BRANCH  18  19
HETATM   19  C   UNL     1      40.492 -14.381   6.354  1.00  0.00     0.058 C 
BRANCH  19  20
HETATM   20  C   UNL     1      41.219 -15.297   5.393  1.00  0.00    -0.054 A 
HETATM   21  C   UNL     1      40.803 -15.427   4.059  1.00  0.00     0.046 A 
HETATM   22  C   UNL     1      41.466 -16.289   3.177  1.00  0.00     0.102 A 
HETATM   23  C   UNL     1      42.591 -17.009   3.621  1.00  0.00     0.101 A 
HETATM   24  C   UNL     1      43.022 -16.861   4.942  1.00  0.00     0.040 A 
HETATM   25  C   UNL     1      42.342 -16.012   5.821  1.00  0.00     0.010 A 
BRANCH  22  26
HETATM   26  O   UNL     1      41.105 -16.478   1.865  1.00  0.00    -0.353 OA
HETATM   27  C   UNL     1      39.914 -15.850   1.414  1.00  0.00     0.210 C 
ENDBRANCH  22  26
BRANCH  23  28
HETATM   28  O   UNL     1      43.189 -17.827   2.695  1.00  0.00    -0.353 OA
HETATM   29  C   UNL     1      43.961 -18.916   3.178  1.00  0.00     0.210 C 
ENDBRANCH  23  28
ENDBRANCH  19  20
ENDBRANCH  18  19
ENDBRANCH  15  18
ENDBRANCH  13  14
ENDBRANCH  12  13
ENDBRANCH   2  12
BRANCH   1  30
HETATM   30  C   UNL     1      43.665  -9.993   8.643  1.00  0.00     0.051 A 
HETATM   31  C   UNL     1      44.798  -9.174   8.443  1.00  0.00    -0.035 A 
HETATM   32  C   UNL     1      44.933  -7.805   9.052  1.00  0.00     0.050 C 
HETATM   33  C   UNL     1      45.876  -9.673   7.690  1.00  0.00     0.011 A 
HETATM   34  C   UNL     1      45.816 -10.939   7.105  1.00  0.00     0.024 A 
HETATM   35  C   UNL     1      44.688 -11.730   7.287  1.00  0.00     0.036 A 
HETATM   36  C   UNL     1      43.620 -11.269   8.053  1.00  0.00     0.054 A 
HETATM   37 CL   UNL     1      44.596 -13.276   6.540  1.00  0.00    -0.084 Cl
ENDBRANCH   1  30
BRANCH   6  38
HETATM   38  N   UNL     1      43.394 -10.199  11.512  1.00  0.00    -0.384 N 
HETATM   39  H   UNL     1      44.349 -10.263  11.193  1.00  0.00     0.157 HD
HETATM   40  H   UNL     1      43.161 -10.594  12.415  1.00  0.00     0.157 HD
ENDBRANCH   6  38
TORSDOF 10
ENDMDL
