MODEL 1
REMARK VINA RESULT:      -8.6      0.000      0.000
REMARK  3 active torsions:
REMARK  status: ('A' for Active; 'I' for Inactive)
REMARK    1  A    between atoms: N_1  and  C_2 
REMARK    2  A    between atoms: C_6  and  C_8 
REMARK    3  A    between atoms: C_13  and  C_17 
ROOT
HETATM    1  C   UNL     1      43.287 -17.012   3.657  1.00  0.00    -0.006 A 
HETATM    2  C   UNL     1      43.489 -16.474   4.937  1.00  0.00     0.016 A 
HETATM    3  C   UNL     1      43.287 -15.111   5.206  1.00  0.00     0.034 A 
HETATM    4  C   UNL     1      42.870 -14.250   4.177  1.00  0.00     0.074 A 
HETATM    5  N   UNL     1      42.618 -12.897   4.305  1.00  0.00    -0.244 NA
HETATM    6  C   UNL     1      42.196 -12.399   3.162  1.00  0.00     0.083 A 
HETATM    7  S   UNL     1      42.196 -13.509   1.844  1.00  0.00    -0.072 SA
HETATM    8  C   UNL     1      42.684 -14.775   2.901  1.00  0.00     0.036 A 
HETATM    9  C   UNL     1      42.892 -16.138   2.622  1.00  0.00     0.035 A 
ENDROOT
BRANCH   6  10
HETATM   10  C   UNL     1      41.799 -10.952   2.949  1.00  0.00     0.074 C 
HETATM   11  C   UNL     1      40.312 -10.785   2.630  1.00  0.00     0.187 C 
HETATM   12  O   UNL     1      39.442 -11.193   3.690  1.00  0.00    -0.350 OA
HETATM   13  C   UNL     1      39.800 -10.747   4.934  1.00  0.00     0.075 A 
HETATM   14  C   UNL     1      38.839 -10.891   5.934  1.00  0.00     0.037 A 
HETATM   15  C   UNL     1      41.056 -10.209   5.233  1.00  0.00    -0.024 A 
HETATM   16  C   UNL     1      39.115 -10.477   7.236  1.00  0.00     0.003 A 
HETATM   17  C   UNL     1      40.356  -9.919   7.539  1.00  0.00     0.001 A 
HETATM   18  C   UNL     1      41.323  -9.784   6.541  1.00  0.00     0.010 A 
HETATM   19  C   UNL     1      42.111 -10.075   4.167  1.00  0.00     0.055 C 
ENDBRANCH   6  10
BRANCH   1  20
HETATM   20  C   UNL     1      43.477 -18.452   3.378  1.00  0.00     0.071 A 
HETATM   21  C   UNL     1      43.227 -19.016   2.142  1.00  0.00     0.052 A 
HETATM   22  C   UNL     1      43.456 -20.366   2.034  1.00  0.00     0.122 A 
HETATM   23  N   UNL     1      43.898 -21.126   3.049  1.00  0.00    -0.231 NA
HETATM   24  C   UNL     1      44.136 -20.494   4.200  1.00  0.00     0.199 A 
HETATM   25  N   UNL     1      43.931 -19.193   4.414  1.00  0.00    -0.218 NA
BRANCH  24  26
HETATM   26  N   UNL     1      44.579 -21.253   5.262  1.00  0.00    -0.271 NA
HETATM   27  H   UNL     1      44.871 -20.642   6.012  1.00  0.00     0.127 HD
HETATM   28  H   UNL     1      45.249 -21.934   4.932  1.00  0.00     0.127 HD
ENDBRANCH  24  26
ENDBRANCH   1  20
TORSDOF 3
ENDMDL
MODEL 2
REMARK VINA RESULT:      -8.6      2.052      3.860
REMARK  3 active torsions:
REMARK  status: ('A' for Active; 'I' for Inactive)
REMARK    1  A    between atoms: N_1  and  C_2 
REMARK    2  A    between atoms: C_6  and  C_8 
REMARK    3  A    between atoms: C_13  and  C_17 
ROOT
HETATM    1  C   UNL     1      42.826 -17.211   3.393  1.00  0.00    -0.006 A 
HETATM    2  C   UNL     1      43.489 -16.356   4.287  1.00  0.00     0.016 A 
HETATM    3  C   UNL     1      43.080 -15.028   4.480  1.00  0.00     0.034 A 
HETATM    4  C   UNL     1      41.977 -14.526   3.769  1.00  0.00     0.074 A 
HETATM    5  N   UNL     1      41.457 -13.250   3.873  1.00  0.00    -0.244 NA
HETATM    6  C   UNL     1      40.394 -13.122   3.107  1.00  0.00     0.083 A 
HETATM    7  S   UNL     1      40.037 -14.496   2.130  1.00  0.00    -0.072 SA
HETATM    8  C   UNL     1      41.326 -15.364   2.867  1.00  0.00     0.036 A 
HETATM    9  C   UNL     1      41.735 -16.694   2.662  1.00  0.00     0.035 A 
ENDROOT
BRANCH   6  10
HETATM   10  C   UNL     1      39.557 -11.863   3.000  1.00  0.00     0.074 C 
HETATM   11  C   UNL     1      40.405 -10.591   2.926  1.00  0.00     0.187 C 
HETATM   12  O   UNL     1      41.235 -10.514   1.763  1.00  0.00    -0.350 OA
HETATM   13  C   UNL     1      40.611 -10.838   0.588  1.00  0.00     0.075 A 
HETATM   14  C   UNL     1      41.301 -10.512  -0.579  1.00  0.00     0.037 A 
HETATM   15  C   UNL     1      39.378 -11.493   0.520  1.00  0.00    -0.024 A 
HETATM   16  C   UNL     1      40.753 -10.813  -1.825  1.00  0.00     0.003 A 
HETATM   17  C   UNL     1      39.513 -11.445  -1.904  1.00  0.00     0.001 A 
HETATM   18  C   UNL     1      38.826 -11.783  -0.736  1.00  0.00     0.010 A 
HETATM   19  C   UNL     1      38.637 -11.876   1.773  1.00  0.00     0.055 C 
ENDBRANCH   6  10
BRANCH   1  20
HETATM   20  C   UNL     1      43.243 -18.618   3.205  1.00  0.00     0.071 A 
HETATM   21  C   UNL     1      43.171 -19.265   1.987  1.00  0.00     0.052 A 
HETATM   22  C   UNL     1      43.600 -20.570   1.968  1.00  0.00     0.122 A 
HETATM   23  N   UNL     1      44.070 -21.211   3.051  1.00  0.00    -0.231 NA
HETATM   24  C   UNL     1      44.128 -20.502   4.179  1.00  0.00     0.199 A 
HETATM   25  N   UNL     1      43.722 -19.237   4.309  1.00  0.00    -0.218 NA
BRANCH  24  26
HETATM   26  N   UNL     1      44.597 -21.139   5.308  1.00  0.00    -0.271 NA
HETATM   27  H   UNL     1      43.921 -21.043   6.053  1.00  0.00     0.127 HD
HETATM   28  H   UNL     1      45.542 -20.837   5.497  1.00  0.00     0.127 HD
ENDBRANCH  24  26
ENDBRANCH   1  20
TORSDOF 3
ENDMDL
MODEL 3
REMARK VINA RESULT:      -8.4      2.718      4.637
REMARK  3 active torsions:
REMARK  status: ('A' for Active; 'I' for Inactive)
REMARK    1  A    between atoms: N_1  and  C_2 
REMARK    2  A    between atoms: C_6  and  C_8 
REMARK    3  A    between atoms: C_13  and  C_17 
ROOT
HETATM    1  C   UNL     1      42.859 -16.750   3.539  1.00  0.00    -0.006 A 
HETATM    2  C   UNL     1      43.354 -15.755   4.396  1.00  0.00     0.016 A 
HETATM    3  C   UNL     1      42.894 -14.431   4.333  1.00  0.00     0.034 A 
HETATM    4  C   UNL     1      41.910 -14.076   3.395  1.00  0.00     0.074 A 
HETATM    5  N   UNL     1      41.357 -12.820   3.236  1.00  0.00    -0.244 NA
HETATM    6  C   UNL     1      40.429 -12.841   2.303  1.00  0.00     0.083 A 
HETATM    7  S   UNL     1      40.258 -14.349   1.485  1.00  0.00    -0.072 SA
HETATM    8  C   UNL     1      41.428 -15.056   2.530  1.00  0.00     0.036 A 
HETATM    9  C   UNL     1      41.889 -16.383   2.582  1.00  0.00     0.035 A 
ENDROOT
BRANCH   6  10
HETATM   10  C   UNL     1      39.597 -11.643   1.889  1.00  0.00     0.074 C 
HETATM   11  C   UNL     1      40.450 -10.437   1.494  1.00  0.00     0.187 C 
HETATM   12  O   UNL     1      41.270 -10.658   0.342  1.00  0.00    -0.350 OA
HETATM   13  C   UNL     1      40.636 -11.262  -0.710  1.00  0.00     0.075 A 
HETATM   14  C   UNL     1      41.318 -11.243  -1.926  1.00  0.00     0.037 A 
HETATM   15  C   UNL     1      39.399 -11.905  -0.603  1.00  0.00    -0.024 A 
HETATM   16  C   UNL     1      40.758 -11.843  -3.053  1.00  0.00     0.003 A 
HETATM   17  C   UNL     1      39.514 -12.467  -2.962  1.00  0.00     0.001 A 
HETATM   18  C   UNL     1      38.836 -12.497  -1.743  1.00  0.00     0.010 A 
HETATM   19  C   UNL     1      38.667 -11.957   0.711  1.00  0.00     0.055 C 
ENDBRANCH   6  10
BRANCH   1  20
HETATM   20  C   UNL     1      43.326 -18.151   3.620  1.00  0.00     0.071 A 
HETATM   21  C   UNL     1      43.854 -18.700   4.772  1.00  0.00     0.052 A 
HETATM   22  C   UNL     1      44.240 -20.016   4.695  1.00  0.00     0.122 A 
HETATM   23  N   UNL     1      44.124 -20.758   3.582  1.00  0.00    -0.231 NA
HETATM   24  C   UNL     1      43.582 -20.154   2.523  1.00  0.00     0.199 A 
HETATM   25  N   UNL     1      43.190 -18.879   2.488  1.00  0.00    -0.218 NA
BRANCH  24  26
HETATM   26  N   UNL     1      43.462 -20.890   1.363  1.00  0.00    -0.271 NA
HETATM   27  H   UNL     1      43.359 -20.264   0.578  1.00  0.00     0.127 HD
HETATM   28  H   UNL     1      42.752 -21.599   1.486  1.00  0.00     0.127 HD
ENDBRANCH  24  26
ENDBRANCH   1  20
TORSDOF 3
ENDMDL
MODEL 4
REMARK VINA RESULT:      -8.4      1.484      2.590
REMARK  3 active torsions:
REMARK  status: ('A' for Active; 'I' for Inactive)
REMARK    1  A    between atoms: N_1  and  C_2 
REMARK    2  A    between atoms: C_6  and  C_8 
REMARK    3  A    between atoms: C_13  and  C_17 
ROOT
HETATM    1  C   UNL     1      43.191 -17.087   3.405  1.00  0.00    -0.006 A 
HETATM    2  C   UNL     1      43.373 -16.164   2.363  1.00  0.00     0.016 A 
HETATM    3  C   UNL     1      43.159 -14.790   2.548  1.00  0.00     0.034 A 
HETATM    4  C   UNL     1      42.753 -14.308   3.804  1.00  0.00     0.074 A 
HETATM    5  N   UNL     1      42.523 -12.985   4.129  1.00  0.00    -0.244 NA
HETATM    6  C   UNL     1      42.204 -12.873   5.402  1.00  0.00     0.083 A 
HETATM    7  S   UNL     1      42.046 -14.369   6.242  1.00  0.00    -0.072 SA
HETATM    8  C   UNL     1      42.553 -15.221   4.836  1.00  0.00     0.036 A 
HETATM    9  C   UNL     1      42.758 -16.601   4.657  1.00  0.00     0.035 A 
ENDROOT
BRANCH   6  10
HETATM   10  C   UNL     1      41.916 -11.562   6.104  1.00  0.00     0.074 C 
HETATM   11  C   UNL     1      42.734 -10.396   5.545  1.00  0.00     0.187 C 
HETATM   12  O   UNL     1      42.443 -10.087   4.178  1.00  0.00    -0.350 OA
HETATM   13  C   UNL     1      41.111 -10.033   3.870  1.00  0.00     0.075 A 
HETATM   14  C   UNL     1      40.793  -9.472   2.633  1.00  0.00     0.037 A 
HETATM   15  C   UNL     1      40.102 -10.535   4.698  1.00  0.00    -0.024 A 
HETATM   16  C   UNL     1      39.463  -9.383   2.225  1.00  0.00     0.003 A 
HETATM   17  C   UNL     1      38.449  -9.860   3.054  1.00  0.00     0.001 A 
HETATM   18  C   UNL     1      38.766 -10.432   4.287  1.00  0.00     0.010 A 
HETATM   19  C   UNL     1      40.436 -11.168   6.022  1.00  0.00     0.055 C 
ENDBRANCH   6  10
BRANCH   1  20
HETATM   20  C   UNL     1      43.438 -18.533   3.217  1.00  0.00     0.071 A 
HETATM   21  C   UNL     1      43.261 -19.173   2.005  1.00  0.00     0.052 A 
HETATM   22  C   UNL     1      43.536 -20.518   1.985  1.00  0.00     0.122 A 
HETATM   23  N   UNL     1      43.957 -21.205   3.059  1.00  0.00    -0.231 NA
HETATM   24  C   UNL     1      44.125 -20.503   4.181  1.00  0.00     0.199 A 
HETATM   25  N   UNL     1      43.870 -19.199   4.312  1.00  0.00    -0.218 NA
BRANCH  24  26
HETATM   26  N   UNL     1      44.546 -21.186   5.302  1.00  0.00    -0.271 NA
HETATM   27  H   UNL     1      44.121 -20.778   6.123  1.00  0.00     0.127 HD
HETATM   28  H   UNL     1      45.553 -21.262   5.291  1.00  0.00     0.127 HD
ENDBRANCH  24  26
ENDBRANCH   1  20
TORSDOF 3
ENDMDL
MODEL 5
REMARK VINA RESULT:      -8.1      3.768      5.590
REMARK  3 active torsions:
REMARK  status: ('A' for Active; 'I' for Inactive)
REMARK    1  A    between atoms: N_1  and  C_2 
REMARK    2  A    between atoms: C_6  and  C_8 
REMARK    3  A    between atoms: C_13  and  C_17 
ROOT
HETATM    1  C   UNL     1      42.710 -13.358   5.458  1.00  0.00    -0.006 A 
HETATM    2  C   UNL     1      43.824 -13.429   6.309  1.00  0.00     0.016 A 
HETATM    3  C   UNL     1      44.216 -12.342   7.105  1.00  0.00     0.034 A 
HETATM    4  C   UNL     1      43.483 -11.144   7.062  1.00  0.00     0.074 A 
HETATM    5  N   UNL     1      43.746 -10.006   7.801  1.00  0.00    -0.244 NA
HETATM    6  C   UNL     1      42.840  -9.082   7.559  1.00  0.00     0.083 A 
HETATM    7  S   UNL     1      41.694  -9.493   6.339  1.00  0.00    -0.072 SA
HETATM    8  C   UNL     1      42.388 -11.061   6.206  1.00  0.00     0.036 A 
HETATM    9  C   UNL     1      41.993 -12.144   5.399  1.00  0.00     0.035 A 
ENDROOT
BRANCH   6  10
HETATM   10  C   UNL     1      42.804  -7.719   8.220  1.00  0.00     0.074 C 
HETATM   11  C   UNL     1      41.384  -7.262   8.560  1.00  0.00     0.187 C 
HETATM   12  O   UNL     1      40.722  -8.091   9.521  1.00  0.00    -0.350 OA
HETATM   13  C   UNL     1      41.478  -8.424  10.612  1.00  0.00     0.075 A 
HETATM   14  C   UNL     1      40.787  -8.991  11.682  1.00  0.00     0.037 A 
HETATM   15  C   UNL     1      42.865  -8.260  10.675  1.00  0.00    -0.024 A 
HETATM   16  C   UNL     1      41.471  -9.376  12.834  1.00  0.00     0.003 A 
HETATM   17  C   UNL     1      42.852  -9.195  12.915  1.00  0.00     0.001 A 
HETATM   18  C   UNL     1      43.547  -8.638  11.840  1.00  0.00     0.010 A 
HETATM   19  C   UNL     1      43.625  -7.675   9.514  1.00  0.00     0.055 C 
ENDBRANCH   6  10
BRANCH   1  20
HETATM   20  C   UNL     1      42.283 -14.511   4.636  1.00  0.00     0.071 A 
HETATM   21  C   UNL     1      43.049 -15.650   4.485  1.00  0.00     0.052 A 
HETATM   22  C   UNL     1      42.517 -16.639   3.695  1.00  0.00     0.122 A 
HETATM   23  N   UNL     1      41.323 -16.541   3.089  1.00  0.00    -0.231 NA
HETATM   24  C   UNL     1      40.639 -15.416   3.309  1.00  0.00     0.199 A 
HETATM   25  N   UNL     1      41.072 -14.390   4.044  1.00  0.00    -0.218 NA
BRANCH  24  26
HETATM   26  N   UNL     1      39.415 -15.285   2.689  1.00  0.00    -0.271 NA
HETATM   27  H   UNL     1      39.458 -15.700   1.769  1.00  0.00     0.127 HD
HETATM   28  H   UNL     1      39.108 -14.324   2.750  1.00  0.00     0.127 HD
ENDBRANCH  24  26
ENDBRANCH   1  20
TORSDOF 3
ENDMDL
MODEL 6
REMARK VINA RESULT:      -8.0      3.921      5.850
REMARK  3 active torsions:
REMARK  status: ('A' for Active; 'I' for Inactive)
REMARK    1  A    between atoms: N_1  and  C_2 
REMARK    2  A    between atoms: C_6  and  C_8 
REMARK    3  A    between atoms: C_13  and  C_17 
ROOT
HETATM    1  C   UNL     1      41.766 -15.461   4.326  1.00  0.00    -0.006 A 
HETATM    2  C   UNL     1      40.626 -15.977   3.691  1.00  0.00     0.016 A 
HETATM    3  C   UNL     1      39.953 -15.265   2.687  1.00  0.00     0.034 A 
HETATM    4  C   UNL     1      40.422 -14.000   2.294  1.00  0.00     0.074 A 
HETATM    5  N   UNL     1      39.869 -13.199   1.312  1.00  0.00    -0.244 NA
HETATM    6  C   UNL     1      40.580 -12.102   1.159  1.00  0.00     0.083 A 
HETATM    7  S   UNL     1      41.882 -11.922   2.274  1.00  0.00    -0.072 SA
HETATM    8  C   UNL     1      41.542 -13.474   2.933  1.00  0.00     0.036 A 
HETATM    9  C   UNL     1      42.217 -14.179   3.945  1.00  0.00     0.035 A 
ENDROOT
BRANCH   6  10
HETATM   10  C   UNL     1      40.278 -11.015   0.147  1.00  0.00     0.074 C 
HETATM   11  C   UNL     1      41.231 -11.037  -1.049  1.00  0.00     0.187 C 
HETATM   12  O   UNL     1      41.144 -12.228  -1.838  1.00  0.00    -0.350 OA
HETATM   13  C   UNL     1      39.870 -12.635  -2.130  1.00  0.00     0.075 A 
HETATM   14  C   UNL     1      39.754 -13.618  -3.112  1.00  0.00     0.037 A 
HETATM   15  C   UNL     1      38.732 -12.148  -1.480  1.00  0.00    -0.024 A 
HETATM   16  C   UNL     1      38.498 -14.106  -3.471  1.00  0.00     0.003 A 
HETATM   17  C   UNL     1      37.356 -13.610  -2.844  1.00  0.00     0.001 A 
HETATM   18  C   UNL     1      37.471 -12.633  -1.853  1.00  0.00     0.010 A 
HETATM   19  C   UNL     1      38.848 -11.106  -0.399  1.00  0.00     0.055 C 
ENDBRANCH   6  10
BRANCH   1  20
HETATM   20  C   UNL     1      42.489 -16.221   5.368  1.00  0.00     0.071 A 
HETATM   21  C   UNL     1      43.074 -17.450   5.130  1.00  0.00     0.052 A 
HETATM   22  C   UNL     1      43.715 -18.033   6.196  1.00  0.00     0.122 A 
HETATM   23  N   UNL     1      43.793 -17.470   7.412  1.00  0.00    -0.231 NA
HETATM   24  C   UNL     1      43.221 -16.271   7.546  1.00  0.00     0.199 A 
HETATM   25  N   UNL     1      42.560 -15.628   6.582  1.00  0.00    -0.218 NA
BRANCH  24  26
HETATM   26  N   UNL     1      43.276 -15.676   8.788  1.00  0.00    -0.271 NA
HETATM   27  H   UNL     1      42.900 -16.308   9.480  1.00  0.00     0.127 HD
HETATM   28  H   UNL     1      42.872 -14.751   8.736  1.00  0.00     0.127 HD
ENDBRANCH  24  26
ENDBRANCH   1  20
TORSDOF 3
ENDMDL
MODEL 7
REMARK VINA RESULT:      -8.0      2.960      4.819
REMARK  3 active torsions:
REMARK  status: ('A' for Active; 'I' for Inactive)
REMARK    1  A    between atoms: N_1  and  C_2 
REMARK    2  A    between atoms: C_6  and  C_8 
REMARK    3  A    between atoms: C_13  and  C_17 
ROOT
HETATM    1  C   UNL     1      42.130 -16.304   2.789  1.00  0.00    -0.006 A 
HETATM    2  C   UNL     1      40.808 -16.408   2.329  1.00  0.00     0.016 A 
HETATM    3  C   UNL     1      40.056 -15.277   1.977  1.00  0.00     0.034 A 
HETATM    4  C   UNL     1      40.629 -13.998   2.079  1.00  0.00     0.074 A 
HETATM    5  N   UNL     1      40.014 -12.805   1.751  1.00  0.00    -0.244 NA
HETATM    6  C   UNL     1      40.845 -11.797   1.917  1.00  0.00     0.083 A 
HETATM    7  S   UNL     1      42.373 -12.223   2.592  1.00  0.00    -0.072 SA
HETATM    8  C   UNL     1      41.935 -13.887   2.551  1.00  0.00     0.036 A 
HETATM    9  C   UNL     1      42.691 -15.015   2.914  1.00  0.00     0.035 A 
ENDROOT
BRANCH   6  10
HETATM   10  C   UNL     1      40.510 -10.349   1.624  1.00  0.00     0.074 C 
HETATM   11  C   UNL     1      41.511  -9.690   0.673  1.00  0.00     0.187 C 
HETATM   12  O   UNL     1      41.541 -10.273  -0.633  1.00  0.00    -0.350 OA
HETATM   13  C   UNL     1      40.311 -10.504  -1.189  1.00  0.00     0.075 A 
HETATM   14  C   UNL     1      40.305 -10.809  -2.550  1.00  0.00     0.037 A 
HETATM   15  C   UNL     1      39.116 -10.484  -0.464  1.00  0.00    -0.024 A 
HETATM   16  C   UNL     1      39.102 -11.072  -3.203  1.00  0.00     0.003 A 
HETATM   17  C   UNL     1      37.903 -11.032  -2.493  1.00  0.00     0.001 A 
HETATM   18  C   UNL     1      37.909 -10.738  -1.129  1.00  0.00     0.010 A 
HETATM   19  C   UNL     1      39.114 -10.184   1.012  1.00  0.00     0.055 C 
ENDBRANCH   6  10
BRANCH   1  20
HETATM   20  C   UNL     1      42.930 -17.498   3.139  1.00  0.00     0.071 A 
HETATM   21  C   UNL     1      43.671 -17.589   4.301  1.00  0.00     0.052 A 
HETATM   22  C   UNL     1      44.358 -18.764   4.490  1.00  0.00     0.122 A 
HETATM   23  N   UNL     1      44.333 -19.786   3.619  1.00  0.00    -0.231 NA
HETATM   24  C   UNL     1      43.572 -19.620   2.536  1.00  0.00     0.199 A 
HETATM   25  N   UNL     1      42.880 -18.516   2.249  1.00  0.00    -0.218 NA
BRANCH  24  26
HETATM   26  N   UNL     1      43.537 -20.650   1.620  1.00  0.00    -0.271 NA
HETATM   27  H   UNL     1      44.380 -21.200   1.702  1.00  0.00     0.127 HD
HETATM   28  H   UNL     1      43.311 -20.281   0.707  1.00  0.00     0.127 HD
ENDBRANCH  24  26
ENDBRANCH   1  20
TORSDOF 3
ENDMDL
MODEL 8
REMARK VINA RESULT:      -7.9      3.134      4.590
REMARK  3 active torsions:
REMARK  status: ('A' for Active; 'I' for Inactive)
REMARK    1  A    between atoms: N_1  and  C_2 
REMARK    2  A    between atoms: C_6  and  C_8 
REMARK    3  A    between atoms: C_13  and  C_17 
ROOT
HETATM    1  C   UNL     1      42.008 -16.297   2.874  1.00  0.00    -0.006 A 
HETATM    2  C   UNL     1      41.556 -15.425   3.877  1.00  0.00     0.016 A 
HETATM    3  C   UNL     1      40.753 -14.312   3.581  1.00  0.00     0.034 A 
HETATM    4  C   UNL     1      40.382 -14.052   2.251  1.00  0.00     0.074 A 
HETATM    5  N   UNL     1      39.586 -13.007   1.822  1.00  0.00    -0.244 NA
HETATM    6  C   UNL     1      39.392 -13.082   0.522  1.00  0.00     0.083 A 
HETATM    7  S   UNL     1      40.257 -14.346  -0.268  1.00  0.00    -0.072 SA
HETATM    8  C   UNL     1      40.842 -14.904   1.250  1.00  0.00     0.036 A 
HETATM    9  C   UNL     1      41.653 -16.016   1.538  1.00  0.00     0.035 A 
ENDROOT
BRANCH   6  10
HETATM   10  C   UNL     1      38.542 -12.114  -0.278  1.00  0.00     0.074 C 
HETATM   11  C   UNL     1      38.082 -10.909   0.544  1.00  0.00     0.187 C 
HETATM   12  O   UNL     1      39.152 -10.078   1.004  1.00  0.00    -0.350 OA
HETATM   13  C   UNL     1      40.097  -9.781   0.060  1.00  0.00     0.075 A 
HETATM   14  C   UNL     1      40.992  -8.764   0.391  1.00  0.00     0.037 A 
HETATM   15  C   UNL     1      40.218 -10.459  -1.157  1.00  0.00    -0.024 A 
HETATM   16  C   UNL     1      41.999  -8.397  -0.501  1.00  0.00     0.003 A 
HETATM   17  C   UNL     1      42.113  -9.052  -1.726  1.00  0.00     0.001 A 
HETATM   18  C   UNL     1      41.225 -10.078  -2.055  1.00  0.00     0.010 A 
HETATM   19  C   UNL     1      39.275 -11.577  -1.513  1.00  0.00     0.055 C 
ENDBRANCH   6  10
BRANCH   1  20
HETATM   20  C   UNL     1      42.835 -17.483   3.188  1.00  0.00     0.071 A 
HETATM   21  C   UNL     1      43.583 -17.591   4.344  1.00  0.00     0.052 A 
HETATM   22  C   UNL     1      44.296 -18.755   4.498  1.00  0.00     0.122 A 
HETATM   23  N   UNL     1      44.288 -19.753   3.599  1.00  0.00    -0.231 NA
HETATM   24  C   UNL     1      43.519 -19.574   2.524  1.00  0.00     0.199 A 
HETATM   25  N   UNL     1      42.802 -18.477   2.271  1.00  0.00    -0.218 NA
BRANCH  24  26
HETATM   26  N   UNL     1      43.502 -20.578   1.580  1.00  0.00    -0.271 NA
HETATM   27  H   UNL     1      42.724 -21.196   1.761  1.00  0.00     0.127 HD
HETATM   28  H   UNL     1      44.420 -20.995   1.516  1.00  0.00     0.127 HD
ENDBRANCH  24  26
ENDBRANCH   1  20
TORSDOF 3
ENDMDL
MODEL 9
REMARK VINA RESULT:      -7.7      2.415      3.246
REMARK  3 active torsions:
REMARK  status: ('A' for Active; 'I' for Inactive)
REMARK    1  A    between atoms: N_1  and  C_2 
REMARK    2  A    between atoms: C_6  and  C_8 
REMARK    3  A    between atoms: C_13  and  C_17 
ROOT
HETATM    1  C   UNL     1      42.771 -16.212   2.659  1.00  0.00    -0.006 A 
HETATM    2  C   UNL     1      43.290 -15.014   3.175  1.00  0.00     0.016 A 
HETATM    3  C   UNL     1      42.839 -13.762   2.733  1.00  0.00     0.034 A 
HETATM    4  C   UNL     1      41.838 -13.687   1.748  1.00  0.00     0.074 A 
HETATM    5  N   UNL     1      41.291 -12.527   1.235  1.00  0.00    -0.244 NA
HETATM    6  C   UNL     1      40.344 -12.811   0.366  1.00  0.00     0.083 A 
HETATM    7  S   UNL     1      40.147 -14.490   0.033  1.00  0.00    -0.072 SA
HETATM    8  C   UNL     1      41.332 -14.872   1.220  1.00  0.00     0.036 A 
HETATM    9  C   UNL     1      41.786 -16.131   1.652  1.00  0.00     0.035 A 
ENDROOT
BRANCH   6  10
HETATM   10  C   UNL     1      39.512 -11.778  -0.368  1.00  0.00     0.074 C 
HETATM   11  C   UNL     1      38.060 -11.736   0.112  1.00  0.00     0.187 C 
HETATM   12  O   UNL     1      37.912 -11.340   1.479  1.00  0.00    -0.350 OA
HETATM   13  C   UNL     1      38.654 -10.250   1.846  1.00  0.00     0.075 A 
HETATM   14  C   UNL     1      38.328  -9.677   3.076  1.00  0.00     0.037 A 
HETATM   15  C   UNL     1      39.706  -9.735   1.084  1.00  0.00    -0.024 A 
HETATM   16  C   UNL     1      39.035  -8.570   3.542  1.00  0.00     0.003 A 
HETATM   17  C   UNL     1      40.072  -8.036   2.778  1.00  0.00     0.001 A 
HETATM   18  C   UNL     1      40.406  -8.614   1.553  1.00  0.00     0.010 A 
HETATM   19  C   UNL     1      40.084 -10.363  -0.231  1.00  0.00     0.055 C 
ENDBRANCH   6  10
BRANCH   1  20
HETATM   20  C   UNL     1      43.231 -17.532   3.141  1.00  0.00     0.071 A 
HETATM   21  C   UNL     1      43.647 -17.753   4.440  1.00  0.00     0.052 A 
HETATM   22  C   UNL     1      44.040 -19.034   4.741  1.00  0.00     0.122 A 
HETATM   23  N   UNL     1      44.032 -20.040   3.851  1.00  0.00    -0.231 NA
HETATM   24  C   UNL     1      43.592 -19.743   2.627  1.00  0.00     0.199 A 
HETATM   25  N   UNL     1      43.204 -18.530   2.228  1.00  0.00    -0.218 NA
BRANCH  24  26
HETATM   26  N   UNL     1      43.584 -20.755   1.691  1.00  0.00    -0.271 NA
HETATM   27  H   UNL     1      44.531 -20.946   1.396  1.00  0.00     0.127 HD
HETATM   28  H   UNL     1      42.908 -20.542   0.971  1.00  0.00     0.127 HD
ENDBRANCH  24  26
ENDBRANCH   1  20
TORSDOF 3
ENDMDL
MODEL 10
REMARK VINA RESULT:      -7.7      1.360      2.001
REMARK  3 active torsions:
REMARK  status: ('A' for Active; 'I' for Inactive)
REMARK    1  A    between atoms: N_1  and  C_2 
REMARK    2  A    between atoms: C_6  and  C_8 
REMARK    3  A    between atoms: C_13  and  C_17 
ROOT
HETATM    1  C   UNL     1      42.381 -16.430   2.960  1.00  0.00    -0.006 A 
HETATM    2  C   UNL     1      41.246 -16.323   2.141  1.00  0.00     0.016 A 
HETATM    3  C   UNL     1      40.639 -15.085   1.879  1.00  0.00     0.034 A 
HETATM    4  C   UNL     1      41.170 -13.913   2.442  1.00  0.00     0.074 A 
HETATM    5  N   UNL     1      40.686 -12.632   2.255  1.00  0.00    -0.244 NA
HETATM    6  C   UNL     1      41.443 -11.758   2.884  1.00  0.00     0.083 A 
HETATM    7  S   UNL     1      42.709 -12.445   3.831  1.00  0.00    -0.072 SA
HETATM    8  C   UNL     1      42.285 -14.015   3.270  1.00  0.00     0.036 A 
HETATM    9  C   UNL     1      42.895 -15.253   3.543  1.00  0.00     0.035 A 
ENDROOT
BRANCH   6  10
HETATM   10  C   UNL     1      41.221 -10.259   2.869  1.00  0.00     0.074 C 
HETATM   11  C   UNL     1      39.739  -9.879   2.842  1.00  0.00     0.187 C 
HETATM   12  O   UNL     1      39.015 -10.289   4.006  1.00  0.00    -0.350 OA
HETATM   13  C   UNL     1      39.638 -10.025   5.196  1.00  0.00     0.075 A 
HETATM   14  C   UNL     1      38.850 -10.158   6.339  1.00  0.00     0.037 A 
HETATM   15  C   UNL     1      40.988  -9.681   5.304  1.00  0.00    -0.024 A 
HETATM   16  C   UNL     1      39.399  -9.922   7.599  1.00  0.00     0.003 A 
HETATM   17  C   UNL     1      40.739  -9.555   7.715  1.00  0.00     0.001 A 
HETATM   18  C   UNL     1      41.531  -9.433   6.573  1.00  0.00     0.010 A 
HETATM   19  C   UNL     1      41.855  -9.562   4.079  1.00  0.00     0.055 C 
ENDBRANCH   6  10
BRANCH   1  20
HETATM   20  C   UNL     1      43.035 -17.732   3.218  1.00  0.00     0.071 A 
HETATM   21  C   UNL     1      43.715 -18.010   4.388  1.00  0.00     0.052 A 
HETATM   22  C   UNL     1      44.266 -19.264   4.485  1.00  0.00     0.122 A 
HETATM   23  N   UNL     1      44.167 -20.194   3.520  1.00  0.00    -0.231 NA
HETATM   24  C   UNL     1      43.472 -19.847   2.436  1.00  0.00     0.199 A 
HETATM   25  N   UNL     1      42.913 -18.652   2.235  1.00  0.00    -0.218 NA
BRANCH  24  26
HETATM   26  N   UNL     1      43.365 -20.779   1.425  1.00  0.00    -0.271 NA
HETATM   27  H   UNL     1      42.498 -20.636   0.927  1.00  0.00     0.127 HD
HETATM   28  H   UNL     1      43.539 -21.702   1.798  1.00  0.00     0.127 HD
ENDBRANCH  24  26
ENDBRANCH   1  20
TORSDOF 3
ENDMDL
