MODEL 1
REMARK VINA RESULT:      -9.0      0.000      0.000
REMARK  11 active torsions:
REMARK  status: ('A' for Active; 'I' for Inactive)
REMARK    1  A    between atoms: C_3  and  O_4 
REMARK    2  A    between atoms: O_4  and  C_5 
REMARK    3  A    between atoms: C_10  and  C_11 
REMARK    4  A    between atoms: C_11  and  C_12 
REMARK    5  A    between atoms: C_13  and  C_14 
REMARK    6  A    between atoms: C_17  and  O_18 
REMARK    7  A    between atoms: N_21  and  C_22 
REMARK    8  A    between atoms: C_22  and  C_23 
REMARK    9  A    between atoms: C_23  and  C_24 
REMARK   10  A    between atoms: C_24  and  N_25 
REMARK   11  A    between atoms: C_34  and  O_35 
ROOT
HETATM    1  C   UNL     1      42.024 -13.515   6.037  1.00  0.00     0.059 A 
HETATM    2  C   UNL     1      42.844 -12.454   5.347  1.00  0.00     0.161 A 
HETATM    3  N   UNL     1      41.797 -11.682   4.694  1.00  0.00    -0.333 N 
HETATM    4  C   UNL     1      40.544 -12.102   5.063  1.00  0.00     0.278 A 
HETATM    5  O   UNL     1      39.495 -11.619   4.667  1.00  0.00    -0.265 OA
HETATM    6  C   UNL     1      40.702 -13.327   5.885  1.00  0.00     0.146 A 
ENDROOT
BRANCH   1   7
HETATM    7  C   UNL     1      42.767 -14.662   6.607  1.00  0.00     0.193 C 
HETATM    8  O   UNL     1      43.003 -14.689   7.810  1.00  0.00    -0.287 OA
BRANCH   7   9
HETATM    9  C   UNL     1      43.321 -15.711   5.724  1.00  0.00     0.015 A 
HETATM   10  C   UNL     1      44.057 -16.792   6.220  1.00  0.00     0.018 A 
HETATM   11  C   UNL     1      44.437 -17.820   5.354  1.00  0.00     0.038 A 
HETATM   12  C   UNL     1      44.092 -17.762   4.000  1.00  0.00     0.075 A 
HETATM   13  C   UNL     1      43.443 -16.633   3.479  1.00  0.00    -0.028 A 
HETATM   14  C   UNL     1      43.179 -16.503   2.004  1.00  0.00     0.051 C 
HETATM   15  C   UNL     1      43.058 -15.610   4.353  1.00  0.00     0.025 A 
BRANCH  12  16
HETATM   16  O   UNL     1      44.403 -18.767   3.125  1.00  0.00    -0.346 OA
BRANCH  16  17
HETATM   17  C   UNL     1      43.441 -19.835   3.049  1.00  0.00     0.121 C 
HETATM   18  C   UNL     1      43.285 -20.368   1.622  1.00  0.00     0.040 C 
HETATM   19  C   UNL     1      43.965 -20.949   3.952  1.00  0.00     0.040 C 
ENDBRANCH  16  17
ENDBRANCH  12  16
ENDBRANCH   7   9
ENDBRANCH   1   7
BRANCH   2  20
HETATM   20  C   UNL     1      43.684 -11.614   6.293  1.00  0.00    -0.030 A 
HETATM   21  C   UNL     1      45.084 -11.748   6.273  1.00  0.00     0.012 A 
HETATM   22  C   UNL     1      45.892 -10.989   7.123  1.00  0.00     0.037 A 
HETATM   23  C   UNL     1      45.302 -10.091   8.004  1.00  0.00     0.065 A 
HETATM   24  C   UNL     1      43.922  -9.950   8.055  1.00  0.00     0.037 A 
HETATM   25  C   UNL     1      43.113 -10.713   7.210  1.00  0.00     0.012 A 
BRANCH  23  26
HETATM   26  O   UNL     1      46.048  -9.323   8.846  1.00  0.00    -0.361 OA
HETATM   27  H   UNL     1      46.772  -8.911   8.344  1.00  0.00     0.217 HD
ENDBRANCH  23  26
ENDBRANCH   2  20
BRANCH   6  28
HETATM   28  O   UNL     1      39.631 -14.106   6.203  1.00  0.00    -0.355 OA
HETATM   29  H   UNL     1      38.850 -13.566   6.408  1.00  0.00     0.218 HD
ENDBRANCH   6  28
BRANCH   3  30
HETATM   30  C   UNL     1      42.062 -10.641   3.718  1.00  0.00     0.129 C 
BRANCH  30  31
HETATM   31  C   UNL     1      42.254 -11.165   2.289  1.00  0.00     0.048 C 
BRANCH  31  32
HETATM   32  C   UNL     1      41.103 -10.966   1.298  1.00  0.00     0.236 C 
BRANCH  32  33
HETATM   33  N   UNL     1      40.390 -12.233   0.917  1.00  0.00    -0.067 N 
HETATM   34  H   UNL     1      39.417 -12.152   1.279  1.00  0.00     0.280 HD
HETATM   35  C   UNL     1      40.350 -12.536  -0.569  1.00  0.00     0.261 C 
HETATM   36  C   UNL     1      39.567 -13.831  -0.815  1.00  0.00     0.195 C 
HETATM   37  O   UNL     1      40.135 -14.924  -0.088  1.00  0.00    -0.388 OA
HETATM   38  C   UNL     1      40.105 -14.684   1.324  1.00  0.00     0.195 C 
HETATM   39  C   UNL     1      40.935 -13.443   1.680  1.00  0.00     0.261 C 
ENDBRANCH  32  33
ENDBRANCH  31  32
ENDBRANCH  30  31
ENDBRANCH   3  30
TORSDOF 11
ENDMDL
MODEL 2
REMARK VINA RESULT:      -8.3      2.326      6.196
REMARK  11 active torsions:
REMARK  status: ('A' for Active; 'I' for Inactive)
REMARK    1  A    between atoms: C_3  and  O_4 
REMARK    2  A    between atoms: O_4  and  C_5 
REMARK    3  A    between atoms: C_10  and  C_11 
REMARK    4  A    between atoms: C_11  and  C_12 
REMARK    5  A    between atoms: C_13  and  C_14 
REMARK    6  A    between atoms: C_17  and  O_18 
REMARK    7  A    between atoms: N_21  and  C_22 
REMARK    8  A    between atoms: C_22  and  C_23 
REMARK    9  A    between atoms: C_23  and  C_24 
REMARK   10  A    between atoms: C_24  and  N_25 
REMARK   11  A    between atoms: C_34  and  O_35 
ROOT
HETATM    1  C   UNL     1      40.834 -11.251   3.722  1.00  0.00     0.059 A 
HETATM    2  C   UNL     1      41.311 -11.241   5.152  1.00  0.00     0.161 A 
HETATM    3  N   UNL     1      40.222 -10.524   5.798  1.00  0.00    -0.333 N 
HETATM    4  C   UNL     1      39.181 -10.288   4.936  1.00  0.00     0.278 A 
HETATM    5  O   UNL     1      38.143  -9.713   5.226  1.00  0.00    -0.265 OA
HETATM    6  C   UNL     1      39.613 -10.709   3.580  1.00  0.00     0.146 A 
ENDROOT
BRANCH   1   7
HETATM    7  C   UNL     1      41.816 -11.676   2.698  1.00  0.00     0.193 C 
HETATM    8  O   UNL     1      42.383 -10.827   2.018  1.00  0.00    -0.287 OA
BRANCH   7   9
HETATM    9  C   UNL     1      42.034 -13.111   2.415  1.00  0.00     0.015 A 
HETATM   10  C   UNL     1      43.306 -13.691   2.429  1.00  0.00     0.018 A 
HETATM   11  C   UNL     1      43.433 -15.075   2.287  1.00  0.00     0.038 A 
HETATM   12  C   UNL     1      42.296 -15.871   2.121  1.00  0.00     0.075 A 
HETATM   13  C   UNL     1      41.027 -15.285   2.004  1.00  0.00    -0.028 A 
HETATM   14  C   UNL     1      39.813 -16.118   1.701  1.00  0.00     0.051 C 
HETATM   15  C   UNL     1      40.906 -13.898   2.155  1.00  0.00     0.025 A 
BRANCH  12  16
HETATM   16  O   UNL     1      42.369 -17.234   2.025  1.00  0.00    -0.346 OA
BRANCH  16  17
HETATM   17  C   UNL     1      43.467 -17.842   2.728  1.00  0.00     0.121 C 
HETATM   18  C   UNL     1      43.325 -17.704   4.247  1.00  0.00     0.040 C 
HETATM   19  C   UNL     1      43.454 -19.321   2.349  1.00  0.00     0.040 C 
ENDBRANCH  16  17
ENDBRANCH  12  16
ENDBRANCH   7   9
ENDBRANCH   1   7
BRANCH   2  20
HETATM   20  C   UNL     1      41.527 -12.625   5.739  1.00  0.00    -0.030 A 
HETATM   21  C   UNL     1      42.810 -12.991   6.184  1.00  0.00     0.012 A 
HETATM   22  C   UNL     1      43.049 -14.253   6.734  1.00  0.00     0.037 A 
HETATM   23  C   UNL     1      42.002 -15.160   6.840  1.00  0.00     0.065 A 
HETATM   24  C   UNL     1      40.729 -14.830   6.394  1.00  0.00     0.037 A 
HETATM   25  C   UNL     1      40.492 -13.572   5.838  1.00  0.00     0.012 A 
BRANCH  23  26
HETATM   26  O   UNL     1      42.183 -16.398   7.378  1.00  0.00    -0.361 OA
HETATM   27  H   UNL     1      43.102 -16.678   7.231  1.00  0.00     0.217 HD
ENDBRANCH  23  26
ENDBRANCH   2  20
BRANCH   6  28
HETATM   28  O   UNL     1      38.885 -10.385   2.475  1.00  0.00    -0.355 OA
HETATM   29  H   UNL     1      38.694 -11.171   1.936  1.00  0.00     0.218 HD
ENDBRANCH   6  28
BRANCH   3  30
HETATM   30  C   UNL     1      40.274 -10.060   7.172  1.00  0.00     0.129 C 
BRANCH  30  31
HETATM   31  C   UNL     1      41.408  -9.065   7.448  1.00  0.00     0.048 C 
BRANCH  31  32
HETATM   32  C   UNL     1      42.714  -9.618   8.030  1.00  0.00     0.236 C 
BRANCH  32  33
HETATM   33  N   UNL     1      42.608 -10.077   9.457  1.00  0.00    -0.067 N 
HETATM   34  H   UNL     1      42.010 -10.930   9.455  1.00  0.00     0.280 HD
HETATM   35  C   UNL     1      43.927 -10.388  10.140  1.00  0.00     0.261 C 
HETATM   36  C   UNL     1      43.670 -10.875  11.570  1.00  0.00     0.195 C 
HETATM   37  O   UNL     1      42.923  -9.911  12.319  1.00  0.00    -0.388 OA
HETATM   38  C   UNL     1      41.641  -9.668  11.726  1.00  0.00     0.195 C 
HETATM   39  C   UNL     1      41.798  -9.098  10.311  1.00  0.00     0.261 C 
ENDBRANCH  32  33
ENDBRANCH  31  32
ENDBRANCH  30  31
ENDBRANCH   3  30
TORSDOF 11
ENDMDL
MODEL 3
REMARK VINA RESULT:      -8.2      2.080      5.744
REMARK  11 active torsions:
REMARK  status: ('A' for Active; 'I' for Inactive)
REMARK    1  A    between atoms: C_3  and  O_4 
REMARK    2  A    between atoms: O_4  and  C_5 
REMARK    3  A    between atoms: C_10  and  C_11 
REMARK    4  A    between atoms: C_11  and  C_12 
REMARK    5  A    between atoms: C_13  and  C_14 
REMARK    6  A    between atoms: C_17  and  O_18 
REMARK    7  A    between atoms: N_21  and  C_22 
REMARK    8  A    between atoms: C_22  and  C_23 
REMARK    9  A    between atoms: C_23  and  C_24 
REMARK   10  A    between atoms: C_24  and  N_25 
REMARK   11  A    between atoms: C_34  and  O_35 
ROOT
HETATM    1  C   UNL     1      41.746 -13.418   6.014  1.00  0.00     0.059 A 
HETATM    2  C   UNL     1      40.793 -12.542   5.240  1.00  0.00     0.161 A 
HETATM    3  N   UNL     1      41.268 -11.220   5.619  1.00  0.00    -0.333 N 
HETATM    4  C   UNL     1      42.420 -11.284   6.362  1.00  0.00     0.278 A 
HETATM    5  O   UNL     1      43.029 -10.319   6.800  1.00  0.00    -0.265 OA
HETATM    6  C   UNL     1      42.686 -12.712   6.663  1.00  0.00     0.146 A 
ENDROOT
BRANCH   1   7
HETATM    7  C   UNL     1      41.410 -14.859   6.088  1.00  0.00     0.193 C 
HETATM    8  O   UNL     1      40.450 -15.220   6.759  1.00  0.00    -0.287 OA
BRANCH   7   9
HETATM    9  C   UNL     1      42.286 -15.868   5.455  1.00  0.00     0.015 A 
HETATM   10  C   UNL     1      42.946 -16.854   6.194  1.00  0.00     0.018 A 
HETATM   11  C   UNL     1      43.649 -17.860   5.527  1.00  0.00     0.038 A 
HETATM   12  C   UNL     1      43.701 -17.871   4.130  1.00  0.00     0.075 A 
HETATM   13  C   UNL     1      43.128 -16.828   3.387  1.00  0.00    -0.028 A 
HETATM   14  C   UNL     1      43.286 -16.763   1.893  1.00  0.00     0.051 C 
HETATM   15  C   UNL     1      42.418 -15.828   4.062  1.00  0.00     0.025 A 
BRANCH  12  16
HETATM   16  O   UNL     1      44.340 -18.861   3.433  1.00  0.00    -0.346 OA
BRANCH  16  17
HETATM   17  C   UNL     1      43.538 -20.018   3.135  1.00  0.00     0.121 C 
HETATM   18  C   UNL     1      43.747 -20.509   1.699  1.00  0.00     0.040 C 
HETATM   19  C   UNL     1      43.975 -21.106   4.112  1.00  0.00     0.040 C 
ENDBRANCH  16  17
ENDBRANCH  12  16
ENDBRANCH   7   9
ENDBRANCH   1   7
BRANCH   2  20
HETATM   20  C   UNL     1      40.830 -12.767   3.739  1.00  0.00    -0.030 A 
HETATM   21  C   UNL     1      41.987 -12.417   3.019  1.00  0.00     0.012 A 
HETATM   22  C   UNL     1      42.063 -12.613   1.638  1.00  0.00     0.037 A 
HETATM   23  C   UNL     1      40.976 -13.160   0.966  1.00  0.00     0.065 A 
HETATM   24  C   UNL     1      39.817 -13.499   1.649  1.00  0.00     0.037 A 
HETATM   25  C   UNL     1      39.738 -13.297   3.029  1.00  0.00     0.012 A 
BRANCH  23  26
HETATM   26  O   UNL     1      41.005 -13.379  -0.378  1.00  0.00    -0.361 OA
HETATM   27  H   UNL     1      41.471 -12.643  -0.811  1.00  0.00     0.217 HD
ENDBRANCH  23  26
ENDBRANCH   2  20
BRANCH   6  28
HETATM   28  O   UNL     1      43.628 -13.077   7.576  1.00  0.00    -0.355 OA
HETATM   29  H   UNL     1      43.832 -12.347   8.184  1.00  0.00     0.218 HD
ENDBRANCH   6  28
BRANCH   3  30
HETATM   30  C   UNL     1      40.560  -9.994   5.302  1.00  0.00     0.129 C 
BRANCH  30  31
HETATM   31  C   UNL     1      39.322  -9.749   6.174  1.00  0.00     0.048 C 
BRANCH  31  32
HETATM   32  C   UNL     1      39.414  -8.660   7.249  1.00  0.00     0.236 C 
BRANCH  32  33
HETATM   33  N   UNL     1      40.769  -8.534   7.886  1.00  0.00    -0.067 N 
HETATM   34  H   UNL     1      41.382  -9.243   7.432  1.00  0.00     0.280 HD
HETATM   35  C   UNL     1      41.414  -7.165   7.776  1.00  0.00     0.261 C 
HETATM   36  C   UNL     1      42.798  -7.188   8.434  1.00  0.00     0.195 C 
HETATM   37  O   UNL     1      42.714  -7.602   9.801  1.00  0.00    -0.388 OA
HETATM   38  C   UNL     1      42.179  -8.927   9.912  1.00  0.00     0.195 C 
HETATM   39  C   UNL     1      40.754  -8.985   9.348  1.00  0.00     0.261 C 
ENDBRANCH  32  33
ENDBRANCH  31  32
ENDBRANCH  30  31
ENDBRANCH   3  30
TORSDOF 11
ENDMDL
MODEL 4
REMARK VINA RESULT:      -8.1      4.303      7.941
REMARK  11 active torsions:
REMARK  status: ('A' for Active; 'I' for Inactive)
REMARK    1  A    between atoms: C_3  and  O_4 
REMARK    2  A    between atoms: O_4  and  C_5 
REMARK    3  A    between atoms: C_10  and  C_11 
REMARK    4  A    between atoms: C_11  and  C_12 
REMARK    5  A    between atoms: C_13  and  C_14 
REMARK    6  A    between atoms: C_17  and  O_18 
REMARK    7  A    between atoms: N_21  and  C_22 
REMARK    8  A    between atoms: C_22  and  C_23 
REMARK    9  A    between atoms: C_23  and  C_24 
REMARK   10  A    between atoms: C_24  and  N_25 
REMARK   11  A    between atoms: C_34  and  O_35 
ROOT
HETATM    1  C   UNL     1      40.143 -11.466   0.830  1.00  0.00     0.059 A 
HETATM    2  C   UNL     1      39.406 -11.004  -0.403  1.00  0.00     0.161 A 
HETATM    3  N   UNL     1      40.353 -10.041  -0.943  1.00  0.00    -0.333 N 
HETATM    4  C   UNL     1      41.537 -10.042  -0.248  1.00  0.00     0.278 A 
HETATM    5  O   UNL     1      42.501  -9.334  -0.500  1.00  0.00    -0.265 OA
HETATM    6  C   UNL     1      41.367 -10.923   0.933  1.00  0.00     0.146 A 
ENDROOT
BRANCH   1   7
HETATM    7  C   UNL     1      39.371 -12.276   1.800  1.00  0.00     0.193 C 
HETATM    8  O   UNL     1      38.346 -11.813   2.290  1.00  0.00    -0.287 OA
BRANCH   7   9
HETATM    9  C   UNL     1      39.884 -13.582   2.264  1.00  0.00     0.015 A 
HETATM   10  C   UNL     1      40.104 -14.652   1.390  1.00  0.00     0.018 A 
HETATM   11  C   UNL     1      40.716 -15.814   1.865  1.00  0.00     0.038 A 
HETATM   12  C   UNL     1      41.094 -15.910   3.207  1.00  0.00     0.075 A 
HETATM   13  C   UNL     1      40.783 -14.882   4.110  1.00  0.00    -0.028 A 
HETATM   14  C   UNL     1      41.072 -15.027   5.578  1.00  0.00     0.051 C 
HETATM   15  C   UNL     1      40.177 -13.717   3.626  1.00  0.00     0.025 A 
BRANCH  12  16
HETATM   16  O   UNL     1      41.737 -17.010   3.706  1.00  0.00    -0.346 OA
BRANCH  16  17
HETATM   17  C   UNL     1      43.138 -17.101   3.388  1.00  0.00     0.121 C 
HETATM   18  C   UNL     1      44.006 -17.223   4.644  1.00  0.00     0.040 C 
HETATM   19  C   UNL     1      43.304 -18.354   2.532  1.00  0.00     0.040 C 
ENDBRANCH  16  17
ENDBRANCH  12  16
ENDBRANCH   7   9
ENDBRANCH   1   7
BRANCH   2  20
HETATM   20  C   UNL     1      39.086 -12.120  -1.382  1.00  0.00    -0.030 A 
HETATM   21  C   UNL     1      40.127 -12.935  -1.861  1.00  0.00     0.012 A 
HETATM   22  C   UNL     1      39.873 -13.975  -2.759  1.00  0.00     0.037 A 
HETATM   23  C   UNL     1      38.571 -14.203  -3.187  1.00  0.00     0.065 A 
HETATM   24  C   UNL     1      37.527 -13.404  -2.743  1.00  0.00     0.037 A 
HETATM   25  C   UNL     1      37.782 -12.360  -1.850  1.00  0.00     0.012 A 
BRANCH  23  26
HETATM   26  O   UNL     1      38.272 -15.210  -4.054  1.00  0.00    -0.361 OA
HETATM   27  H   UNL     1      38.488 -14.926  -4.959  1.00  0.00     0.217 HD
ENDBRANCH  23  26
ENDBRANCH   2  20
BRANCH   6  28
HETATM   28  O   UNL     1      42.289 -10.944   1.935  1.00  0.00    -0.355 OA
HETATM   29  H   UNL     1      43.088 -11.430   1.670  1.00  0.00     0.218 HD
ENDBRANCH   6  28
BRANCH   3  30
HETATM   30  C   UNL     1      40.043  -9.144  -2.041  1.00  0.00     0.129 C 
BRANCH  30  31
HETATM   31  C   UNL     1      40.675  -9.557  -3.376  1.00  0.00     0.048 C 
BRANCH  31  32
HETATM   32  C   UNL     1      40.153  -8.883  -4.649  1.00  0.00     0.236 C 
BRANCH  32  33
HETATM   33  N   UNL     1      41.175  -8.050  -5.371  1.00  0.00    -0.067 N 
HETATM   34  H   UNL     1      41.792  -8.711  -5.887  1.00  0.00     0.280 HD
HETATM   35  C   UNL     1      40.614  -7.025  -6.338  1.00  0.00     0.261 C 
HETATM   36  C   UNL     1      41.761  -6.276  -7.026  1.00  0.00     0.195 C 
HETATM   37  O   UNL     1      42.620  -5.652  -6.066  1.00  0.00    -0.388 OA
HETATM   38  C   UNL     1      43.219  -6.620  -5.196  1.00  0.00     0.195 C 
HETATM   39  C   UNL     1      42.144  -7.371  -4.400  1.00  0.00     0.261 C 
ENDBRANCH  32  33
ENDBRANCH  31  32
ENDBRANCH  30  31
ENDBRANCH   3  30
TORSDOF 11
ENDMDL
MODEL 5
REMARK VINA RESULT:      -8.1      2.734      6.970
REMARK  11 active torsions:
REMARK  status: ('A' for Active; 'I' for Inactive)
REMARK    1  A    between atoms: C_3  and  O_4 
REMARK    2  A    between atoms: O_4  and  C_5 
REMARK    3  A    between atoms: C_10  and  C_11 
REMARK    4  A    between atoms: C_11  and  C_12 
REMARK    5  A    between atoms: C_13  and  C_14 
REMARK    6  A    between atoms: C_17  and  O_18 
REMARK    7  A    between atoms: N_21  and  C_22 
REMARK    8  A    between atoms: C_22  and  C_23 
REMARK    9  A    between atoms: C_23  and  C_24 
REMARK   10  A    between atoms: C_24  and  N_25 
REMARK   11  A    between atoms: C_34  and  O_35 
ROOT
HETATM    1  C   UNL     1      43.091 -12.824   5.369  1.00  0.00     0.059 A 
HETATM    2  C   UNL     1      42.090 -12.695   4.249  1.00  0.00     0.161 A 
HETATM    3  N   UNL     1      41.756 -14.092   4.019  1.00  0.00    -0.333 N 
HETATM    4  C   UNL     1      42.329 -14.917   4.955  1.00  0.00     0.278 A 
HETATM    5  O   UNL     1      42.202 -16.131   4.995  1.00  0.00    -0.265 OA
HETATM    6  C   UNL     1      43.240 -14.092   5.786  1.00  0.00     0.146 A 
ENDROOT
BRANCH   1   7
HETATM    7  C   UNL     1      43.866 -11.608   5.710  1.00  0.00     0.193 C 
HETATM    8  O   UNL     1      44.766 -11.239   4.963  1.00  0.00    -0.287 OA
BRANCH   7   9
HETATM    9  C   UNL     1      43.638 -10.906   6.991  1.00  0.00     0.015 A 
HETATM   10  C   UNL     1      44.491 -11.058   8.088  1.00  0.00     0.018 A 
HETATM   11  C   UNL     1      44.300 -10.265   9.223  1.00  0.00     0.038 A 
HETATM   12  C   UNL     1      43.256  -9.337   9.263  1.00  0.00     0.075 A 
HETATM   13  C   UNL     1      42.336  -9.253   8.207  1.00  0.00    -0.028 A 
HETATM   14  C   UNL     1      41.138  -8.348   8.293  1.00  0.00     0.051 C 
HETATM   15  C   UNL     1      42.538 -10.044   7.070  1.00  0.00     0.025 A 
BRANCH  12  16
HETATM   16  O   UNL     1      43.059  -8.509  10.334  1.00  0.00    -0.346 OA
BRANCH  16  17
HETATM   17  C   UNL     1      43.096  -9.149  11.622  1.00  0.00     0.121 C 
HETATM   18  C   UNL     1      43.360  -8.152  12.754  1.00  0.00     0.040 C 
HETATM   19  C   UNL     1      41.726  -9.793  11.822  1.00  0.00     0.040 C 
ENDBRANCH  16  17
ENDBRANCH  12  16
ENDBRANCH   7   9
ENDBRANCH   1   7
BRANCH   2  20
HETATM   20  C   UNL     1      40.876 -11.855   4.602  1.00  0.00    -0.030 A 
HETATM   21  C   UNL     1      40.579 -10.716   3.834  1.00  0.00     0.012 A 
HETATM   22  C   UNL     1      39.467  -9.920   4.123  1.00  0.00     0.037 A 
HETATM   23  C   UNL     1      38.645 -10.260   5.190  1.00  0.00     0.065 A 
HETATM   24  C   UNL     1      38.923 -11.371   5.975  1.00  0.00     0.037 A 
HETATM   25  C   UNL     1      40.038 -12.162   5.690  1.00  0.00     0.012 A 
BRANCH  23  26
HETATM   26  O   UNL     1      37.545  -9.522   5.507  1.00  0.00    -0.361 OA
HETATM   27  H   UNL     1      36.899  -9.587   4.783  1.00  0.00     0.217 HD
ENDBRANCH  23  26
ENDBRANCH   2  20
BRANCH   6  28
HETATM   28  O   UNL     1      44.124 -14.668   6.648  1.00  0.00    -0.355 OA
HETATM   29  H   UNL     1      44.734 -14.009   7.019  1.00  0.00     0.218 HD
ENDBRANCH   6  28
BRANCH   3  30
HETATM   30  C   UNL     1      40.967 -14.551   2.891  1.00  0.00     0.129 C 
BRANCH  30  31
HETATM   31  C   UNL     1      41.572 -14.197   1.527  1.00  0.00     0.048 C 
BRANCH  31  32
HETATM   32  C   UNL     1      40.899 -13.084   0.716  1.00  0.00     0.236 C 
BRANCH  32  33
HETATM   33  N   UNL     1      40.797 -13.367  -0.756  1.00  0.00    -0.067 N 
HETATM   34  H   UNL     1      41.629 -13.940  -1.011  1.00  0.00     0.280 HD
HETATM   35  C   UNL     1      39.536 -14.089  -1.194  1.00  0.00     0.261 C 
HETATM   36  C   UNL     1      39.580 -14.342  -2.705  1.00  0.00     0.195 C 
HETATM   37  O   UNL     1      39.745 -13.120  -3.430  1.00  0.00    -0.388 OA
HETATM   38  C   UNL     1      40.973 -12.468  -3.082  1.00  0.00     0.195 C 
HETATM   39  C   UNL     1      40.988 -12.100  -1.593  1.00  0.00     0.261 C 
ENDBRANCH  32  33
ENDBRANCH  31  32
ENDBRANCH  30  31
ENDBRANCH   3  30
TORSDOF 11
ENDMDL
MODEL 6
REMARK VINA RESULT:      -8.0      2.472      7.784
REMARK  11 active torsions:
REMARK  status: ('A' for Active; 'I' for Inactive)
REMARK    1  A    between atoms: C_3  and  O_4 
REMARK    2  A    between atoms: O_4  and  C_5 
REMARK    3  A    between atoms: C_10  and  C_11 
REMARK    4  A    between atoms: C_11  and  C_12 
REMARK    5  A    between atoms: C_13  and  C_14 
REMARK    6  A    between atoms: C_17  and  O_18 
REMARK    7  A    between atoms: N_21  and  C_22 
REMARK    8  A    between atoms: C_22  and  C_23 
REMARK    9  A    between atoms: C_23  and  C_24 
REMARK   10  A    between atoms: C_24  and  N_25 
REMARK   11  A    between atoms: C_34  and  O_35 
ROOT
HETATM    1  C   UNL     1      43.288 -12.793   5.665  1.00  0.00     0.059 A 
HETATM    2  C   UNL     1      42.946 -13.075   4.224  1.00  0.00     0.161 A 
HETATM    3  N   UNL     1      42.459 -14.443   4.322  1.00  0.00    -0.333 N 
HETATM    4  C   UNL     1      42.363 -14.861   5.625  1.00  0.00     0.278 A 
HETATM    5  O   UNL     1      41.974 -15.962   5.984  1.00  0.00    -0.265 OA
HETATM    6  C   UNL     1      42.959 -13.807   6.482  1.00  0.00     0.146 A 
ENDROOT
BRANCH   1   7
HETATM    7  C   UNL     1      44.070 -11.564   5.933  1.00  0.00     0.193 C 
HETATM    8  O   UNL     1      45.047 -11.308   5.238  1.00  0.00    -0.287 OA
BRANCH   7   9
HETATM    9  C   UNL     1      43.749 -10.708   7.095  1.00  0.00     0.015 A 
HETATM   10  C   UNL     1      42.547 -10.000   7.193  1.00  0.00     0.018 A 
HETATM   11  C   UNL     1      42.244  -9.318   8.373  1.00  0.00     0.038 A 
HETATM   12  C   UNL     1      43.142  -9.334   9.444  1.00  0.00     0.075 A 
HETATM   13  C   UNL     1      44.393  -9.957   9.315  1.00  0.00    -0.028 A 
HETATM   14  C   UNL     1      45.416  -9.874  10.414  1.00  0.00     0.051 C 
HETATM   15  C   UNL     1      44.687 -10.645   8.133  1.00  0.00     0.025 A 
BRANCH  12  16
HETATM   16  O   UNL     1      42.867  -8.719  10.635  1.00  0.00    -0.346 OA
BRANCH  16  17
HETATM   17  C   UNL     1      41.879  -9.373  11.451  1.00  0.00     0.121 C 
HETATM   18  C   UNL     1      42.472  -9.902  12.760  1.00  0.00     0.040 C 
HETATM   19  C   UNL     1      40.817  -8.322  11.765  1.00  0.00     0.040 C 
ENDBRANCH  16  17
ENDBRANCH  12  16
ENDBRANCH   7   9
ENDBRANCH   1   7
BRANCH   2  20
HETATM   20  C   UNL     1      41.912 -12.128   3.641  1.00  0.00    -0.030 A 
HETATM   21  C   UNL     1      42.253 -11.338   2.528  1.00  0.00     0.012 A 
HETATM   22  C   UNL     1      41.329 -10.458   1.959  1.00  0.00     0.037 A 
HETATM   23  C   UNL     1      40.054 -10.362   2.504  1.00  0.00     0.065 A 
HETATM   24  C   UNL     1      39.696 -11.119   3.611  1.00  0.00     0.037 A 
HETATM   25  C   UNL     1      40.622 -11.993   4.185  1.00  0.00     0.012 A 
BRANCH  23  26
HETATM   26  O   UNL     1      39.116  -9.526   1.979  1.00  0.00    -0.361 OA
HETATM   27  H   UNL     1      38.766  -9.915   1.159  1.00  0.00     0.217 HD
ENDBRANCH  23  26
ENDBRANCH   2  20
BRANCH   6  28
HETATM   28  O   UNL     1      43.221 -14.034   7.800  1.00  0.00    -0.355 OA
HETATM   29  H   UNL     1      43.533 -13.227   8.242  1.00  0.00     0.218 HD
ENDBRANCH   6  28
BRANCH   3  30
HETATM   30  C   UNL     1      42.178 -15.276   3.167  1.00  0.00     0.129 C 
BRANCH  30  31
HETATM   31  C   UNL     1      43.398 -16.048   2.649  1.00  0.00     0.048 C 
BRANCH  31  32
HETATM   32  C   UNL     1      43.159 -17.441   2.055  1.00  0.00     0.236 C 
BRANCH  32  33
HETATM   33  N   UNL     1      43.250 -18.561   3.053  1.00  0.00    -0.067 N 
HETATM   34  H   UNL     1      42.293 -18.698   3.440  1.00  0.00     0.280 HD
HETATM   35  C   UNL     1      43.766 -19.879   2.506  1.00  0.00     0.261 C 
HETATM   36  C   UNL     1      43.774 -20.935   3.617  1.00  0.00     0.195 C 
HETATM   37  O   UNL     1      44.558 -20.506   4.734  1.00  0.00    -0.388 OA
HETATM   38  C   UNL     1      44.033 -19.303   5.309  1.00  0.00     0.195 C 
HETATM   39  C   UNL     1      44.060 -18.158   4.288  1.00  0.00     0.261 C 
ENDBRANCH  32  33
ENDBRANCH  31  32
ENDBRANCH  30  31
ENDBRANCH   3  30
TORSDOF 11
ENDMDL
MODEL 7
REMARK VINA RESULT:      -7.8      1.922      7.646
REMARK  11 active torsions:
REMARK  status: ('A' for Active; 'I' for Inactive)
REMARK    1  A    between atoms: C_3  and  O_4 
REMARK    2  A    between atoms: O_4  and  C_5 
REMARK    3  A    between atoms: C_10  and  C_11 
REMARK    4  A    between atoms: C_11  and  C_12 
REMARK    5  A    between atoms: C_13  and  C_14 
REMARK    6  A    between atoms: C_17  and  O_18 
REMARK    7  A    between atoms: N_21  and  C_22 
REMARK    8  A    between atoms: C_22  and  C_23 
REMARK    9  A    between atoms: C_23  and  C_24 
REMARK   10  A    between atoms: C_24  and  N_25 
REMARK   11  A    between atoms: C_34  and  O_35 
ROOT
HETATM    1  C   UNL     1      41.075 -14.408   3.559  1.00  0.00     0.059 A 
HETATM    2  C   UNL     1      42.502 -14.524   4.033  1.00  0.00     0.161 A 
HETATM    3  N   UNL     1      42.503 -13.572   5.133  1.00  0.00    -0.333 N 
HETATM    4  C   UNL     1      41.245 -13.086   5.391  1.00  0.00     0.278 A 
HETATM    5  O   UNL     1      40.968 -12.281   6.267  1.00  0.00    -0.265 OA
HETATM    6  C   UNL     1      40.341 -13.587   4.328  1.00  0.00     0.146 A 
ENDROOT
BRANCH   1   7
HETATM    7  C   UNL     1      40.753 -15.047   2.262  1.00  0.00     0.193 C 
HETATM    8  O   UNL     1      40.714 -16.271   2.187  1.00  0.00    -0.287 OA
BRANCH   7   9
HETATM    9  C   UNL     1      40.590 -14.230   1.041  1.00  0.00     0.015 A 
HETATM   10  C   UNL     1      41.121 -12.941   0.928  1.00  0.00     0.018 A 
HETATM   11  C   UNL     1      41.051 -12.273  -0.297  1.00  0.00     0.038 A 
HETATM   12  C   UNL     1      40.442 -12.885  -1.396  1.00  0.00     0.075 A 
HETATM   13  C   UNL     1      39.817 -14.133  -1.261  1.00  0.00    -0.028 A 
HETATM   14  C   UNL     1      39.052 -14.744  -2.402  1.00  0.00     0.051 C 
HETATM   15  C   UNL     1      39.898 -14.801  -0.034  1.00  0.00     0.025 A 
BRANCH  12  16
HETATM   16  O   UNL     1      40.390 -12.287  -2.626  1.00  0.00    -0.346 OA
BRANCH  16  17
HETATM   17  C   UNL     1      39.970 -10.911  -2.624  1.00  0.00     0.121 C 
HETATM   18  C   UNL     1      40.720 -10.079  -3.669  1.00  0.00     0.040 C 
HETATM   19  C   UNL     1      38.480 -10.916  -2.953  1.00  0.00     0.040 C 
ENDBRANCH  16  17
ENDBRANCH  12  16
ENDBRANCH   7   9
ENDBRANCH   1   7
BRANCH   2  20
HETATM   20  C   UNL     1      42.893 -15.924   4.472  1.00  0.00    -0.030 A 
HETATM   21  C   UNL     1      43.623 -16.743   3.593  1.00  0.00     0.012 A 
HETATM   22  C   UNL     1      44.006 -18.035   3.961  1.00  0.00     0.037 A 
HETATM   23  C   UNL     1      43.655 -18.518   5.216  1.00  0.00     0.065 A 
HETATM   24  C   UNL     1      42.921 -17.737   6.098  1.00  0.00     0.037 A 
HETATM   25  C   UNL     1      42.532 -16.448   5.727  1.00  0.00     0.012 A 
BRANCH  23  26
HETATM   26  O   UNL     1      44.013 -19.767   5.625  1.00  0.00    -0.361 OA
HETATM   27  H   UNL     1      44.952 -19.913   5.419  1.00  0.00     0.217 HD
ENDBRANCH  23  26
ENDBRANCH   2  20
BRANCH   6  28
HETATM   28  O   UNL     1      39.081 -13.089   4.181  1.00  0.00    -0.355 OA
HETATM   29  H   UNL     1      38.760 -12.694   5.008  1.00  0.00     0.218 HD
ENDBRANCH   6  28
BRANCH   3  30
HETATM   30  C   UNL     1      43.707 -13.145   5.821  1.00  0.00     0.129 C 
BRANCH  30  31
HETATM   31  C   UNL     1      44.190 -11.747   5.416  1.00  0.00     0.048 C 
BRANCH  31  32
HETATM   32  C   UNL     1      45.329 -11.124   6.230  1.00  0.00     0.236 C 
BRANCH  32  33
HETATM   33  N   UNL     1      44.931 -10.675   7.608  1.00  0.00    -0.067 N 
HETATM   34  H   UNL     1      44.795 -11.537   8.177  1.00  0.00     0.280 HD
HETATM   35  C   UNL     1      45.920  -9.761   8.306  1.00  0.00     0.261 C 
HETATM   36  C   UNL     1      45.407  -9.412   9.707  1.00  0.00     0.195 C 
HETATM   37  O   UNL     1      44.111  -8.809   9.647  1.00  0.00    -0.388 OA
HETATM   38  C   UNL     1      43.149  -9.694   9.061  1.00  0.00     0.195 C 
HETATM   39  C   UNL     1      43.539 -10.039   7.619  1.00  0.00     0.261 C 
ENDBRANCH  32  33
ENDBRANCH  31  32
ENDBRANCH  30  31
ENDBRANCH   3  30
TORSDOF 11
ENDMDL
MODEL 8
REMARK VINA RESULT:      -7.7      2.604      7.584
REMARK  11 active torsions:
REMARK  status: ('A' for Active; 'I' for Inactive)
REMARK    1  A    between atoms: C_3  and  O_4 
REMARK    2  A    between atoms: O_4  and  C_5 
REMARK    3  A    between atoms: C_10  and  C_11 
REMARK    4  A    between atoms: C_11  and  C_12 
REMARK    5  A    between atoms: C_13  and  C_14 
REMARK    6  A    between atoms: C_17  and  O_18 
REMARK    7  A    between atoms: N_21  and  C_22 
REMARK    8  A    between atoms: C_22  and  C_23 
REMARK    9  A    between atoms: C_23  and  C_24 
REMARK   10  A    between atoms: C_24  and  N_25 
REMARK   11  A    between atoms: C_34  and  O_35 
ROOT
HETATM    1  C   UNL     1      40.740 -11.052   4.794  1.00  0.00     0.059 A 
HETATM    2  C   UNL     1      40.641 -12.511   4.427  1.00  0.00     0.161 A 
HETATM    3  N   UNL     1      41.322 -12.516   3.142  1.00  0.00    -0.333 N 
HETATM    4  C   UNL     1      41.888 -11.299   2.856  1.00  0.00     0.278 A 
HETATM    5  O   UNL     1      42.522 -11.037   1.846  1.00  0.00    -0.265 OA
HETATM    6  C   UNL     1      41.453 -10.343   3.903  1.00  0.00     0.146 A 
ENDROOT
BRANCH   1   7
HETATM    7  C   UNL     1      39.919 -10.599   5.940  1.00  0.00     0.193 C 
HETATM    8  O   UNL     1      38.698 -10.561   5.829  1.00  0.00    -0.287 OA
BRANCH   7   9
HETATM    9  C   UNL     1      40.562 -10.090   7.170  1.00  0.00     0.015 A 
HETATM   10  C   UNL     1      41.946  -9.927   7.278  1.00  0.00     0.018 A 
HETATM   11  C   UNL     1      42.482  -9.316   8.413  1.00  0.00     0.038 A 
HETATM   12  C   UNL     1      41.638  -8.880   9.440  1.00  0.00     0.075 A 
HETATM   13  C   UNL     1      40.259  -9.132   9.384  1.00  0.00    -0.028 A 
HETATM   14  C   UNL     1      39.360  -8.782  10.537  1.00  0.00     0.051 C 
HETATM   15  C   UNL     1      39.729  -9.738   8.239  1.00  0.00     0.025 A 
BRANCH  12  16
HETATM   16  O   UNL     1      42.114  -8.236  10.549  1.00  0.00    -0.346 OA
BRANCH  16  17
HETATM   17  C   UNL     1      42.827  -9.065  11.484  1.00  0.00     0.121 C 
HETATM   18  C   UNL     1      44.316  -9.171  11.139  1.00  0.00     0.040 C 
HETATM   19  C   UNL     1      42.668  -8.406  12.852  1.00  0.00     0.040 C 
ENDBRANCH  16  17
ENDBRANCH  12  16
ENDBRANCH   7   9
ENDBRANCH   1   7
BRANCH   2  20
HETATM   20  C   UNL     1      41.288 -13.445   5.434  1.00  0.00    -0.030 A 
HETATM   21  C   UNL     1      42.593 -13.173   5.885  1.00  0.00     0.012 A 
HETATM   22  C   UNL     1      43.221 -14.005   6.816  1.00  0.00     0.037 A 
HETATM   23  C   UNL     1      42.547 -15.119   7.299  1.00  0.00     0.065 A 
HETATM   24  C   UNL     1      41.265 -15.420   6.859  1.00  0.00     0.037 A 
HETATM   25  C   UNL     1      40.639 -14.592   5.924  1.00  0.00     0.012 A 
BRANCH  23  26
HETATM   26  O   UNL     1      43.114 -15.954   8.214  1.00  0.00    -0.361 OA
HETATM   27  H   UNL     1      44.065 -16.032   8.028  1.00  0.00     0.217 HD
ENDBRANCH  23  26
ENDBRANCH   2  20
BRANCH   6  28
HETATM   28  O   UNL     1      41.661  -9.003   3.766  1.00  0.00    -0.355 OA
HETATM   29  H   UNL     1      41.210  -8.655   2.979  1.00  0.00     0.218 HD
ENDBRANCH   6  28
BRANCH   3  30
HETATM   30  C   UNL     1      41.335 -13.659   2.247  1.00  0.00     0.129 C 
BRANCH  30  31
HETATM   31  C   UNL     1      42.673 -14.409   2.217  1.00  0.00     0.048 C 
BRANCH  31  32
HETATM   32  C   UNL     1      42.665 -15.860   1.726  1.00  0.00     0.236 C 
BRANCH  32  33
HETATM   33  N   UNL     1      43.444 -16.809   2.592  1.00  0.00    -0.067 N 
HETATM   34  H   UNL     1      44.438 -16.749   2.286  1.00  0.00     0.280 HD
HETATM   35  C   UNL     1      43.360 -16.547   4.084  1.00  0.00     0.261 C 
HETATM   36  C   UNL     1      44.225 -17.562   4.840  1.00  0.00     0.195 C 
HETATM   37  O   UNL     1      43.833 -18.904   4.536  1.00  0.00    -0.388 OA
HETATM   38  C   UNL     1      43.984 -19.189   3.140  1.00  0.00     0.195 C 
HETATM   39  C   UNL     1      43.088 -18.269   2.300  1.00  0.00     0.261 C 
ENDBRANCH  32  33
ENDBRANCH  31  32
ENDBRANCH  30  31
ENDBRANCH   3  30
TORSDOF 11
ENDMDL
MODEL 9
REMARK VINA RESULT:      -7.7      2.613      7.480
REMARK  11 active torsions:
REMARK  status: ('A' for Active; 'I' for Inactive)
REMARK    1  A    between atoms: C_3  and  O_4 
REMARK    2  A    between atoms: O_4  and  C_5 
REMARK    3  A    between atoms: C_10  and  C_11 
REMARK    4  A    between atoms: C_11  and  C_12 
REMARK    5  A    between atoms: C_13  and  C_14 
REMARK    6  A    between atoms: C_17  and  O_18 
REMARK    7  A    between atoms: N_21  and  C_22 
REMARK    8  A    between atoms: C_22  and  C_23 
REMARK    9  A    between atoms: C_23  and  C_24 
REMARK   10  A    between atoms: C_24  and  N_25 
REMARK   11  A    between atoms: C_34  and  O_35 
ROOT
HETATM    1  C   UNL     1      39.986 -12.757   4.316  1.00  0.00     0.059 A 
HETATM    2  C   UNL     1      41.165 -13.663   4.568  1.00  0.00     0.161 A 
HETATM    3  N   UNL     1      41.205 -14.413   3.322  1.00  0.00    -0.333 N 
HETATM    4  C   UNL     1      40.309 -13.928   2.403  1.00  0.00     0.278 A 
HETATM    5  O   UNL     1      40.147 -14.372   1.276  1.00  0.00    -0.265 OA
HETATM    6  C   UNL     1      39.484 -12.896   3.078  1.00  0.00     0.146 A 
ENDROOT
BRANCH   1   7
HETATM    7  C   UNL     1      39.464 -12.008   5.481  1.00  0.00     0.193 C 
HETATM    8  O   UNL     1      38.424 -12.377   6.017  1.00  0.00    -0.287 OA
BRANCH   7   9
HETATM    9  C   UNL     1      40.121 -10.762   5.929  1.00  0.00     0.015 A 
HETATM   10  C   UNL     1      40.556 -10.578   7.246  1.00  0.00     0.018 A 
HETATM   11  C   UNL     1      41.289  -9.436   7.575  1.00  0.00     0.038 A 
HETATM   12  C   UNL     1      41.575  -8.479   6.597  1.00  0.00     0.075 A 
HETATM   13  C   UNL     1      41.055  -8.608   5.300  1.00  0.00    -0.028 A 
HETATM   14  C   UNL     1      41.251  -7.525   4.276  1.00  0.00     0.051 C 
HETATM   15  C   UNL     1      40.328  -9.758   4.975  1.00  0.00     0.025 A 
BRANCH  12  16
HETATM   16  O   UNL     1      42.329  -7.368   6.863  1.00  0.00    -0.346 OA
BRANCH  16  17
HETATM   17  C   UNL     1      41.916  -6.606   8.011  1.00  0.00     0.121 C 
HETATM   18  C   UNL     1      43.046  -6.446   9.032  1.00  0.00     0.040 C 
HETATM   19  C   UNL     1      41.506  -5.231   7.488  1.00  0.00     0.040 C 
ENDBRANCH  16  17
ENDBRANCH  12  16
ENDBRANCH   7   9
ENDBRANCH   1   7
BRANCH   2  20
HETATM   20  C   UNL     1      42.461 -12.924   4.846  1.00  0.00    -0.030 A 
HETATM   21  C   UNL     1      43.079 -13.064   6.101  1.00  0.00     0.012 A 
HETATM   22  C   UNL     1      44.276 -12.405   6.394  1.00  0.00     0.037 A 
HETATM   23  C   UNL     1      44.861 -11.595   5.429  1.00  0.00     0.065 A 
HETATM   24  C   UNL     1      44.265 -11.426   4.186  1.00  0.00     0.037 A 
HETATM   25  C   UNL     1      43.065 -12.080   3.896  1.00  0.00     0.012 A 
BRANCH  23  26
HETATM   26  O   UNL     1      46.032 -10.939   5.663  1.00  0.00    -0.361 OA
HETATM   27  H   UNL     1      46.198 -10.315   4.935  1.00  0.00     0.217 HD
ENDBRANCH  23  26
ENDBRANCH   2  20
BRANCH   6  28
HETATM   28  O   UNL     1      38.359 -12.399   2.492  1.00  0.00    -0.355 OA
HETATM   29  H   UNL     1      38.560 -11.621   1.946  1.00  0.00     0.218 HD
ENDBRANCH   6  28
BRANCH   3  30
HETATM   30  C   UNL     1      42.047 -15.577   3.116  1.00  0.00     0.129 C 
BRANCH  30  31
HETATM   31  C   UNL     1      42.381 -16.338   4.405  1.00  0.00     0.048 C 
BRANCH  31  32
HETATM   32  C   UNL     1      43.631 -17.224   4.405  1.00  0.00     0.236 C 
BRANCH  32  33
HETATM   33  N   UNL     1      43.391 -18.629   3.929  1.00  0.00    -0.067 N 
HETATM   34  H   UNL     1      42.443 -18.902   4.261  1.00  0.00     0.280 HD
HETATM   35  C   UNL     1      43.476 -18.831   2.427  1.00  0.00     0.261 C 
HETATM   36  C   UNL     1      43.178 -20.294   2.081  1.00  0.00     0.195 C 
HETATM   37  O   UNL     1      44.070 -21.180   2.765  1.00  0.00    -0.388 OA
HETATM   38  C   UNL     1      43.942 -21.055   4.187  1.00  0.00     0.195 C 
HETATM   39  C   UNL     1      44.301 -19.634   4.640  1.00  0.00     0.261 C 
ENDBRANCH  32  33
ENDBRANCH  31  32
ENDBRANCH  30  31
ENDBRANCH   3  30
TORSDOF 11
ENDMDL
MODEL 10
REMARK VINA RESULT:      -7.7      2.988      7.666
REMARK  11 active torsions:
REMARK  status: ('A' for Active; 'I' for Inactive)
REMARK    1  A    between atoms: C_3  and  O_4 
REMARK    2  A    between atoms: O_4  and  C_5 
REMARK    3  A    between atoms: C_10  and  C_11 
REMARK    4  A    between atoms: C_11  and  C_12 
REMARK    5  A    between atoms: C_13  and  C_14 
REMARK    6  A    between atoms: C_17  and  O_18 
REMARK    7  A    between atoms: N_21  and  C_22 
REMARK    8  A    between atoms: C_22  and  C_23 
REMARK    9  A    between atoms: C_23  and  C_24 
REMARK   10  A    between atoms: C_24  and  N_25 
REMARK   11  A    between atoms: C_34  and  O_35 
ROOT
HETATM    1  C   UNL     1      40.077 -13.011   4.761  1.00  0.00     0.059 A 
HETATM    2  C   UNL     1      41.169 -13.716   5.525  1.00  0.00     0.161 A 
HETATM    3  N   UNL     1      41.269 -14.959   4.775  1.00  0.00    -0.333 N 
HETATM    4  C   UNL     1      40.489 -14.941   3.647  1.00  0.00     0.278 A 
HETATM    5  O   UNL     1      40.397 -15.853   2.840  1.00  0.00    -0.265 OA
HETATM    6  C   UNL     1      39.676 -13.700   3.680  1.00  0.00     0.146 A 
ENDROOT
BRANCH   1   7
HETATM    7  C   UNL     1      39.504 -11.799   5.389  1.00  0.00     0.193 C 
HETATM    8  O   UNL     1      38.768 -11.915   6.363  1.00  0.00    -0.287 OA
BRANCH   7   9
HETATM    9  C   UNL     1      39.722 -10.466   4.786  1.00  0.00     0.015 A 
HETATM   10  C   UNL     1      40.755  -9.619   5.199  1.00  0.00     0.018 A 
HETATM   11  C   UNL     1      40.993  -8.433   4.501  1.00  0.00     0.038 A 
HETATM   12  C   UNL     1      40.195  -8.091   3.405  1.00  0.00     0.075 A 
HETATM   13  C   UNL     1      39.095  -8.885   3.050  1.00  0.00    -0.028 A 
HETATM   14  C   UNL     1      38.156  -8.464   1.953  1.00  0.00     0.051 C 
HETATM   15  C   UNL     1      38.867 -10.076   3.748  1.00  0.00     0.025 A 
BRANCH  12  16
HETATM   16  O   UNL     1      40.420  -6.963   2.664  1.00  0.00    -0.346 OA
BRANCH  16  17
HETATM   17  C   UNL     1      40.123  -5.722   3.328  1.00  0.00     0.121 C 
HETATM   18  C   UNL     1      41.393  -4.959   3.717  1.00  0.00     0.040 C 
HETATM   19  C   UNL     1      39.313  -4.887   2.339  1.00  0.00     0.040 C 
ENDBRANCH  16  17
ENDBRANCH  12  16
ENDBRANCH   7   9
ENDBRANCH   1   7
BRANCH   2  20
HETATM   20  C   UNL     1      42.481 -12.954   5.567  1.00  0.00    -0.030 A 
HETATM   21  C   UNL     1      43.189 -12.866   6.780  1.00  0.00     0.012 A 
HETATM   22  C   UNL     1      44.402 -12.178   6.859  1.00  0.00     0.037 A 
HETATM   23  C   UNL     1      44.915 -11.568   5.721  1.00  0.00     0.065 A 
HETATM   24  C   UNL     1      44.230 -11.625   4.514  1.00  0.00     0.037 A 
HETATM   25  C   UNL     1      43.014 -12.307   4.437  1.00  0.00     0.012 A 
BRANCH  23  26
HETATM   26  O   UNL     1      46.099 -10.894   5.745  1.00  0.00    -0.361 OA
HETATM   27  H   UNL     1      45.930  -9.963   5.967  1.00  0.00     0.217 HD
ENDBRANCH  23  26
ENDBRANCH   2  20
BRANCH   6  28
HETATM   28  O   UNL     1      38.639 -13.513   2.816  1.00  0.00    -0.355 OA
HETATM   29  H   UNL     1      38.892 -12.926   2.084  1.00  0.00     0.218 HD
ENDBRANCH   6  28
BRANCH   3  30
HETATM   30  C   UNL     1      42.050 -16.099   5.218  1.00  0.00     0.129 C 
BRANCH  30  31
HETATM   31  C   UNL     1      43.449 -16.172   4.594  1.00  0.00     0.048 C 
BRANCH  31  32
HETATM   32  C   UNL     1      44.306 -17.404   4.908  1.00  0.00     0.236 C 
BRANCH  32  33
HETATM   33  N   UNL     1      43.806 -18.678   4.286  1.00  0.00    -0.067 N 
HETATM   34  H   UNL     1      42.801 -18.765   4.545  1.00  0.00     0.280 HD
HETATM   35  C   UNL     1      43.947 -18.765   2.778  1.00  0.00     0.261 C 
HETATM   36  C   UNL     1      43.370 -20.094   2.278  1.00  0.00     0.195 C 
HETATM   37  O   UNL     1      44.006 -21.206   2.914  1.00  0.00    -0.388 OA
HETATM   38  C   UNL     1      43.812 -21.177   4.333  1.00  0.00     0.195 C 
HETATM   39  C   UNL     1      44.432 -19.912   4.939  1.00  0.00     0.261 C 
ENDBRANCH  32  33
ENDBRANCH  31  32
ENDBRANCH  30  31
ENDBRANCH   3  30
TORSDOF 11
ENDMDL
