MODEL 1
REMARK VINA RESULT:      -8.2      0.000      0.000
REMARK  5 active torsions:
REMARK  status: ('A' for Active; 'I' for Inactive)
REMARK    1  A    between atoms: C_8  and  C_9 
REMARK    2  A    between atoms: N_10  and  N_11 
REMARK       I    between atoms: N_11  and  C_12 
REMARK    3  A    between atoms: C_12  and  C_13 
REMARK    4  A    between atoms: C_13  and  O_14 
REMARK    5  A    between atoms: O_14  and  C_15 
ROOT
HETATM    1  N   UNL     1      43.509 -12.726   7.258  1.00  0.00    -0.246 N 
HETATM    2  C   UNL     1      44.338 -11.616   7.154  1.00  0.00     0.261 C 
HETATM    3  O   UNL     1      45.505 -11.614   6.765  1.00  0.00    -0.269 OA
HETATM    4  H   UNL     1      42.510 -12.543   7.353  1.00  0.00     0.192 HD
ENDROOT
BRANCH   1   5
HETATM    5  N   UNL     1      43.812 -14.014   6.884  1.00  0.00    -0.184 NA
HETATM    6  C   UNL     1      42.935 -14.694   6.218  1.00  0.00     0.152 C 
BRANCH   6   7
HETATM    7  C   UNL     1      43.225 -16.062   5.836  1.00  0.00     0.011 A 
HETATM    8  C   UNL     1      43.269 -16.589   4.504  1.00  0.00     0.004 A 
HETATM    9  C   UNL     1      43.052 -16.040   3.222  1.00  0.00     0.014 A 
HETATM   10  C   UNL     1      43.597 -17.942   4.598  1.00  0.00     0.043 A 
HETATM   11  C   UNL     1      43.175 -16.854   2.091  1.00  0.00     0.001 A 
HETATM   12  C   UNL     1      43.510 -18.199   2.220  1.00  0.00     0.002 A 
HETATM   13  C   UNL     1      43.727 -18.771   3.477  1.00  0.00     0.030 A 
HETATM   14  N   UNL     1      43.744 -18.229   5.935  1.00  0.00    -0.364 N 
HETATM   15  H   UNL     1      43.981 -19.141   6.304  1.00  0.00     0.165 HD
HETATM   16  C   UNL     1      43.518 -17.110   6.689  1.00  0.00     0.102 A 
ENDBRANCH   6   7
ENDBRANCH   1   5
BRANCH   2  17
HETATM   17  C   UNL     1      43.685 -10.332   7.663  1.00  0.00     0.280 C 
BRANCH  17  18
HETATM   18  O   UNL     1      44.493  -9.669   8.629  1.00  0.00    -0.340 OA
BRANCH  18  19
HETATM   19  C   UNL     1      43.961  -9.540   9.888  1.00  0.00     0.091 A 
HETATM   20  C   UNL     1      43.536  -8.257  10.273  1.00  0.00     0.068 A 
HETATM   21 CL   UNL     1      43.702  -6.904   9.209  1.00  0.00    -0.081 Cl
HETATM   22  C   UNL     1      42.977  -8.035  11.535  1.00  0.00     0.046 A 
HETATM   23  C   UNL     1      42.830  -9.102  12.415  1.00  0.00     0.012 A 
HETATM   24 BR   UNL     1      42.072  -8.815  14.123  1.00  0.00    -0.051 Br
HETATM   25  C   UNL     1      43.232 -10.383  12.045  1.00  0.00     0.022 A 
HETATM   26  C   UNL     1      43.795 -10.602  10.784  1.00  0.00     0.040 A 
ENDBRANCH  18  19
ENDBRANCH  17  18
ENDBRANCH   2  17
TORSDOF 5
ENDMDL
MODEL 2
REMARK VINA RESULT:      -8.1      7.927     10.002
REMARK  5 active torsions:
REMARK  status: ('A' for Active; 'I' for Inactive)
REMARK    1  A    between atoms: C_8  and  C_9 
REMARK    2  A    between atoms: N_10  and  N_11 
REMARK       I    between atoms: N_11  and  C_12 
REMARK    3  A    between atoms: C_12  and  C_13 
REMARK    4  A    between atoms: C_13  and  O_14 
REMARK    5  A    between atoms: O_14  and  C_15 
ROOT
HETATM    1  N   UNL     1      41.216 -14.374   2.211  1.00  0.00    -0.246 N 
HETATM    2  C   UNL     1      40.354 -14.443   1.124  1.00  0.00     0.261 C 
HETATM    3  O   UNL     1      39.878 -15.467   0.636  1.00  0.00    -0.269 OA
HETATM    4  H   UNL     1      41.325 -13.461   2.651  1.00  0.00     0.192 HD
ENDROOT
BRANCH   1   5
HETATM    5  N   UNL     1      41.642 -15.427   2.987  1.00  0.00    -0.184 NA
HETATM    6  C   UNL     1      42.911 -15.670   3.068  1.00  0.00     0.152 C 
BRANCH   6   7
HETATM    7  C   UNL     1      43.379 -16.790   3.860  1.00  0.00     0.011 A 
HETATM    8  C   UNL     1      43.460 -18.159   3.443  1.00  0.00     0.004 A 
HETATM    9  C   UNL     1      43.134 -18.846   2.254  1.00  0.00     0.014 A 
HETATM   10  C   UNL     1      43.976 -18.893   4.512  1.00  0.00     0.043 A 
HETATM   11  C   UNL     1      43.339 -20.228   2.176  1.00  0.00     0.001 A 
HETATM   12  C   UNL     1      43.861 -20.929   3.259  1.00  0.00     0.002 A 
HETATM   13  C   UNL     1      44.190 -20.275   4.450  1.00  0.00     0.030 A 
HETATM   14  N   UNL     1      44.197 -18.007   5.540  1.00  0.00    -0.364 N 
HETATM   15  H   UNL     1      44.569 -18.260   6.446  1.00  0.00     0.165 HD
HETATM   16  C   UNL     1      43.838 -16.742   5.162  1.00  0.00     0.102 A 
ENDBRANCH   6   7
ENDBRANCH   1   5
BRANCH   2  17
HETATM   17  C   UNL     1      40.087 -13.081   0.485  1.00  0.00     0.280 C 
BRANCH  17  18
HETATM   18  O   UNL     1      40.045 -13.156  -0.935  1.00  0.00    -0.340 OA
BRANCH  18  19
HETATM   19  C   UNL     1      38.916 -12.661  -1.542  1.00  0.00     0.091 A 
HETATM   20  C   UNL     1      38.178 -13.550  -2.339  1.00  0.00     0.068 A 
HETATM   21 CL   UNL     1      38.687 -15.188  -2.559  1.00  0.00    -0.081 Cl
HETATM   22  C   UNL     1      37.012 -13.133  -2.989  1.00  0.00     0.046 A 
HETATM   23  C   UNL     1      36.574 -11.822  -2.833  1.00  0.00     0.012 A 
HETATM   24 BR   UNL     1      34.999 -11.246  -3.704  1.00  0.00    -0.051 Br
HETATM   25  C   UNL     1      37.287 -10.930  -2.035  1.00  0.00     0.022 A 
HETATM   26  C   UNL     1      38.454 -11.348  -1.389  1.00  0.00     0.040 A 
ENDBRANCH  18  19
ENDBRANCH  17  18
ENDBRANCH   2  17
TORSDOF 5
ENDMDL
MODEL 3
REMARK VINA RESULT:      -7.9      1.337      1.793
REMARK  5 active torsions:
REMARK  status: ('A' for Active; 'I' for Inactive)
REMARK    1  A    between atoms: C_8  and  C_9 
REMARK    2  A    between atoms: N_10  and  N_11 
REMARK       I    between atoms: N_11  and  C_12 
REMARK    3  A    between atoms: C_12  and  C_13 
REMARK    4  A    between atoms: C_13  and  O_14 
REMARK    5  A    between atoms: O_14  and  C_15 
ROOT
HETATM    1  N   UNL     1      43.278 -12.481   6.887  1.00  0.00    -0.246 N 
HETATM    2  C   UNL     1      44.397 -11.679   7.071  1.00  0.00     0.261 C 
HETATM    3  O   UNL     1      45.324 -11.530   6.276  1.00  0.00    -0.269 OA
HETATM    4  H   UNL     1      42.488 -12.313   7.509  1.00  0.00     0.192 HD
ENDROOT
BRANCH   1   5
HETATM    5  N   UNL     1      42.964 -13.203   5.760  1.00  0.00    -0.184 NA
HETATM    6  C   UNL     1      43.106 -14.490   5.782  1.00  0.00     0.152 C 
BRANCH   6   7
HETATM    7  C   UNL     1      42.804 -15.267   4.596  1.00  0.00     0.011 A 
HETATM    8  C   UNL     1      43.318 -16.564   4.269  1.00  0.00     0.004 A 
HETATM    9  C   UNL     1      44.216 -17.454   4.896  1.00  0.00     0.014 A 
HETATM   10  C   UNL     1      42.757 -16.941   3.047  1.00  0.00     0.043 A 
HETATM   11  C   UNL     1      44.515 -18.678   4.289  1.00  0.00     0.001 A 
HETATM   12  C   UNL     1      43.933 -19.026   3.073  1.00  0.00     0.002 A 
HETATM   13  C   UNL     1      43.042 -18.164   2.427  1.00  0.00     0.030 A 
HETATM   14  N   UNL     1      41.937 -15.913   2.645  1.00  0.00    -0.364 N 
HETATM   15  H   UNL     1      41.398 -15.909   1.790  1.00  0.00     0.165 HD
HETATM   16  C   UNL     1      41.961 -14.899   3.565  1.00  0.00     0.102 A 
ENDBRANCH   6   7
ENDBRANCH   1   5
BRANCH   2  17
HETATM   17  C   UNL     1      44.439 -11.016   8.447  1.00  0.00     0.280 C 
BRANCH  17  18
HETATM   18  O   UNL     1      43.292 -10.210   8.687  1.00  0.00    -0.340 OA
BRANCH  18  19
HETATM   19  C   UNL     1      43.215  -9.603   9.917  1.00  0.00     0.091 A 
HETATM   20  C   UNL     1      43.103  -8.203   9.931  1.00  0.00     0.068 A 
HETATM   21 CL   UNL     1      43.088  -7.292   8.462  1.00  0.00    -0.081 Cl
HETATM   22  C   UNL     1      43.013  -7.503  11.138  1.00  0.00     0.046 A 
HETATM   23  C   UNL     1      43.023  -8.205  12.338  1.00  0.00     0.012 A 
HETATM   24 BR   UNL     1      42.899  -7.271  13.977  1.00  0.00    -0.051 Br
HETATM   25  C   UNL     1      43.119  -9.595  12.342  1.00  0.00     0.022 A 
HETATM   26  C   UNL     1      43.213 -10.293  11.134  1.00  0.00     0.040 A 
ENDBRANCH  18  19
ENDBRANCH  17  18
ENDBRANCH   2  17
TORSDOF 5
ENDMDL
MODEL 4
REMARK VINA RESULT:      -7.9      7.090      8.837
REMARK  5 active torsions:
REMARK  status: ('A' for Active; 'I' for Inactive)
REMARK    1  A    between atoms: C_8  and  C_9 
REMARK    2  A    between atoms: N_10  and  N_11 
REMARK       I    between atoms: N_11  and  C_12 
REMARK    3  A    between atoms: C_12  and  C_13 
REMARK    4  A    between atoms: C_13  and  O_14 
REMARK    5  A    between atoms: O_14  and  C_15 
ROOT
HETATM    1  N   UNL     1      42.680 -13.401   2.417  1.00  0.00    -0.246 N 
HETATM    2  C   UNL     1      41.600 -12.566   2.674  1.00  0.00     0.261 C 
HETATM    3  O   UNL     1      40.843 -12.633   3.641  1.00  0.00    -0.269 OA
HETATM    4  H   UNL     1      43.354 -13.076   1.724  1.00  0.00     0.192 HD
ENDROOT
BRANCH   1   5
HETATM    5  N   UNL     1      43.146 -14.412   3.225  1.00  0.00    -0.184 NA
HETATM    6  C   UNL     1      42.932 -15.640   2.875  1.00  0.00     0.152 C 
BRANCH   6   7
HETATM    7  C   UNL     1      43.392 -16.720   3.726  1.00  0.00     0.011 A 
HETATM    8  C   UNL     1      43.463 -18.110   3.383  1.00  0.00     0.004 A 
HETATM    9  C   UNL     1      43.132 -18.857   2.233  1.00  0.00     0.014 A 
HETATM   10  C   UNL     1      43.974 -18.789   4.491  1.00  0.00     0.043 A 
HETATM   11  C   UNL     1      43.327 -20.242   2.229  1.00  0.00     0.001 A 
HETATM   12  C   UNL     1      43.845 -20.888   3.348  1.00  0.00     0.002 A 
HETATM   13  C   UNL     1      44.179 -20.174   4.502  1.00  0.00     0.030 A 
HETATM   14  N   UNL     1      44.202 -17.851   5.470  1.00  0.00    -0.364 N 
HETATM   15  H   UNL     1      44.573 -18.058   6.388  1.00  0.00     0.165 HD
HETATM   16  C   UNL     1      43.852 -16.605   5.025  1.00  0.00     0.102 A 
ENDBRANCH   6   7
ENDBRANCH   1   5
BRANCH   2  17
HETATM   17  C   UNL     1      41.354 -11.547   1.563  1.00  0.00     0.280 C 
BRANCH  17  18
HETATM   18  O   UNL     1      39.983 -11.484   1.190  1.00  0.00    -0.340 OA
BRANCH  18  19
HETATM   19  C   UNL     1      39.593 -12.290   0.148  1.00  0.00     0.091 A 
HETATM   20  C   UNL     1      38.680 -11.747  -0.772  1.00  0.00     0.068 A 
HETATM   21 CL   UNL     1      38.064 -10.143  -0.578  1.00  0.00    -0.081 Cl
HETATM   22  C   UNL     1      38.234 -12.493  -1.866  1.00  0.00     0.046 A 
HETATM   23  C   UNL     1      38.710 -13.787  -2.051  1.00  0.00     0.012 A 
HETATM   24 BR   UNL     1      38.117 -14.806  -3.528  1.00  0.00    -0.051 Br
HETATM   25  C   UNL     1      39.627 -14.337  -1.157  1.00  0.00     0.022 A 
HETATM   26  C   UNL     1      40.068 -13.589  -0.060  1.00  0.00     0.040 A 
ENDBRANCH  18  19
ENDBRANCH  17  18
ENDBRANCH   2  17
TORSDOF 5
ENDMDL
MODEL 5
REMARK VINA RESULT:      -7.7      6.436      9.225
REMARK  5 active torsions:
REMARK  status: ('A' for Active; 'I' for Inactive)
REMARK    1  A    between atoms: C_8  and  C_9 
REMARK    2  A    between atoms: N_10  and  N_11 
REMARK       I    between atoms: N_11  and  C_12 
REMARK    3  A    between atoms: C_12  and  C_13 
REMARK    4  A    between atoms: C_13  and  O_14 
REMARK    5  A    between atoms: O_14  and  C_15 
ROOT
HETATM    1  N   UNL     1      40.373 -14.388   3.572  1.00  0.00    -0.246 N 
HETATM    2  C   UNL     1      41.073 -13.690   4.548  1.00  0.00     0.261 C 
HETATM    3  O   UNL     1      41.165 -12.467   4.644  1.00  0.00    -0.269 OA
HETATM    4  H   UNL     1      40.181 -15.371   3.762  1.00  0.00     0.192 HD
ENDROOT
BRANCH   1   5
HETATM    5  N   UNL     1      39.597 -13.845   2.574  1.00  0.00    -0.184 NA
HETATM    6  C   UNL     1      40.160 -13.510   1.457  1.00  0.00     0.152 C 
BRANCH   6   7
HETATM    7  C   UNL     1      39.365 -12.913   0.403  1.00  0.00     0.011 A 
HETATM    8  C   UNL     1      39.008 -13.517  -0.847  1.00  0.00     0.004 A 
HETATM    9  C   UNL     1      39.283 -14.763  -1.452  1.00  0.00     0.014 A 
HETATM   10  C   UNL     1      38.229 -12.597  -1.550  1.00  0.00     0.043 A 
HETATM   11  C   UNL     1      38.769 -15.043  -2.722  1.00  0.00     0.001 A 
HETATM   12  C   UNL     1      37.989 -14.105  -3.394  1.00  0.00     0.002 A 
HETATM   13  C   UNL     1      37.704 -12.862  -2.821  1.00  0.00     0.030 A 
HETATM   14  N   UNL     1      38.118 -11.476  -0.761  1.00  0.00    -0.364 N 
HETATM   15  H   UNL     1      37.607 -10.641  -1.018  1.00  0.00     0.165 HD
HETATM   16  C   UNL     1      38.800 -11.651   0.412  1.00  0.00     0.102 A 
ENDBRANCH   6   7
ENDBRANCH   1   5
BRANCH   2  17
HETATM   17  C   UNL     1      41.836 -14.604   5.505  1.00  0.00     0.280 C 
BRANCH  17  18
HETATM   18  O   UNL     1      43.141 -14.907   5.028  1.00  0.00    -0.340 OA
BRANCH  18  19
HETATM   19  C   UNL     1      43.285 -16.088   4.340  1.00  0.00     0.091 A 
HETATM   20  C   UNL     1      43.605 -17.230   5.093  1.00  0.00     0.068 A 
HETATM   21 CL   UNL     1      43.828 -17.140   6.805  1.00  0.00    -0.081 Cl
HETATM   22  C   UNL     1      43.763 -18.474   4.475  1.00  0.00     0.046 A 
HETATM   23  C   UNL     1      43.590 -18.582   3.099  1.00  0.00     0.012 A 
HETATM   24 BR   UNL     1      43.799 -20.259   2.253  1.00  0.00    -0.051 Br
HETATM   25  C   UNL     1      43.259 -17.462   2.339  1.00  0.00     0.022 A 
HETATM   26  C   UNL     1      43.105 -16.218   2.958  1.00  0.00     0.040 A 
ENDBRANCH  18  19
ENDBRANCH  17  18
ENDBRANCH   2  17
TORSDOF 5
ENDMDL
MODEL 6
REMARK VINA RESULT:      -7.7      7.364      8.578
REMARK  5 active torsions:
REMARK  status: ('A' for Active; 'I' for Inactive)
REMARK    1  A    between atoms: C_8  and  C_9 
REMARK    2  A    between atoms: N_10  and  N_11 
REMARK       I    between atoms: N_11  and  C_12 
REMARK    3  A    between atoms: C_12  and  C_13 
REMARK    4  A    between atoms: C_13  and  O_14 
REMARK    5  A    between atoms: O_14  and  C_15 
ROOT
HETATM    1  N   UNL     1      41.076 -14.288   2.298  1.00  0.00    -0.246 N 
HETATM    2  C   UNL     1      40.261 -14.442   1.184  1.00  0.00     0.261 C 
HETATM    3  O   UNL     1      39.889 -15.509   0.697  1.00  0.00    -0.269 OA
HETATM    4  H   UNL     1      41.093 -13.363   2.727  1.00  0.00     0.192 HD
ENDROOT
BRANCH   1   5
HETATM    5  N   UNL     1      41.563 -15.290   3.103  1.00  0.00    -0.184 NA
HETATM    6  C   UNL     1      42.792 -15.671   2.953  1.00  0.00     0.152 C 
BRANCH   6   7
HETATM    7  C   UNL     1      43.317 -16.744   3.774  1.00  0.00     0.011 A 
HETATM    8  C   UNL     1      43.422 -18.127   3.411  1.00  0.00     0.004 A 
HETATM    9  C   UNL     1      43.076 -18.872   2.263  1.00  0.00     0.014 A 
HETATM   10  C   UNL     1      43.994 -18.801   4.492  1.00  0.00     0.043 A 
HETATM   11  C   UNL     1      43.317 -20.250   2.235  1.00  0.00     0.001 A 
HETATM   12  C   UNL     1      43.895 -20.891   3.328  1.00  0.00     0.002 A 
HETATM   13  C   UNL     1      44.245 -20.179   4.479  1.00  0.00     0.030 A 
HETATM   14  N   UNL     1      44.224 -17.867   5.474  1.00  0.00    -0.364 N 
HETATM   15  H   UNL     1      44.634 -18.072   6.376  1.00  0.00     0.165 HD
HETATM   16  C   UNL     1      43.818 -16.629   5.057  1.00  0.00     0.102 A 
ENDBRANCH   6   7
ENDBRANCH   1   5
BRANCH   2  17
HETATM   17  C   UNL     1      39.902 -13.116   0.517  1.00  0.00     0.280 C 
BRANCH  17  18
HETATM   18  O   UNL     1      40.857 -12.736  -0.466  1.00  0.00    -0.340 OA
BRANCH  18  19
HETATM   19  C   UNL     1      41.123 -11.393  -0.576  1.00  0.00     0.091 A 
HETATM   20  C   UNL     1      41.231 -10.869  -1.875  1.00  0.00     0.068 A 
HETATM   21 CL   UNL     1      41.058 -11.882  -3.265  1.00  0.00    -0.081 Cl
HETATM   22  C   UNL     1      41.494  -9.511  -2.081  1.00  0.00     0.046 A 
HETATM   23  C   UNL     1      41.639  -8.668  -0.984  1.00  0.00     0.012 A 
HETATM   24 BR   UNL     1      41.992  -6.830  -1.249  1.00  0.00    -0.051 Br
HETATM   25  C   UNL     1      41.521  -9.169   0.312  1.00  0.00     0.022 A 
HETATM   26  C   UNL     1      41.262 -10.528   0.515  1.00  0.00     0.040 A 
ENDBRANCH  18  19
ENDBRANCH  17  18
ENDBRANCH   2  17
TORSDOF 5
ENDMDL
MODEL 7
REMARK VINA RESULT:      -7.5      6.784      8.655
REMARK  5 active torsions:
REMARK  status: ('A' for Active; 'I' for Inactive)
REMARK    1  A    between atoms: C_8  and  C_9 
REMARK    2  A    between atoms: N_10  and  N_11 
REMARK       I    between atoms: N_11  and  C_12 
REMARK    3  A    between atoms: C_12  and  C_13 
REMARK    4  A    between atoms: C_13  and  O_14 
REMARK    5  A    between atoms: O_14  and  C_15 
ROOT
HETATM    1  N   UNL     1      42.504 -13.153   2.672  1.00  0.00    -0.246 N 
HETATM    2  C   UNL     1      42.699 -11.799   2.908  1.00  0.00     0.261 C 
HETATM    3  O   UNL     1      43.324 -11.307   3.846  1.00  0.00    -0.269 OA
HETATM    4  H   UNL     1      42.188 -13.414   1.738  1.00  0.00     0.192 HD
ENDROOT
BRANCH   1   5
HETATM    5  N   UNL     1      43.026 -14.196   3.400  1.00  0.00    -0.184 NA
HETATM    6  C   UNL     1      42.774 -15.409   3.024  1.00  0.00     0.152 C 
BRANCH   6   7
HETATM    7  C   UNL     1      43.294 -16.523   3.793  1.00  0.00     0.011 A 
HETATM    8  C   UNL     1      43.380 -17.889   3.369  1.00  0.00     0.004 A 
HETATM    9  C   UNL     1      43.016 -18.580   2.193  1.00  0.00     0.014 A 
HETATM   10  C   UNL     1      43.953 -18.617   4.414  1.00  0.00     0.043 A 
HETATM   11  C   UNL     1      43.241 -19.958   2.103  1.00  0.00     0.001 A 
HETATM   12  C   UNL     1      43.821 -20.652   3.161  1.00  0.00     0.002 A 
HETATM   13  C   UNL     1      44.188 -19.995   4.339  1.00  0.00     0.030 A 
HETATM   14  N   UNL     1      44.202 -17.729   5.434  1.00  0.00    -0.364 N 
HETATM   15  H   UNL     1      44.617 -17.977   6.323  1.00  0.00     0.165 HD
HETATM   16  C   UNL     1      43.806 -16.469   5.075  1.00  0.00     0.102 A 
ENDBRANCH   6   7
ENDBRANCH   1   5
BRANCH   2  17
HETATM   17  C   UNL     1      41.972 -10.905   1.905  1.00  0.00     0.280 C 
BRANCH  17  18
HETATM   18  O   UNL     1      41.445 -11.648   0.812  1.00  0.00    -0.340 OA
BRANCH  18  19
HETATM   19  C   UNL     1      41.286 -10.970  -0.371  1.00  0.00     0.091 A 
HETATM   20  C   UNL     1      40.657 -11.658  -1.423  1.00  0.00     0.068 A 
HETATM   21 CL   UNL     1      40.131 -13.294  -1.231  1.00  0.00    -0.081 Cl
HETATM   22  C   UNL     1      40.449 -11.042  -2.660  1.00  0.00     0.046 A 
HETATM   23  C   UNL     1      40.861  -9.727  -2.848  1.00  0.00     0.012 A 
HETATM   24 BR   UNL     1      40.583  -8.882  -4.516  1.00  0.00    -0.051 Br
HETATM   25  C   UNL     1      41.474  -9.024  -1.812  1.00  0.00     0.022 A 
HETATM   26  C   UNL     1      41.685  -9.644  -0.576  1.00  0.00     0.040 A 
ENDBRANCH  18  19
ENDBRANCH  17  18
ENDBRANCH   2  17
TORSDOF 5
ENDMDL
MODEL 8
REMARK VINA RESULT:      -7.2      4.401      9.002
REMARK  5 active torsions:
REMARK  status: ('A' for Active; 'I' for Inactive)
REMARK    1  A    between atoms: C_8  and  C_9 
REMARK    2  A    between atoms: N_10  and  N_11 
REMARK       I    between atoms: N_11  and  C_12 
REMARK    3  A    between atoms: C_12  and  C_13 
REMARK    4  A    between atoms: C_13  and  O_14 
REMARK    5  A    between atoms: O_14  and  C_15 
ROOT
HETATM    1  N   UNL     1      43.752 -14.161   6.652  1.00  0.00    -0.246 N 
HETATM    2  C   UNL     1      43.265 -15.334   7.215  1.00  0.00     0.261 C 
HETATM    3  O   UNL     1      43.059 -15.536   8.411  1.00  0.00    -0.269 OA
HETATM    4  H   UNL     1      43.635 -14.056   5.644  1.00  0.00     0.192 HD
ENDROOT
BRANCH   1   5
HETATM    5  N   UNL     1      44.027 -12.988   7.313  1.00  0.00    -0.184 NA
HETATM    6  C   UNL     1      44.653 -12.046   6.681  1.00  0.00     0.152 C 
BRANCH   6   7
HETATM    7  C   UNL     1      44.975 -10.811   7.367  1.00  0.00     0.011 A 
HETATM    8  C   UNL     1      44.050  -9.807   7.804  1.00  0.00     0.004 A 
HETATM    9  C   UNL     1      42.649  -9.658   7.721  1.00  0.00     0.014 A 
HETATM   10  C   UNL     1      44.788  -8.800   8.428  1.00  0.00     0.043 A 
HETATM   11  C   UNL     1      42.042  -8.520   8.264  1.00  0.00     0.001 A 
HETATM   12  C   UNL     1      42.807  -7.536   8.885  1.00  0.00     0.002 A 
HETATM   13  C   UNL     1      44.196  -7.656   8.979  1.00  0.00     0.030 A 
HETATM   14  N   UNL     1      46.111  -9.173   8.369  1.00  0.00    -0.364 N 
HETATM   15  H   UNL     1      46.877  -8.630   8.744  1.00  0.00     0.165 HD
HETATM   16  C   UNL     1      46.236 -10.377   7.730  1.00  0.00     0.102 A 
ENDBRANCH   6   7
ENDBRANCH   1   5
BRANCH   2  17
HETATM   17  C   UNL     1      43.070 -16.453   6.193  1.00  0.00     0.280 C 
BRANCH  17  18
HETATM   18  O   UNL     1      41.713 -16.570   5.782  1.00  0.00    -0.340 OA
BRANCH  18  19
HETATM   19  C   UNL     1      41.417 -16.138   4.512  1.00  0.00     0.091 A 
HETATM   20  C   UNL     1      40.704 -14.933   4.398  1.00  0.00     0.068 A 
HETATM   21 CL   UNL     1      40.206 -14.052   5.800  1.00  0.00    -0.081 Cl
HETATM   22  C   UNL     1      40.365 -14.416   3.144  1.00  0.00     0.046 A 
HETATM   23  C   UNL     1      40.750 -15.101   1.995  1.00  0.00     0.012 A 
HETATM   24 BR   UNL     1      40.301 -14.411   0.294  1.00  0.00    -0.051 Br
HETATM   25  C   UNL     1      41.470 -16.290   2.090  1.00  0.00     0.022 A 
HETATM   26  C   UNL     1      41.804 -16.807   3.346  1.00  0.00     0.040 A 
ENDBRANCH  18  19
ENDBRANCH  17  18
ENDBRANCH   2  17
TORSDOF 5
ENDMDL
MODEL 9
REMARK VINA RESULT:      -7.2      7.611     10.389
REMARK  5 active torsions:
REMARK  status: ('A' for Active; 'I' for Inactive)
REMARK    1  A    between atoms: C_8  and  C_9 
REMARK    2  A    between atoms: N_10  and  N_11 
REMARK       I    between atoms: N_11  and  C_12 
REMARK    3  A    between atoms: C_12  and  C_13 
REMARK    4  A    between atoms: C_13  and  O_14 
REMARK    5  A    between atoms: O_14  and  C_15 
ROOT
HETATM    1  N   UNL     1      41.399 -13.669   0.494  1.00  0.00    -0.246 N 
HETATM    2  C   UNL     1      41.628 -14.842   1.200  1.00  0.00     0.261 C 
HETATM    3  O   UNL     1      40.789 -15.695   1.487  1.00  0.00    -0.269 OA
HETATM    4  H   UNL     1      42.220 -13.192   0.121  1.00  0.00     0.192 HD
ENDROOT
BRANCH   1   5
HETATM    5  N   UNL     1      40.211 -13.273  -0.075  1.00  0.00    -0.184 NA
HETATM    6  C   UNL     1      40.105 -13.277  -1.366  1.00  0.00     0.152 C 
BRANCH   6   7
HETATM    7  C   UNL     1      38.870 -12.840  -1.987  1.00  0.00     0.011 A 
HETATM    8  C   UNL     1      38.395 -11.492  -2.091  1.00  0.00     0.004 A 
HETATM    9  C   UNL     1      38.886 -10.239  -1.663  1.00  0.00     0.014 A 
HETATM   10  C   UNL     1      37.176 -11.528  -2.772  1.00  0.00     0.043 A 
HETATM   11  C   UNL     1      38.151  -9.080  -1.932  1.00  0.00     0.001 A 
HETATM   12  C   UNL     1      36.942  -9.151  -2.619  1.00  0.00     0.002 A 
HETATM   13  C   UNL     1      36.430 -10.377  -3.052  1.00  0.00     0.030 A 
HETATM   14  N   UNL     1      36.918 -12.846  -3.066  1.00  0.00    -0.364 N 
HETATM   15  H   UNL     1      36.098 -13.174  -3.558  1.00  0.00     0.165 HD
HETATM   16  C   UNL     1      37.925 -13.644  -2.595  1.00  0.00     0.102 A 
ENDBRANCH   6   7
ENDBRANCH   1   5
BRANCH   2  17
HETATM   17  C   UNL     1      43.067 -14.970   1.698  1.00  0.00     0.280 C 
BRANCH  17  18
HETATM   18  O   UNL     1      43.128 -15.207   3.099  1.00  0.00    -0.340 OA
BRANCH  18  19
HETATM   19  C   UNL     1      43.421 -16.490   3.492  1.00  0.00     0.091 A 
HETATM   20  C   UNL     1      43.711 -16.692   4.851  1.00  0.00     0.068 A 
HETATM   21 CL   UNL     1      43.718 -15.372   5.969  1.00  0.00    -0.081 Cl
HETATM   22  C   UNL     1      44.013 -17.966   5.340  1.00  0.00     0.046 A 
HETATM   23  C   UNL     1      44.016 -19.050   4.467  1.00  0.00     0.012 A 
HETATM   24 BR   UNL     1      44.421 -20.779   5.115  1.00  0.00    -0.051 Br
HETATM   25  C   UNL     1      43.717 -18.871   3.118  1.00  0.00     0.022 A 
HETATM   26  C   UNL     1      43.419 -17.594   2.631  1.00  0.00     0.040 A 
ENDBRANCH  18  19
ENDBRANCH  17  18
ENDBRANCH   2  17
TORSDOF 5
ENDMDL
MODEL 10
REMARK VINA RESULT:      -7.1      7.266      9.058
REMARK  5 active torsions:
REMARK  status: ('A' for Active; 'I' for Inactive)
REMARK    1  A    between atoms: C_8  and  C_9 
REMARK    2  A    between atoms: N_10  and  N_11 
REMARK       I    between atoms: N_11  and  C_12 
REMARK    3  A    between atoms: C_12  and  C_13 
REMARK    4  A    between atoms: C_13  and  O_14 
REMARK    5  A    between atoms: O_14  and  C_15 
ROOT
HETATM    1  N   UNL     1      41.786 -13.693   1.433  1.00  0.00    -0.246 N 
HETATM    2  C   UNL     1      40.714 -13.842   0.563  1.00  0.00     0.261 C 
HETATM    3  O   UNL     1      40.256 -14.906   0.148  1.00  0.00    -0.269 OA
HETATM    4  H   UNL     1      41.891 -12.781   1.878  1.00  0.00     0.192 HD
ENDROOT
BRANCH   1   5
HETATM    5  N   UNL     1      42.491 -14.702   2.047  1.00  0.00    -0.184 NA
HETATM    6  C   UNL     1      42.142 -15.073   3.237  1.00  0.00     0.152 C 
BRANCH   6   7
HETATM    7  C   UNL     1      42.888 -16.117   3.912  1.00  0.00     0.011 A 
HETATM    8  C   UNL     1      43.119 -17.449   3.434  1.00  0.00     0.004 A 
HETATM    9  C   UNL     1      42.736 -18.160   2.276  1.00  0.00     0.014 A 
HETATM   10  C   UNL     1      43.892 -18.109   4.391  1.00  0.00     0.043 A 
HETATM   11  C   UNL     1      43.139 -19.489   2.116  1.00  0.00     0.001 A 
HETATM   12  C   UNL     1      43.915 -20.116   3.087  1.00  0.00     0.002 A 
HETATM   13  C   UNL     1      44.307 -19.438   4.245  1.00  0.00     0.030 A 
HETATM   14  N   UNL     1      44.119 -17.216   5.412  1.00  0.00    -0.364 N 
HETATM   15  H   UNL     1      44.652 -17.422   6.246  1.00  0.00     0.165 HD
HETATM   16  C   UNL     1      43.517 -16.018   5.138  1.00  0.00     0.102 A 
ENDBRANCH   6   7
ENDBRANCH   1   5
BRANCH   2  17
HETATM   17  C   UNL     1      40.161 -12.509   0.061  1.00  0.00     0.280 C 
BRANCH  17  18
HETATM   18  O   UNL     1      38.914 -12.665  -0.605  1.00  0.00    -0.340 OA
BRANCH  18  19
HETATM   19  C   UNL     1      38.014 -11.636  -0.472  1.00  0.00     0.091 A 
HETATM   20  C   UNL     1      37.761 -10.858  -1.614  1.00  0.00     0.068 A 
HETATM   21 CL   UNL     1      38.567 -11.178  -3.110  1.00  0.00    -0.081 Cl
HETATM   22  C   UNL     1      36.855  -9.795  -1.572  1.00  0.00     0.046 A 
HETATM   23  C   UNL     1      36.189  -9.511  -0.384  1.00  0.00     0.012 A 
HETATM   24 BR   UNL     1      34.960  -8.076  -0.314  1.00  0.00    -0.051 Br
HETATM   25  C   UNL     1      36.418 -10.280   0.755  1.00  0.00     0.022 A 
HETATM   26  C   UNL     1      37.327 -11.341   0.711  1.00  0.00     0.040 A 
ENDBRANCH  18  19
ENDBRANCH  17  18
ENDBRANCH   2  17
TORSDOF 5
ENDMDL
