MODEL 1
REMARK VINA RESULT:      -8.1      0.000      0.000
REMARK  5 active torsions:
REMARK  status: ('A' for Active; 'I' for Inactive)
REMARK    1  A    between atoms: C_2  and  O_3 
REMARK    2  A    between atoms: O_3  and  C_4 
REMARK    3  A    between atoms: C_7  and  C_8 
REMARK       I    between atoms: C_8  and  N_9 
REMARK    4  A    between atoms: N_9  and  N_10 
REMARK    5  A    between atoms: C_11  and  C_12 
ROOT
HETATM    1  C   UNL     1      40.604 -14.751   0.297  1.00  0.00     0.271 C 
HETATM    2  N   UNL     1      41.729 -14.806   1.111  1.00  0.00    -0.243 N 
HETATM    3  O   UNL     1      39.647 -15.519   0.344  1.00  0.00    -0.266 OA
HETATM    4  H   UNL     1      42.309 -13.978   1.195  1.00  0.00     0.192 HD
ENDROOT
BRANCH   2   5
HETATM    5  N   UNL     1      41.973 -15.725   2.103  1.00  0.00    -0.183 NA
HETATM    6  C   UNL     1      43.165 -15.812   2.602  1.00  0.00     0.153 C 
BRANCH   6   7
HETATM    7  C   UNL     1      43.460 -16.797   3.630  1.00  0.00     0.018 A 
HETATM    8  C   UNL     1      43.583 -18.212   3.415  1.00  0.00     0.004 A 
HETATM    9  C   UNL     1      43.875 -18.801   4.643  1.00  0.00     0.043 A 
HETATM   10  C   UNL     1      43.463 -19.050   2.284  1.00  0.00     0.014 A 
HETATM   11  C   UNL     1      44.061 -20.180   4.802  1.00  0.00     0.030 A 
HETATM   12  N   UNL     1      43.928 -17.789   5.571  1.00  0.00    -0.358 N 
HETATM   13  C   UNL     1      43.938 -20.985   3.666  1.00  0.00     0.002 A 
HETATM   14  C   UNL     1      43.643 -20.430   2.423  1.00  0.00     0.001 A 
HETATM   15  H   UNL     1      44.123 -17.929   6.553  1.00  0.00     0.166 HD
HETATM   16  C   UNL     1      43.683 -16.573   4.982  1.00  0.00     0.018 A 
HETATM   17  C   UNL     1      43.693 -15.318   5.779  1.00  0.00     0.069 C 
ENDBRANCH   6   7
ENDBRANCH   2   5
BRANCH   1  18
HETATM   18  C   UNL     1      40.574 -13.634  -0.695  1.00  0.00     0.033 A 
HETATM   19  C   UNL     1      40.955 -12.326  -0.372  1.00  0.00     0.020 A 
HETATM   20  C   UNL     1      40.946 -11.334  -1.357  1.00  0.00     0.038 A 
HETATM   21  C   UNL     1      40.584 -11.633  -2.673  1.00  0.00     0.068 A 
HETATM   22  C   UNL     1      40.198 -12.934  -2.996  1.00  0.00     0.038 A 
HETATM   23  C   UNL     1      40.197 -13.928  -2.012  1.00  0.00     0.020 A 
BRANCH  21  24
HETATM   24  O   UNL     1      40.644 -10.580  -3.541  1.00  0.00    -0.352 OA
BRANCH  24  25
HETATM   25  C   UNL     1      39.842  -9.442  -3.220  1.00  0.00     0.171 C 
HETATM   26  C   UNL     1      38.433  -9.706  -3.719  1.00  0.00     0.034 C 
ENDBRANCH  24  25
ENDBRANCH  21  24
ENDBRANCH   1  18
TORSDOF 5
ENDMDL
MODEL 2
REMARK VINA RESULT:      -8.0      6.214      9.568
REMARK  5 active torsions:
REMARK  status: ('A' for Active; 'I' for Inactive)
REMARK    1  A    between atoms: C_2  and  O_3 
REMARK    2  A    between atoms: O_3  and  C_4 
REMARK    3  A    between atoms: C_7  and  C_8 
REMARK       I    between atoms: C_8  and  N_9 
REMARK    4  A    between atoms: N_9  and  N_10 
REMARK    5  A    between atoms: C_11  and  C_12 
ROOT
HETATM    1  C   UNL     1      44.601 -11.472   7.656  1.00  0.00     0.271 C 
HETATM    2  N   UNL     1      43.695 -12.499   7.421  1.00  0.00    -0.243 N 
HETATM    3  O   UNL     1      45.675 -11.318   7.082  1.00  0.00    -0.266 OA
HETATM    4  H   UNL     1      42.734 -12.379   7.723  1.00  0.00     0.192 HD
ENDROOT
BRANCH   2   5
HETATM    5  N   UNL     1      43.841 -13.523   6.514  1.00  0.00    -0.183 NA
HETATM    6  C   UNL     1      42.959 -14.471   6.488  1.00  0.00     0.153 C 
BRANCH   6   7
HETATM    7  C   UNL     1      43.105 -15.582   5.561  1.00  0.00     0.018 A 
HETATM    8  C   UNL     1      43.095 -15.478   4.129  1.00  0.00     0.004 A 
HETATM    9  C   UNL     1      43.269 -16.759   3.612  1.00  0.00     0.043 A 
HETATM   10  C   UNL     1      42.945 -14.406   3.221  1.00  0.00     0.014 A 
HETATM   11  C   UNL     1      43.308 -17.028   2.238  1.00  0.00     0.030 A 
HETATM   12  N   UNL     1      43.380 -17.613   4.683  1.00  0.00    -0.358 N 
HETATM   13  C   UNL     1      43.159 -15.948   1.362  1.00  0.00     0.002 A 
HETATM   14  C   UNL     1      42.979 -14.655   1.845  1.00  0.00     0.001 A 
HETATM   15  H   UNL     1      43.513 -18.611   4.601  1.00  0.00     0.166 HD
HETATM   16  C   UNL     1      43.286 -16.925   5.868  1.00  0.00     0.018 A 
HETATM   17  C   UNL     1      43.384 -17.628   7.174  1.00  0.00     0.069 C 
ENDBRANCH   6   7
ENDBRANCH   2   5
BRANCH   1  18
HETATM   18  C   UNL     1      44.191 -10.469   8.685  1.00  0.00     0.033 A 
HETATM   19  C   UNL     1      42.978  -9.775   8.623  1.00  0.00     0.020 A 
HETATM   20  C   UNL     1      42.633  -8.880   9.642  1.00  0.00     0.038 A 
HETATM   21  C   UNL     1      43.474  -8.686  10.740  1.00  0.00     0.068 A 
HETATM   22  C   UNL     1      44.687  -9.372  10.801  1.00  0.00     0.038 A 
HETATM   23  C   UNL     1      45.040 -10.261   9.781  1.00  0.00     0.020 A 
BRANCH  21  24
HETATM   24  O   UNL     1      43.006  -7.807  11.675  1.00  0.00    -0.352 OA
BRANCH  24  25
HETATM   25  C   UNL     1      42.888  -8.299  13.011  1.00  0.00     0.171 C 
HETATM   26  C   UNL     1      43.224  -7.165  13.961  1.00  0.00     0.034 C 
ENDBRANCH  24  25
ENDBRANCH  21  24
ENDBRANCH   1  18
TORSDOF 5
ENDMDL
MODEL 3
REMARK VINA RESULT:      -8.0      5.583      8.825
REMARK  5 active torsions:
REMARK  status: ('A' for Active; 'I' for Inactive)
REMARK    1  A    between atoms: C_2  and  O_3 
REMARK    2  A    between atoms: O_3  and  C_4 
REMARK    3  A    between atoms: C_7  and  C_8 
REMARK       I    between atoms: C_8  and  N_9 
REMARK    4  A    between atoms: N_9  and  N_10 
REMARK    5  A    between atoms: C_11  and  C_12 
ROOT
HETATM    1  C   UNL     1      44.249 -11.569   6.230  1.00  0.00     0.271 C 
HETATM    2  N   UNL     1      43.327 -12.606   6.158  1.00  0.00    -0.243 N 
HETATM    3  O   UNL     1      45.009 -11.222   5.331  1.00  0.00    -0.266 OA
HETATM    4  H   UNL     1      42.563 -12.624   6.825  1.00  0.00     0.192 HD
ENDROOT
BRANCH   2   5
HETATM    5  N   UNL     1      43.107 -13.428   5.079  1.00  0.00    -0.183 NA
HETATM    6  C   UNL     1      42.558 -14.585   5.270  1.00  0.00     0.153 C 
BRANCH   6   7
HETATM    7  C   UNL     1      42.343 -15.488   4.150  1.00  0.00     0.018 A 
HETATM    8  C   UNL     1      43.017 -16.740   3.950  1.00  0.00     0.004 A 
HETATM    9  C   UNL     1      42.525 -17.299   2.773  1.00  0.00     0.043 A 
HETATM   10  C   UNL     1      44.011 -17.448   4.662  1.00  0.00     0.014 A 
HETATM   11  C   UNL     1      42.968 -18.530   2.271  1.00  0.00     0.030 A 
HETATM   12  N   UNL     1      41.590 -16.425   2.272  1.00  0.00    -0.358 N 
HETATM   13  C   UNL     1      43.951 -19.209   2.997  1.00  0.00     0.002 A 
HETATM   14  C   UNL     1      44.467 -18.677   4.175  1.00  0.00     0.001 A 
HETATM   15  H   UNL     1      41.071 -16.578   1.419  1.00  0.00     0.166 HD
HETATM   16  C   UNL     1      41.463 -15.328   3.088  1.00  0.00     0.018 A 
HETATM   17  C   UNL     1      40.503 -14.239   2.765  1.00  0.00     0.069 C 
ENDBRANCH   6   7
ENDBRANCH   2   5
BRANCH   1  18
HETATM   18  C   UNL     1      44.275 -10.811   7.518  1.00  0.00     0.033 A 
HETATM   19  C   UNL     1      43.136 -10.207   8.063  1.00  0.00     0.020 A 
HETATM   20  C   UNL     1      43.217  -9.550   9.294  1.00  0.00     0.038 A 
HETATM   21  C   UNL     1      44.419  -9.506  10.006  1.00  0.00     0.068 A 
HETATM   22  C   UNL     1      45.556 -10.101   9.462  1.00  0.00     0.038 A 
HETATM   23  C   UNL     1      45.483 -10.753   8.227  1.00  0.00     0.020 A 
BRANCH  21  24
HETATM   24  O   UNL     1      44.354  -8.856  11.206  1.00  0.00    -0.352 OA
BRANCH  24  25
HETATM   25  C   UNL     1      43.135  -8.992  11.940  1.00  0.00     0.171 C 
HETATM   26  C   UNL     1      43.177  -8.018  13.103  1.00  0.00     0.034 C 
ENDBRANCH  24  25
ENDBRANCH  21  24
ENDBRANCH   1  18
TORSDOF 5
ENDMDL
MODEL 4
REMARK VINA RESULT:      -7.6      1.119      1.517
REMARK  5 active torsions:
REMARK  status: ('A' for Active; 'I' for Inactive)
REMARK    1  A    between atoms: C_2  and  O_3 
REMARK    2  A    between atoms: O_3  and  C_4 
REMARK    3  A    between atoms: C_7  and  C_8 
REMARK       I    between atoms: C_8  and  N_9 
REMARK    4  A    between atoms: N_9  and  N_10 
REMARK    5  A    between atoms: C_11  and  C_12 
ROOT
HETATM    1  C   UNL     1      40.323 -14.007   1.314  1.00  0.00     0.271 C 
HETATM    2  N   UNL     1      41.012 -15.197   1.115  1.00  0.00    -0.243 N 
HETATM    3  O   UNL     1      40.001 -13.539   2.402  1.00  0.00    -0.266 OA
HETATM    4  H   UNL     1      41.478 -15.346   0.226  1.00  0.00     0.192 HD
ENDROOT
BRANCH   2   5
HETATM    5  N   UNL     1      41.446 -16.062   2.092  1.00  0.00    -0.183 NA
HETATM    6  C   UNL     1      42.671 -15.983   2.503  1.00  0.00     0.153 C 
BRANCH   6   7
HETATM    7  C   UNL     1      43.166 -16.905   3.513  1.00  0.00     0.018 A 
HETATM    8  C   UNL     1      43.405 -18.307   3.313  1.00  0.00     0.004 A 
HETATM    9  C   UNL     1      43.880 -18.829   4.514  1.00  0.00     0.043 A 
HETATM   10  C   UNL     1      43.252 -19.185   2.216  1.00  0.00     0.014 A 
HETATM   11  C   UNL     1      44.216 -20.178   4.678  1.00  0.00     0.030 A 
HETATM   12  N   UNL     1      43.928 -17.790   5.412  1.00  0.00    -0.358 N 
HETATM   13  C   UNL     1      44.057 -21.024   3.577  1.00  0.00     0.002 A 
HETATM   14  C   UNL     1      43.581 -20.537   2.362  1.00  0.00     0.001 A 
HETATM   15  H   UNL     1      44.235 -17.883   6.370  1.00  0.00     0.166 HD
HETATM   16  C   UNL     1      43.504 -16.621   4.829  1.00  0.00     0.018 A 
HETATM   17  C   UNL     1      43.472 -15.348   5.597  1.00  0.00     0.069 C 
ENDBRANCH   6   7
ENDBRANCH   2   5
BRANCH   1  18
HETATM   18  C   UNL     1      39.984 -13.238   0.079  1.00  0.00     0.033 A 
HETATM   19  C   UNL     1      39.767 -13.854  -1.159  1.00  0.00     0.020 A 
HETATM   20  C   UNL     1      39.408 -13.082  -2.269  1.00  0.00     0.038 A 
HETATM   21  C   UNL     1      39.239 -11.699  -2.156  1.00  0.00     0.068 A 
HETATM   22  C   UNL     1      39.461 -11.083  -0.926  1.00  0.00     0.038 A 
HETATM   23  C   UNL     1      39.828 -11.849   0.186  1.00  0.00     0.020 A 
BRANCH  21  24
HETATM   24  O   UNL     1      38.863 -11.069  -3.309  1.00  0.00    -0.352 OA
BRANCH  24  25
HETATM   25  C   UNL     1      37.934  -9.993  -3.173  1.00  0.00     0.171 C 
HETATM   26  C   UNL     1      36.533 -10.577  -3.182  1.00  0.00     0.034 C 
ENDBRANCH  24  25
ENDBRANCH  21  24
ENDBRANCH   1  18
TORSDOF 5
ENDMDL
MODEL 5
REMARK VINA RESULT:      -7.5      2.735      9.602
REMARK  5 active torsions:
REMARK  status: ('A' for Active; 'I' for Inactive)
REMARK    1  A    between atoms: C_2  and  O_3 
REMARK    2  A    between atoms: O_3  and  C_4 
REMARK    3  A    between atoms: C_7  and  C_8 
REMARK       I    between atoms: C_8  and  N_9 
REMARK    4  A    between atoms: N_9  and  N_10 
REMARK    5  A    between atoms: C_11  and  C_12 
ROOT
HETATM    1  C   UNL     1      41.279 -14.877   2.040  1.00  0.00     0.271 C 
HETATM    2  N   UNL     1      41.413 -14.726   0.665  1.00  0.00    -0.243 N 
HETATM    3  O   UNL     1      40.475 -14.282   2.752  1.00  0.00    -0.266 OA
HETATM    4  H   UNL     1      41.884 -15.454   0.139  1.00  0.00     0.192 HD
ENDROOT
BRANCH   2   5
HETATM    5  N   UNL     1      40.680 -13.884  -0.137  1.00  0.00    -0.183 NA
HETATM    6  C   UNL     1      39.497 -14.249  -0.518  1.00  0.00     0.153 C 
BRANCH   6   7
HETATM    7  C   UNL     1      38.712 -13.393  -1.393  1.00  0.00     0.018 A 
HETATM    8  C   UNL     1      38.292 -12.054  -1.089  1.00  0.00     0.004 A 
HETATM    9  C   UNL     1      37.572 -11.579  -2.183  1.00  0.00     0.043 A 
HETATM   10  C   UNL     1      38.455 -11.201   0.025  1.00  0.00     0.014 A 
HETATM   11  C   UNL     1      37.009 -10.298  -2.226  1.00  0.00     0.030 A 
HETATM   12  N   UNL     1      37.549 -12.587  -3.117  1.00  0.00    -0.358 N 
HETATM   13  C   UNL     1      37.186  -9.474  -1.111  1.00  0.00     0.002 A 
HETATM   14  C   UNL     1      37.898  -9.917   0.001  1.00  0.00     0.001 A 
HETATM   15  H   UNL     1      37.091 -12.518  -4.014  1.00  0.00     0.166 HD
HETATM   16  C   UNL     1      38.232 -13.689  -2.663  1.00  0.00     0.018 A 
HETATM   17  C   UNL     1      38.358 -14.911  -3.499  1.00  0.00     0.069 C 
ENDBRANCH   6   7
ENDBRANCH   2   5
BRANCH   1  18
HETATM   18  C   UNL     1      42.188 -15.879   2.674  1.00  0.00     0.033 A 
HETATM   19  C   UNL     1      42.714 -15.716   3.960  1.00  0.00     0.020 A 
HETATM   20  C   UNL     1      43.525 -16.712   4.515  1.00  0.00     0.038 A 
HETATM   21  C   UNL     1      43.800 -17.887   3.810  1.00  0.00     0.068 A 
HETATM   22  C   UNL     1      43.282 -18.049   2.526  1.00  0.00     0.038 A 
HETATM   23  C   UNL     1      42.478 -17.053   1.964  1.00  0.00     0.020 A 
BRANCH  21  24
HETATM   24  O   UNL     1      44.581 -18.788   4.476  1.00  0.00    -0.352 OA
BRANCH  24  25
HETATM   25  C   UNL     1      43.950 -19.529   5.522  1.00  0.00     0.171 C 
HETATM   26  C   UNL     1      43.897 -20.986   5.098  1.00  0.00     0.034 C 
ENDBRANCH  24  25
ENDBRANCH  21  24
ENDBRANCH   1  18
TORSDOF 5
ENDMDL
MODEL 6
REMARK VINA RESULT:      -7.4      5.892      9.079
REMARK  5 active torsions:
REMARK  status: ('A' for Active; 'I' for Inactive)
REMARK    1  A    between atoms: C_2  and  O_3 
REMARK    2  A    between atoms: O_3  and  C_4 
REMARK    3  A    between atoms: C_7  and  C_8 
REMARK       I    between atoms: C_8  and  N_9 
REMARK    4  A    between atoms: N_9  and  N_10 
REMARK    5  A    between atoms: C_11  and  C_12 
ROOT
HETATM    1  C   UNL     1      44.664 -11.429   6.916  1.00  0.00     0.271 C 
HETATM    2  N   UNL     1      43.580 -12.082   6.343  1.00  0.00    -0.243 N 
HETATM    3  O   UNL     1      45.822 -11.469   6.510  1.00  0.00    -0.266 OA
HETATM    4  H   UNL     1      42.644 -11.760   6.566  1.00  0.00     0.192 HD
ENDROOT
BRANCH   2   5
HETATM    5  N   UNL     1      43.609 -12.889   5.230  1.00  0.00    -0.183 NA
HETATM    6  C   UNL     1      42.801 -13.899   5.163  1.00  0.00     0.153 C 
BRANCH   6   7
HETATM    7  C   UNL     1      42.833 -14.788   4.012  1.00  0.00     0.018 A 
HETATM    8  C   UNL     1      43.275 -16.154   4.028  1.00  0.00     0.004 A 
HETATM    9  C   UNL     1      43.143 -16.655   2.735  1.00  0.00     0.043 A 
HETATM   10  C   UNL     1      43.786 -17.011   5.029  1.00  0.00     0.014 A 
HETATM   11  C   UNL     1      43.488 -17.967   2.388  1.00  0.00     0.030 A 
HETATM   12  N   UNL     1      42.643 -15.637   1.959  1.00  0.00    -0.358 N 
HETATM   13  C   UNL     1      43.988 -18.794   3.398  1.00  0.00     0.002 A 
HETATM   14  C   UNL     1      44.137 -18.325   4.700  1.00  0.00     0.001 A 
HETATM   15  H   UNL     1      42.448 -15.721   0.972  1.00  0.00     0.166 HD
HETATM   16  C   UNL     1      42.446 -14.503   2.709  1.00  0.00     0.018 A 
HETATM   17  C   UNL     1      41.901 -13.263   2.096  1.00  0.00     0.069 C 
ENDBRANCH   6   7
ENDBRANCH   2   5
BRANCH   1  18
HETATM   18  C   UNL     1      44.357 -10.592   8.115  1.00  0.00     0.033 A 
HETATM   19  C   UNL     1      45.285 -10.368   9.139  1.00  0.00     0.020 A 
HETATM   20  C   UNL     1      44.951  -9.538  10.213  1.00  0.00     0.038 A 
HETATM   21  C   UNL     1      43.707  -8.903  10.270  1.00  0.00     0.068 A 
HETATM   22  C   UNL     1      42.780  -9.129   9.255  1.00  0.00     0.038 A 
HETATM   23  C   UNL     1      43.105  -9.966   8.182  1.00  0.00     0.020 A 
BRANCH  21  24
HETATM   24  O   UNL     1      43.520  -8.099  11.359  1.00  0.00    -0.352 OA
BRANCH  24  25
HETATM   25  C   UNL     1      43.228  -8.755  12.593  1.00  0.00     0.171 C 
HETATM   26  C   UNL     1      41.754  -8.551  12.895  1.00  0.00     0.034 C 
ENDBRANCH  24  25
ENDBRANCH  21  24
ENDBRANCH   1  18
TORSDOF 5
ENDMDL
MODEL 7
REMARK VINA RESULT:      -7.2      5.697      9.820
REMARK  5 active torsions:
REMARK  status: ('A' for Active; 'I' for Inactive)
REMARK    1  A    between atoms: C_2  and  O_3 
REMARK    2  A    between atoms: O_3  and  C_4 
REMARK    3  A    between atoms: C_7  and  C_8 
REMARK       I    between atoms: C_8  and  N_9 
REMARK    4  A    between atoms: N_9  and  N_10 
REMARK    5  A    between atoms: C_11  and  C_12 
ROOT
HETATM    1  C   UNL     1      42.868 -13.976   6.144  1.00  0.00     0.271 C 
HETATM    2  N   UNL     1      43.949 -13.395   6.798  1.00  0.00    -0.243 N 
HETATM    3  O   UNL     1      41.720 -13.541   6.132  1.00  0.00    -0.266 OA
HETATM    4  H   UNL     1      44.887 -13.657   6.513  1.00  0.00     0.192 HD
ENDROOT
BRANCH   2   5
HETATM    5  N   UNL     1      43.925 -12.243   7.547  1.00  0.00    -0.183 NA
HETATM    6  C   UNL     1      44.143 -11.108   6.962  1.00  0.00     0.153 C 
BRANCH   6   7
HETATM    7  C   UNL     1      44.156  -9.876   7.736  1.00  0.00     0.018 A 
HETATM    8  C   UNL     1      42.993  -9.179   8.208  1.00  0.00     0.004 A 
HETATM    9  C   UNL     1      43.430  -8.057   8.908  1.00  0.00     0.043 A 
HETATM   10  C   UNL     1      41.601  -9.397   8.098  1.00  0.00     0.014 A 
HETATM   11  C   UNL     1      42.554  -7.144   9.508  1.00  0.00     0.030 A 
HETATM   12  N   UNL     1      44.803  -8.065   8.864  1.00  0.00    -0.358 N 
HETATM   13  C   UNL     1      41.182  -7.385   9.385  1.00  0.00     0.002 A 
HETATM   14  C   UNL     1      40.711  -8.495   8.689  1.00  0.00     0.001 A 
HETATM   15  H   UNL     1      45.389  -7.362   9.292  1.00  0.00     0.166 HD
HETATM   16  C   UNL     1      45.262  -9.154   8.164  1.00  0.00     0.018 A 
HETATM   17  C   UNL     1      46.718  -9.393   7.983  1.00  0.00     0.069 C 
ENDBRANCH   6   7
ENDBRANCH   2   5
BRANCH   1  18
HETATM   18  C   UNL     1      43.167 -15.222   5.377  1.00  0.00     0.033 A 
HETATM   19  C   UNL     1      42.750 -15.415   4.055  1.00  0.00     0.020 A 
HETATM   20  C   UNL     1      43.100 -16.587   3.377  1.00  0.00     0.038 A 
HETATM   21  C   UNL     1      43.886 -17.564   3.993  1.00  0.00     0.068 A 
HETATM   22  C   UNL     1      44.297 -17.378   5.311  1.00  0.00     0.038 A 
HETATM   23  C   UNL     1      43.943 -16.211   5.997  1.00  0.00     0.020 A 
BRANCH  21  24
HETATM   24  O   UNL     1      44.178 -18.646   3.210  1.00  0.00    -0.352 OA
BRANCH  24  25
HETATM   25  C   UNL     1      43.216 -18.988   2.211  1.00  0.00     0.171 C 
HETATM   26  C   UNL     1      43.435 -20.440   1.827  1.00  0.00     0.034 C 
ENDBRANCH  24  25
ENDBRANCH  21  24
ENDBRANCH   1  18
TORSDOF 5
ENDMDL
MODEL 8
REMARK VINA RESULT:      -7.2      4.639      7.507
REMARK  5 active torsions:
REMARK  status: ('A' for Active; 'I' for Inactive)
REMARK    1  A    between atoms: C_2  and  O_3 
REMARK    2  A    between atoms: O_3  and  C_4 
REMARK    3  A    between atoms: C_7  and  C_8 
REMARK       I    between atoms: C_8  and  N_9 
REMARK    4  A    between atoms: N_9  and  N_10 
REMARK    5  A    between atoms: C_11  and  C_12 
ROOT
HETATM    1  C   UNL     1      42.422 -12.557   5.162  1.00  0.00     0.271 C 
HETATM    2  N   UNL     1      43.209 -13.701   5.218  1.00  0.00    -0.243 N 
HETATM    3  O   UNL     1      41.585 -12.305   4.301  1.00  0.00    -0.266 OA
HETATM    4  H   UNL     1      43.644 -13.950   6.100  1.00  0.00     0.192 HD
ENDROOT
BRANCH   2   5
HETATM    5  N   UNL     1      43.197 -14.743   4.321  1.00  0.00    -0.183 NA
HETATM    6  C   UNL     1      43.387 -15.948   4.755  1.00  0.00     0.153 C 
BRANCH   6   7
HETATM    7  C   UNL     1      43.412 -17.067   3.825  1.00  0.00     0.018 A 
HETATM    8  C   UNL     1      43.627 -18.440   4.181  1.00  0.00     0.004 A 
HETATM    9  C   UNL     1      43.569 -19.194   3.011  1.00  0.00     0.043 A 
HETATM   10  C   UNL     1      43.876 -19.114   5.398  1.00  0.00     0.014 A 
HETATM   11  C   UNL     1      43.739 -20.584   2.990  1.00  0.00     0.030 A 
HETATM   12  N   UNL     1      43.329 -18.317   1.980  1.00  0.00    -0.358 N 
HETATM   13  C   UNL     1      43.982 -21.225   4.209  1.00  0.00     0.002 A 
HETATM   14  C   UNL     1      44.051 -20.502   5.397  1.00  0.00     0.001 A 
HETATM   15  H   UNL     1      43.239 -18.591   1.012  1.00  0.00     0.166 HD
HETATM   16  C   UNL     1      43.229 -17.030   2.448  1.00  0.00     0.018 A 
HETATM   17  C   UNL     1      42.962 -15.897   1.524  1.00  0.00     0.069 C 
ENDBRANCH   6   7
ENDBRANCH   2   5
BRANCH   1  18
HETATM   18  C   UNL     1      42.615 -11.582   6.278  1.00  0.00     0.033 A 
HETATM   19  C   UNL     1      43.688 -11.658   7.172  1.00  0.00     0.020 A 
HETATM   20  C   UNL     1      43.837 -10.688   8.168  1.00  0.00     0.038 A 
HETATM   21  C   UNL     1      42.939  -9.622   8.271  1.00  0.00     0.068 A 
HETATM   22  C   UNL     1      41.865  -9.548   7.385  1.00  0.00     0.038 A 
HETATM   23  C   UNL     1      41.706 -10.520   6.392  1.00  0.00     0.020 A 
BRANCH  21  24
HETATM   24  O   UNL     1      43.214  -8.731   9.269  1.00  0.00    -0.352 OA
BRANCH  24  25
HETATM   25  C   UNL     1      42.686  -9.038  10.560  1.00  0.00     0.171 C 
HETATM   26  C   UNL     1      43.819  -8.938  11.566  1.00  0.00     0.034 C 
ENDBRANCH  24  25
ENDBRANCH  21  24
ENDBRANCH   1  18
TORSDOF 5
ENDMDL
MODEL 9
REMARK VINA RESULT:      -6.9      4.905      9.362
REMARK  5 active torsions:
REMARK  status: ('A' for Active; 'I' for Inactive)
REMARK    1  A    between atoms: C_2  and  O_3 
REMARK    2  A    between atoms: O_3  and  C_4 
REMARK    3  A    between atoms: C_7  and  C_8 
REMARK       I    between atoms: C_8  and  N_9 
REMARK    4  A    between atoms: N_9  and  N_10 
REMARK    5  A    between atoms: C_11  and  C_12 
ROOT
HETATM    1  C   UNL     1      42.099 -14.670   4.156  1.00  0.00     0.271 C 
HETATM    2  N   UNL     1      43.005 -13.764   4.695  1.00  0.00    -0.243 N 
HETATM    3  O   UNL     1      40.915 -14.446   3.921  1.00  0.00    -0.266 OA
HETATM    4  H   UNL     1      43.997 -13.940   4.579  1.00  0.00     0.192 HD
ENDROOT
BRANCH   2   5
HETATM    5  N   UNL     1      42.738 -12.467   5.064  1.00  0.00    -0.183 NA
HETATM    6  C   UNL     1      42.752 -12.155   6.321  1.00  0.00     0.153 C 
BRANCH   6   7
HETATM    7  C   UNL     1      42.442 -10.797   6.743  1.00  0.00     0.018 A 
HETATM    8  C   UNL     1      43.324  -9.932   7.473  1.00  0.00     0.004 A 
HETATM    9  C   UNL     1      42.659  -8.724   7.674  1.00  0.00     0.043 A 
HETATM   10  C   UNL     1      44.631 -10.069   7.992  1.00  0.00     0.014 A 
HETATM   11  C   UNL     1      43.230  -7.644   8.359  1.00  0.00     0.030 A 
HETATM   12  N   UNL     1      41.420  -8.846   7.091  1.00  0.00    -0.358 N 
HETATM   13  C   UNL     1      44.525  -7.807   8.860  1.00  0.00     0.002 A 
HETATM   14  C   UNL     1      45.217  -9.002   8.681  1.00  0.00     0.001 A 
HETATM   15  H   UNL     1      40.722  -8.116   7.086  1.00  0.00     0.166 HD
HETATM   16  C   UNL     1      41.269 -10.087   6.522  1.00  0.00     0.018 A 
HETATM   17  C   UNL     1      40.013 -10.461   5.820  1.00  0.00     0.069 C 
ENDBRANCH   6   7
ENDBRANCH   2   5
BRANCH   1  18
HETATM   18  C   UNL     1      42.651 -16.017   3.819  1.00  0.00     0.033 A 
HETATM   19  C   UNL     1      42.307 -16.705   2.651  1.00  0.00     0.020 A 
HETATM   20  C   UNL     1      42.893 -17.944   2.372  1.00  0.00     0.038 A 
HETATM   21  C   UNL     1      43.841 -18.499   3.235  1.00  0.00     0.068 A 
HETATM   22  C   UNL     1      44.181 -17.818   4.403  1.00  0.00     0.038 A 
HETATM   23  C   UNL     1      43.592 -16.583   4.691  1.00  0.00     0.020 A 
BRANCH  21  24
HETATM   24  O   UNL     1      44.354 -19.699   2.832  1.00  0.00    -0.352 OA
BRANCH  24  25
HETATM   25  C   UNL     1      43.703 -20.870   3.326  1.00  0.00     0.171 C 
HETATM   26  C   UNL     1      44.019 -20.993   4.806  1.00  0.00     0.034 C 
ENDBRANCH  24  25
ENDBRANCH  21  24
ENDBRANCH   1  18
TORSDOF 5
ENDMDL
MODEL 10
REMARK VINA RESULT:      -6.9     14.615     17.211
REMARK  5 active torsions:
REMARK  status: ('A' for Active; 'I' for Inactive)
REMARK    1  A    between atoms: C_2  and  O_3 
REMARK    2  A    between atoms: O_3  and  C_4 
REMARK    3  A    between atoms: C_7  and  C_8 
REMARK       I    between atoms: C_8  and  N_9 
REMARK    4  A    between atoms: N_9  and  N_10 
REMARK    5  A    between atoms: C_11  and  C_12 
ROOT
HETATM    1  C   UNL     1      41.770 -31.063   2.595  1.00  0.00     0.271 C 
HETATM    2  N   UNL     1      43.111 -31.125   2.955  1.00  0.00    -0.243 N 
HETATM    3  O   UNL     1      41.333 -30.630   1.532  1.00  0.00    -0.266 OA
HETATM    4  H   UNL     1      43.385 -31.752   3.705  1.00  0.00     0.192 HD
ENDROOT
BRANCH   2   5
HETATM    5  N   UNL     1      44.179 -30.710   2.196  1.00  0.00    -0.183 NA
HETATM    6  C   UNL     1      44.764 -29.593   2.490  1.00  0.00     0.153 C 
BRANCH   6   7
HETATM    7  C   UNL     1      45.876 -29.113   1.684  1.00  0.00     0.018 A 
HETATM    8  C   UNL     1      45.798 -28.733   0.302  1.00  0.00     0.004 A 
HETATM    9  C   UNL     1      47.071 -28.327  -0.096  1.00  0.00     0.043 A 
HETATM   10  C   UNL     1      44.758 -28.703  -0.654  1.00  0.00     0.014 A 
HETATM   11  C   UNL     1      47.359 -27.889  -1.394  1.00  0.00     0.030 A 
HETATM   12  N   UNL     1      47.893 -28.456   0.997  1.00  0.00    -0.358 N 
HETATM   13  C   UNL     1      46.311 -27.868  -2.319  1.00  0.00     0.002 A 
HETATM   14  C   UNL     1      45.029 -28.270  -1.957  1.00  0.00     0.001 A 
HETATM   15  H   UNL     1      48.878 -28.232   0.995  1.00  0.00     0.166 HD
HETATM   16  C   UNL     1      47.194 -28.926   2.082  1.00  0.00     0.018 A 
HETATM   17  C   UNL     1      47.863 -29.143   3.391  1.00  0.00     0.069 C 
ENDBRANCH   6   7
ENDBRANCH   2   5
BRANCH   1  18
HETATM   18  C   UNL     1      40.803 -31.603   3.597  1.00  0.00     0.033 A 
HETATM   19  C   UNL     1      40.850 -31.261   4.954  1.00  0.00     0.020 A 
HETATM   20  C   UNL     1      39.888 -31.766   5.834  1.00  0.00     0.038 A 
HETATM   21  C   UNL     1      38.859 -32.592   5.375  1.00  0.00     0.068 A 
HETATM   22  C   UNL     1      38.814 -32.939   4.025  1.00  0.00     0.038 A 
HETATM   23  C   UNL     1      39.778 -32.444   3.142  1.00  0.00     0.020 A 
BRANCH  21  24
HETATM   24  O   UNL     1      37.971 -32.993   6.333  1.00  0.00    -0.352 OA
BRANCH  24  25
HETATM   25  C   UNL     1      37.653 -34.385   6.364  1.00  0.00     0.171 C 
HETATM   26  C   UNL     1      36.151 -34.519   6.537  1.00  0.00     0.034 C 
ENDBRANCH  24  25
ENDBRANCH  21  24
ENDBRANCH   1  18
TORSDOF 5
ENDMDL
