MODEL 1
REMARK VINA RESULT:      -9.3      0.000      0.000
REMARK  7 active torsions:
REMARK  status: ('A' for Active; 'I' for Inactive)
REMARK    1  A    between atoms: N_3  and  C_4 
REMARK    2  A    between atoms: C_12  and  C_13 
REMARK       I    between atoms: C_13  and  N_14 
REMARK    3  A    between atoms: N_14  and  C_15 
REMARK    4  A    between atoms: C_15  and  C_16 
REMARK    5  A    between atoms: C_17  and  C_18 
REMARK    6  A    between atoms: C_18  and  O_19 
REMARK    7  A    between atoms: O_19  and  C_20 
ROOT
HETATM    1  C   UNL     1      43.976 -10.827   7.554  1.00  0.00     0.255 C 
HETATM    2  N   UNL     1      43.159 -11.860   7.164  1.00  0.00    -0.346 N 
HETATM    3  O   UNL     1      45.082 -10.630   7.063  1.00  0.00    -0.268 OA
HETATM    4  H   UNL     1      42.426 -12.153   7.786  1.00  0.00     0.163 HD
ENDROOT
BRANCH   2   5
HETATM    5  C   UNL     1      43.540 -12.760   6.106  1.00  0.00     0.217 C 
BRANCH   5   6
HETATM    6  C   UNL     1      43.677 -14.131   6.602  1.00  0.00    -0.085 C 
HETATM    7  C   UNL     1      43.740 -15.279   6.951  1.00  0.00    -0.078 C 
BRANCH   7   8
HETATM    8  C   UNL     1      43.764 -16.706   7.305  1.00  0.00     0.269 C 
BRANCH   8   9
HETATM    9  O   UNL     1      42.750 -17.373   6.550  1.00  0.00    -0.337 OA
BRANCH   9  10
HETATM   10  C   UNL     1      43.243 -17.916   5.400  1.00  0.00     0.103 A 
HETATM   11  C   UNL     1      42.962 -17.331   4.179  1.00  0.00     0.109 A 
HETATM   12  C   UNL     1      43.351 -17.925   2.989  1.00  0.00    -0.019 A 
HETATM   13  O   UNL     1      42.280 -16.155   4.010  1.00  0.00    -0.337 OA
HETATM   14  C   UNL     1      42.851 -17.133   1.843  1.00  0.00     0.079 C 
HETATM   15  C   UNL     1      44.043 -19.125   2.983  1.00  0.00     0.010 A 
HETATM   16  C   UNL     1      42.320 -15.882   2.581  1.00  0.00     0.065 C 
HETATM   17  C   UNL     1      40.895 -15.542   2.139  1.00  0.00     0.046 C 
HETATM   18  C   UNL     1      43.238 -14.674   2.360  1.00  0.00     0.046 C 
HETATM   19  C   UNL     1      44.334 -19.730   4.209  1.00  0.00     0.003 A 
HETATM   20  C   UNL     1      43.924 -19.136   5.414  1.00  0.00     0.040 A 
ENDBRANCH   9  10
ENDBRANCH   8   9
ENDBRANCH   7   8
ENDBRANCH   5   6
ENDBRANCH   2   5
BRANCH   1  21
HETATM   21  C   UNL     1      43.449  -9.949   8.587  1.00  0.00     0.075 C 
HETATM   22  C   UNL     1      43.931  -9.625   9.856  1.00  0.00     0.050 C 
HETATM   23  C   UNL     1      45.243  -9.903  10.500  1.00  0.00     0.071 C 
HETATM   24  N   UNL     1      42.870  -8.981  10.501  1.00  0.00    -0.238 N 
HETATM   25  N   UNL     1      41.951  -8.554   9.597  1.00  0.00    -0.179 NA
HETATM   26  C   UNL     1      42.229  -9.249   8.497  1.00  0.00     0.158 C 
BRANCH  24  27
HETATM   27  C   UNL     1      42.609  -8.791  11.893  1.00  0.00     0.058 A 
HETATM   28  C   UNL     1      43.312  -7.796  12.590  1.00  0.00     0.031 A 
HETATM   29  C   UNL     1      43.048  -7.555  13.940  1.00  0.00     0.002 A 
HETATM   30  C   UNL     1      42.069  -8.292  14.603  1.00  0.00     0.000 A 
HETATM   31  C   UNL     1      41.347  -9.264  13.913  1.00  0.00     0.002 A 
HETATM   32  C   UNL     1      41.609  -9.510  12.562  1.00  0.00     0.031 A 
ENDBRANCH  24  27
ENDBRANCH   1  21
TORSDOF 7
ENDMDL
MODEL 2
REMARK VINA RESULT:      -9.1      4.654      8.136
REMARK  7 active torsions:
REMARK  status: ('A' for Active; 'I' for Inactive)
REMARK    1  A    between atoms: N_3  and  C_4 
REMARK    2  A    between atoms: C_12  and  C_13 
REMARK       I    between atoms: C_13  and  N_14 
REMARK    3  A    between atoms: N_14  and  C_15 
REMARK    4  A    between atoms: C_15  and  C_16 
REMARK    5  A    between atoms: C_17  and  C_18 
REMARK    6  A    between atoms: C_18  and  O_19 
REMARK    7  A    between atoms: O_19  and  C_20 
ROOT
HETATM    1  C   UNL     1      41.734 -11.382   4.076  1.00  0.00     0.255 C 
HETATM    2  N   UNL     1      42.941 -12.022   4.222  1.00  0.00    -0.346 N 
HETATM    3  O   UNL     1      41.143 -10.852   5.010  1.00  0.00    -0.268 OA
HETATM    4  H   UNL     1      43.223 -12.683   3.518  1.00  0.00     0.163 HD
ENDROOT
BRANCH   2   5
HETATM    5  C   UNL     1      43.617 -12.067   5.493  1.00  0.00     0.217 C 
BRANCH   5   6
HETATM    6  C   UNL     1      43.264 -13.278   6.237  1.00  0.00    -0.085 C 
HETATM    7  C   UNL     1      43.034 -14.310   6.810  1.00  0.00    -0.078 C 
BRANCH   7   8
HETATM    8  C   UNL     1      42.829 -15.607   7.472  1.00  0.00     0.269 C 
BRANCH   8   9
HETATM    9  O   UNL     1      41.988 -16.407   6.638  1.00  0.00    -0.337 OA
BRANCH   9  10
HETATM   10  C   UNL     1      42.705 -17.110   5.714  1.00  0.00     0.103 A 
HETATM   11  C   UNL     1      42.531 -16.862   4.364  1.00  0.00     0.109 A 
HETATM   12  C   UNL     1      43.158 -17.638   3.404  1.00  0.00    -0.019 A 
HETATM   13  O   UNL     1      41.738 -15.873   3.843  1.00  0.00    -0.337 OA
HETATM   14  C   UNL     1      42.732 -17.208   2.053  1.00  0.00     0.079 C 
HETATM   15  C   UNL     1      43.989 -18.687   3.763  1.00  0.00     0.010 A 
HETATM   16  C   UNL     1      41.949 -15.923   2.404  1.00  0.00     0.065 C 
HETATM   17  C   UNL     1      40.570 -15.915   1.739  1.00  0.00     0.046 C 
HETATM   18  C   UNL     1      42.730 -14.667   2.001  1.00  0.00     0.046 C 
HETATM   19  C   UNL     1      44.174 -18.951   5.122  1.00  0.00     0.003 A 
HETATM   20  C   UNL     1      43.525 -18.174   6.096  1.00  0.00     0.040 A 
ENDBRANCH   9  10
ENDBRANCH   8   9
ENDBRANCH   7   8
ENDBRANCH   5   6
ENDBRANCH   2   5
BRANCH   1  21
HETATM   21  C   UNL     1      41.187 -11.350   2.729  1.00  0.00     0.075 C 
HETATM   22  C   UNL     1      40.074 -11.980   2.170  1.00  0.00     0.050 C 
HETATM   23  C   UNL     1      38.958 -12.730   2.806  1.00  0.00     0.071 C 
HETATM   24  N   UNL     1      40.214 -11.819   0.788  1.00  0.00    -0.238 N 
HETATM   25  N   UNL     1      41.094 -10.823   0.510  1.00  0.00    -0.179 NA
HETATM   26  C   UNL     1      41.762 -10.652   1.648  1.00  0.00     0.158 C 
BRANCH  24  27
HETATM   27  C   UNL     1      39.648 -12.562  -0.294  1.00  0.00     0.058 A 
HETATM   28  C   UNL     1      38.377 -12.207  -0.775  1.00  0.00     0.031 A 
HETATM   29  C   UNL     1      37.817 -12.885  -1.860  1.00  0.00     0.002 A 
HETATM   30  C   UNL     1      38.523 -13.910  -2.486  1.00  0.00     0.000 A 
HETATM   31  C   UNL     1      39.795 -14.251  -2.033  1.00  0.00     0.002 A 
HETATM   32  C   UNL     1      40.362 -13.577  -0.946  1.00  0.00     0.031 A 
ENDBRANCH  24  27
ENDBRANCH   1  21
TORSDOF 7
ENDMDL
MODEL 3
REMARK VINA RESULT:      -9.1      1.746      3.509
REMARK  7 active torsions:
REMARK  status: ('A' for Active; 'I' for Inactive)
REMARK    1  A    between atoms: N_3  and  C_4 
REMARK    2  A    between atoms: C_12  and  C_13 
REMARK       I    between atoms: C_13  and  N_14 
REMARK    3  A    between atoms: N_14  and  C_15 
REMARK    4  A    between atoms: C_15  and  C_16 
REMARK    5  A    between atoms: C_17  and  C_18 
REMARK    6  A    between atoms: C_18  and  O_19 
REMARK    7  A    between atoms: O_19  and  C_20 
ROOT
HETATM    1  C   UNL     1      45.133  -9.766   8.863  1.00  0.00     0.255 C 
HETATM    2  N   UNL     1      45.086 -10.893   8.081  1.00  0.00    -0.346 N 
HETATM    3  O   UNL     1      45.839  -8.799   8.599  1.00  0.00    -0.268 OA
HETATM    4  H   UNL     1      44.744 -11.747   8.488  1.00  0.00     0.163 HD
ENDROOT
BRANCH   2   5
HETATM    5  C   UNL     1      45.841 -10.990   6.857  1.00  0.00     0.217 C 
BRANCH   5   6
HETATM    6  C   UNL     1      44.975 -11.333   5.728  1.00  0.00    -0.085 C 
HETATM    7  C   UNL     1      44.325 -11.599   4.752  1.00  0.00    -0.078 C 
BRANCH   7   8
HETATM    8  C   UNL     1      43.606 -11.910   3.507  1.00  0.00     0.269 C 
BRANCH   8   9
HETATM    9  O   UNL     1      42.508 -12.768   3.826  1.00  0.00    -0.337 OA
BRANCH   9  10
HETATM   10  C   UNL     1      42.660 -14.013   3.289  1.00  0.00     0.103 A 
HETATM   11  C   UNL     1      43.058 -15.070   4.086  1.00  0.00     0.109 A 
HETATM   12  C   UNL     1      43.330 -16.316   3.545  1.00  0.00    -0.019 A 
HETATM   13  O   UNL     1      43.239 -15.007   5.442  1.00  0.00    -0.337 OA
HETATM   14  C   UNL     1      43.814 -17.230   4.604  1.00  0.00     0.079 C 
HETATM   15  C   UNL     1      43.206 -16.547   2.185  1.00  0.00     0.010 A 
HETATM   16  C   UNL     1      43.548 -16.366   5.859  1.00  0.00     0.065 C 
HETATM   17  C   UNL     1      44.786 -16.299   6.757  1.00  0.00     0.046 C 
HETATM   18  C   UNL     1      42.352 -16.896   6.657  1.00  0.00     0.046 C 
HETATM   19  C   UNL     1      42.805 -15.489   1.366  1.00  0.00     0.003 A 
HETATM   20  C   UNL     1      42.545 -14.221   1.912  1.00  0.00     0.040 A 
ENDBRANCH   9  10
ENDBRANCH   8   9
ENDBRANCH   7   8
ENDBRANCH   5   6
ENDBRANCH   2   5
BRANCH   1  21
HETATM   21  C   UNL     1      44.274  -9.767  10.038  1.00  0.00     0.075 C 
HETATM   22  C   UNL     1      43.498  -8.759  10.613  1.00  0.00     0.050 C 
HETATM   23  C   UNL     1      43.126  -7.410  10.111  1.00  0.00     0.071 C 
HETATM   24  N   UNL     1      43.135  -9.248  11.873  1.00  0.00    -0.238 N 
HETATM   25  N   UNL     1      43.298 -10.595  11.927  1.00  0.00    -0.179 NA
HETATM   26  C   UNL     1      44.097 -10.868  10.899  1.00  0.00     0.158 C 
BRANCH  24  27
HETATM   27  C   UNL     1      42.714  -8.556  13.049  1.00  0.00     0.058 A 
HETATM   28  C   UNL     1      41.572  -9.004  13.734  1.00  0.00     0.031 A 
HETATM   29  C   UNL     1      41.161  -8.376  14.912  1.00  0.00     0.002 A 
HETATM   30  C   UNL     1      41.892  -7.308  15.427  1.00  0.00     0.000 A 
HETATM   31  C   UNL     1      43.040  -6.873  14.770  1.00  0.00     0.002 A 
HETATM   32  C   UNL     1      43.456  -7.496  13.589  1.00  0.00     0.031 A 
ENDBRANCH  24  27
ENDBRANCH   1  21
TORSDOF 7
ENDMDL
MODEL 4
REMARK VINA RESULT:      -9.0      3.403      9.209
REMARK  7 active torsions:
REMARK  status: ('A' for Active; 'I' for Inactive)
REMARK    1  A    between atoms: N_3  and  C_4 
REMARK    2  A    between atoms: C_12  and  C_13 
REMARK       I    between atoms: C_13  and  N_14 
REMARK    3  A    between atoms: N_14  and  C_15 
REMARK    4  A    between atoms: C_15  and  C_16 
REMARK    5  A    between atoms: C_17  and  C_18 
REMARK    6  A    between atoms: C_18  and  O_19 
REMARK    7  A    between atoms: O_19  and  C_20 
ROOT
HETATM    1  C   UNL     1      39.744 -12.817   5.290  1.00  0.00     0.255 C 
HETATM    2  N   UNL     1      39.537 -11.621   4.647  1.00  0.00    -0.346 N 
HETATM    3  O   UNL     1      39.442 -13.005   6.462  1.00  0.00    -0.268 OA
HETATM    4  H   UNL     1      40.063 -11.426   3.813  1.00  0.00     0.163 HD
ENDROOT
BRANCH   2   5
HETATM    5  C   UNL     1      38.899 -10.513   5.311  1.00  0.00     0.217 C 
BRANCH   5   6
HETATM    6  C   UNL     1      39.843  -9.801   6.176  1.00  0.00    -0.085 C 
HETATM    7  C   UNL     1      40.555  -9.187   6.925  1.00  0.00    -0.078 C 
BRANCH   7   8
HETATM    8  C   UNL     1      41.350  -8.410   7.887  1.00  0.00     0.269 C 
BRANCH   8   9
HETATM    9  O   UNL     1      42.060  -9.325   8.724  1.00  0.00    -0.337 OA
BRANCH   9  10
HETATM   10  C   UNL     1      43.377  -9.418   8.379  1.00  0.00     0.103 A 
HETATM   11  C   UNL     1      43.822 -10.480   7.614  1.00  0.00     0.109 A 
HETATM   12  C   UNL     1      45.169 -10.659   7.347  1.00  0.00    -0.019 A 
HETATM   13  O   UNL     1      43.019 -11.446   7.068  1.00  0.00    -0.337 OA
HETATM   14  C   UNL     1      45.369 -11.911   6.583  1.00  0.00     0.079 C 
HETATM   15  C   UNL     1      46.119  -9.775   7.834  1.00  0.00     0.010 A 
HETATM   16  C   UNL     1      43.902 -12.281   6.267  1.00  0.00     0.065 C 
HETATM   17  C   UNL     1      43.607 -13.738   6.630  1.00  0.00     0.046 C 
HETATM   18  C   UNL     1      43.570 -12.033   4.791  1.00  0.00     0.046 C 
HETATM   19  C   UNL     1      45.685  -8.697   8.609  1.00  0.00     0.003 A 
HETATM   20  C   UNL     1      44.320  -8.524   8.894  1.00  0.00     0.040 A 
ENDBRANCH   9  10
ENDBRANCH   8   9
ENDBRANCH   7   8
ENDBRANCH   5   6
ENDBRANCH   2   5
BRANCH   1  21
HETATM   21  C   UNL     1      40.337 -13.878   4.490  1.00  0.00     0.075 C 
HETATM   22  C   UNL     1      40.664 -15.197   4.805  1.00  0.00     0.050 C 
HETATM   23  C   UNL     1      40.334 -16.025   5.996  1.00  0.00     0.071 C 
HETATM   24  N   UNL     1      41.466 -15.641   3.748  1.00  0.00    -0.238 N 
HETATM   25  N   UNL     1      41.314 -14.838   2.664  1.00  0.00    -0.179 NA
HETATM   26  C   UNL     1      40.762 -13.731   3.154  1.00  0.00     0.158 C 
BRANCH  24  27
HETATM   27  C   UNL     1      42.412 -16.710   3.688  1.00  0.00     0.058 A 
HETATM   28  C   UNL     1      42.426 -17.548   2.561  1.00  0.00     0.031 A 
HETATM   29  C   UNL     1      43.367 -18.574   2.452  1.00  0.00     0.002 A 
HETATM   30  C   UNL     1      44.314 -18.763   3.456  1.00  0.00     0.000 A 
HETATM   31  C   UNL     1      44.325 -17.922   4.566  1.00  0.00     0.002 A 
HETATM   32  C   UNL     1      43.384 -16.894   4.681  1.00  0.00     0.031 A 
ENDBRANCH  24  27
ENDBRANCH   1  21
TORSDOF 7
ENDMDL
MODEL 5
REMARK VINA RESULT:      -8.8      1.551      3.163
REMARK  7 active torsions:
REMARK  status: ('A' for Active; 'I' for Inactive)
REMARK    1  A    between atoms: N_3  and  C_4 
REMARK    2  A    between atoms: C_12  and  C_13 
REMARK       I    between atoms: C_13  and  N_14 
REMARK    3  A    between atoms: N_14  and  C_15 
REMARK    4  A    between atoms: C_15  and  C_16 
REMARK    5  A    between atoms: C_17  and  C_18 
REMARK    6  A    between atoms: C_18  and  O_19 
REMARK    7  A    between atoms: O_19  and  C_20 
ROOT
HETATM    1  C   UNL     1      43.854 -10.338   8.613  1.00  0.00     0.255 C 
HETATM    2  N   UNL     1      43.610 -11.520   7.957  1.00  0.00    -0.346 N 
HETATM    3  O   UNL     1      44.374  -9.370   8.072  1.00  0.00    -0.268 OA
HETATM    4  H   UNL     1      43.473 -12.353   8.502  1.00  0.00     0.163 HD
ENDROOT
BRANCH   2   5
HETATM    5  C   UNL     1      43.915 -11.678   6.557  1.00  0.00     0.217 C 
BRANCH   5   6
HETATM    6  C   UNL     1      42.735 -12.109   5.805  1.00  0.00    -0.085 C 
HETATM    7  C   UNL     1      41.754 -12.518   5.244  1.00  0.00    -0.078 C 
BRANCH   7   8
HETATM    8  C   UNL     1      40.539 -13.074   4.629  1.00  0.00     0.269 C 
BRANCH   8   9
HETATM    9  O   UNL     1      40.373 -14.414   5.098  1.00  0.00    -0.337 OA
BRANCH   9  10
HETATM   10  C   UNL     1      40.929 -15.326   4.249  1.00  0.00     0.103 A 
HETATM   11  C   UNL     1      42.048 -16.042   4.635  1.00  0.00     0.109 A 
HETATM   12  C   UNL     1      42.699 -16.888   3.753  1.00  0.00    -0.019 A 
HETATM   13  O   UNL     1      42.626 -15.988   5.875  1.00  0.00    -0.337 OA
HETATM   14  C   UNL     1      43.904 -17.457   4.398  1.00  0.00     0.079 C 
HETATM   15  C   UNL     1      42.248 -17.050   2.452  1.00  0.00     0.010 A 
HETATM   16  C   UNL     1      43.693 -16.977   5.852  1.00  0.00     0.065 C 
HETATM   17  C   UNL     1      44.953 -16.304   6.401  1.00  0.00     0.046 C 
HETATM   18  C   UNL     1      43.279 -18.136   6.767  1.00  0.00     0.046 C 
HETATM   19  C   UNL     1      41.120 -16.333   2.047  1.00  0.00     0.003 A 
HETATM   20  C   UNL     1      40.469 -15.463   2.937  1.00  0.00     0.040 A 
ENDBRANCH   9  10
ENDBRANCH   8   9
ENDBRANCH   7   8
ENDBRANCH   5   6
ENDBRANCH   2   5
BRANCH   1  21
HETATM   21  C   UNL     1      43.440 -10.285  10.007  1.00  0.00     0.075 C 
HETATM   22  C   UNL     1      42.578  -9.417  10.680  1.00  0.00     0.050 C 
HETATM   23  C   UNL     1      41.637  -8.386  10.167  1.00  0.00     0.071 C 
HETATM   24  N   UNL     1      42.798  -9.662  12.040  1.00  0.00    -0.238 N 
HETATM   25  N   UNL     1      43.417 -10.857  12.216  1.00  0.00    -0.179 NA
HETATM   26  C   UNL     1      43.914 -11.146  11.016  1.00  0.00     0.158 C 
BRANCH  24  27
HETATM   27  C   UNL     1      42.539  -8.843  13.182  1.00  0.00     0.058 A 
HETATM   28  C   UNL     1      43.317  -7.692  13.388  1.00  0.00     0.031 A 
HETATM   29  C   UNL     1      43.059  -6.847  14.470  1.00  0.00     0.002 A 
HETATM   30  C   UNL     1      42.014  -7.132  15.346  1.00  0.00     0.000 A 
HETATM   31  C   UNL     1      41.221  -8.257  15.136  1.00  0.00     0.002 A 
HETATM   32  C   UNL     1      41.475  -9.108  14.055  1.00  0.00     0.031 A 
ENDBRANCH  24  27
ENDBRANCH   1  21
TORSDOF 7
ENDMDL
MODEL 6
REMARK VINA RESULT:      -8.8      2.840     10.518
REMARK  7 active torsions:
REMARK  status: ('A' for Active; 'I' for Inactive)
REMARK    1  A    between atoms: N_3  and  C_4 
REMARK    2  A    between atoms: C_12  and  C_13 
REMARK       I    between atoms: C_13  and  N_14 
REMARK    3  A    between atoms: N_14  and  C_15 
REMARK    4  A    between atoms: C_15  and  C_16 
REMARK    5  A    between atoms: C_17  and  C_18 
REMARK    6  A    between atoms: C_18  and  O_19 
REMARK    7  A    between atoms: O_19  and  C_20 
ROOT
HETATM    1  C   UNL     1      42.109 -13.188   3.783  1.00  0.00     0.255 C 
HETATM    2  N   UNL     1      42.447 -13.004   5.101  1.00  0.00    -0.346 N 
HETATM    3  O   UNL     1      41.567 -12.321   3.106  1.00  0.00    -0.268 OA
HETATM    4  H   UNL     1      42.599 -13.815   5.676  1.00  0.00     0.163 HD
ENDROOT
BRANCH   2   5
HETATM    5  C   UNL     1      42.224 -11.745   5.765  1.00  0.00     0.217 C 
BRANCH   5   6
HETATM    6  C   UNL     1      43.459 -11.238   6.366  1.00  0.00    -0.085 C 
HETATM    7  C   UNL     1      44.485 -10.895   6.890  1.00  0.00    -0.078 C 
BRANCH   7   8
HETATM    8  C   UNL     1      45.753 -10.563   7.557  1.00  0.00     0.269 C 
BRANCH   8   9
HETATM    9  O   UNL     1      45.684  -9.206   8.001  1.00  0.00    -0.337 OA
BRANCH   9  10
HETATM   10  C   UNL     1      44.813  -9.052   9.040  1.00  0.00     0.103 A 
HETATM   11  C   UNL     1      43.655  -8.316   8.873  1.00  0.00     0.109 A 
HETATM   12  C   UNL     1      42.813  -8.047   9.939  1.00  0.00    -0.019 A 
HETATM   13  O   UNL     1      43.231  -7.776   7.687  1.00  0.00    -0.337 OA
HETATM   14  C   UNL     1      41.701  -7.177   9.497  1.00  0.00     0.079 C 
HETATM   15  C   UNL     1      43.101  -8.513  11.212  1.00  0.00     0.010 A 
HETATM   16  C   UNL     1      41.928  -7.192   7.968  1.00  0.00     0.065 C 
HETATM   17  C   UNL     1      41.929  -5.773   7.393  1.00  0.00     0.046 C 
HETATM   18  C   UNL     1      40.870  -8.043   7.256  1.00  0.00     0.046 C 
HETATM   19  C   UNL     1      44.268  -9.258  11.398  1.00  0.00     0.003 A 
HETATM   20  C   UNL     1      45.130  -9.516  10.319  1.00  0.00     0.040 A 
ENDBRANCH   9  10
ENDBRANCH   8   9
ENDBRANCH   7   8
ENDBRANCH   5   6
ENDBRANCH   2   5
BRANCH   1  21
HETATM   21  C   UNL     1      42.446 -14.483   3.211  1.00  0.00     0.075 C 
HETATM   22  C   UNL     1      42.021 -15.772   3.536  1.00  0.00     0.050 C 
HETATM   23  C   UNL     1      40.933 -16.243   4.433  1.00  0.00     0.071 C 
HETATM   24  N   UNL     1      42.895 -16.629   2.857  1.00  0.00    -0.238 N 
HETATM   25  N   UNL     1      43.539 -15.965   1.863  1.00  0.00    -0.179 NA
HETATM   26  C   UNL     1      43.375 -14.681   2.171  1.00  0.00     0.158 C 
BRANCH  24  27
HETATM   27  C   UNL     1      43.228 -17.997   3.102  1.00  0.00     0.058 A 
HETATM   28  C   UNL     1      42.986 -18.949   2.099  1.00  0.00     0.031 A 
HETATM   29  C   UNL     1      43.343 -20.286   2.290  1.00  0.00     0.002 A 
HETATM   30  C   UNL     1      43.958 -20.683   3.476  1.00  0.00     0.000 A 
HETATM   31  C   UNL     1      44.225 -19.741   4.467  1.00  0.00     0.002 A 
HETATM   32  C   UNL     1      43.870 -18.401   4.281  1.00  0.00     0.031 A 
ENDBRANCH  24  27
ENDBRANCH   1  21
TORSDOF 7
ENDMDL
MODEL 7
REMARK VINA RESULT:      -8.6      2.003      3.828
REMARK  7 active torsions:
REMARK  status: ('A' for Active; 'I' for Inactive)
REMARK    1  A    between atoms: N_3  and  C_4 
REMARK    2  A    between atoms: C_12  and  C_13 
REMARK       I    between atoms: C_13  and  N_14 
REMARK    3  A    between atoms: N_14  and  C_15 
REMARK    4  A    between atoms: C_15  and  C_16 
REMARK    5  A    between atoms: C_17  and  C_18 
REMARK    6  A    between atoms: C_18  and  O_19 
REMARK    7  A    between atoms: O_19  and  C_20 
ROOT
HETATM    1  C   UNL     1      44.989  -9.883   8.785  1.00  0.00     0.255 C 
HETATM    2  N   UNL     1      45.029 -11.042   8.050  1.00  0.00    -0.346 N 
HETATM    3  O   UNL     1      45.562  -8.855   8.442  1.00  0.00    -0.268 OA
HETATM    4  H   UNL     1      44.812 -11.910   8.509  1.00  0.00     0.163 HD
ENDROOT
BRANCH   2   5
HETATM    5  C   UNL     1      45.720 -11.107   6.787  1.00  0.00     0.217 C 
BRANCH   5   6
HETATM    6  C   UNL     1      44.786 -11.346   5.685  1.00  0.00    -0.085 C 
HETATM    7  C   UNL     1      44.028 -11.466   4.759  1.00  0.00    -0.078 C 
BRANCH   7   8
HETATM    8  C   UNL     1      43.122 -11.526   3.603  1.00  0.00     0.269 C 
BRANCH   8   9
HETATM    9  O   UNL     1      42.772 -12.894   3.378  1.00  0.00    -0.337 OA
BRANCH   9  10
HETATM   10  C   UNL     1      42.022 -13.404   4.397  1.00  0.00     0.103 A 
HETATM   11  C   UNL     1      42.349 -14.625   4.957  1.00  0.00     0.109 A 
HETATM   12  C   UNL     1      41.540 -15.219   5.911  1.00  0.00    -0.019 A 
HETATM   13  O   UNL     1      43.457 -15.365   4.636  1.00  0.00    -0.337 OA
HETATM   14  C   UNL     1      42.081 -16.548   6.274  1.00  0.00     0.079 C 
HETATM   15  C   UNL     1      40.375 -14.606   6.342  1.00  0.00     0.010 A 
HETATM   16  C   UNL     1      43.443 -16.502   5.544  1.00  0.00     0.065 C 
HETATM   17  C   UNL     1      43.663 -17.762   4.703  1.00  0.00     0.046 C 
HETATM   18  C   UNL     1      44.600 -16.326   6.533  1.00  0.00     0.046 C 
HETATM   19  C   UNL     1      40.029 -13.372   5.785  1.00  0.00     0.003 A 
HETATM   20  C   UNL     1      40.842 -12.778   4.805  1.00  0.00     0.040 A 
ENDBRANCH   9  10
ENDBRANCH   8   9
ENDBRANCH   7   8
ENDBRANCH   5   6
ENDBRANCH   2   5
BRANCH   1  21
HETATM   21  C   UNL     1      44.204  -9.929  10.009  1.00  0.00     0.075 C 
HETATM   22  C   UNL     1      43.354  -8.990  10.595  1.00  0.00     0.050 C 
HETATM   23  C   UNL     1      42.805  -7.712  10.070  1.00  0.00     0.071 C 
HETATM   24  N   UNL     1      43.119  -9.463  11.891  1.00  0.00    -0.238 N 
HETATM   25  N   UNL     1      43.434 -10.781  11.982  1.00  0.00    -0.179 NA
HETATM   26  C   UNL     1      44.200 -11.007  10.917  1.00  0.00     0.158 C 
BRANCH  24  27
HETATM   27  C   UNL     1      42.690  -8.773  13.066  1.00  0.00     0.058 A 
HETATM   28  C   UNL     1      43.384  -7.621  13.473  1.00  0.00     0.031 A 
HETATM   29  C   UNL     1      42.962  -6.899  14.592  1.00  0.00     0.002 A 
HETATM   30  C   UNL     1      41.836  -7.307  15.303  1.00  0.00     0.000 A 
HETATM   31  C   UNL     1      41.126  -8.432  14.892  1.00  0.00     0.002 A 
HETATM   32  C   UNL     1      41.545  -9.161  13.774  1.00  0.00     0.031 A 
ENDBRANCH  24  27
ENDBRANCH   1  21
TORSDOF 7
ENDMDL
MODEL 8
REMARK VINA RESULT:      -8.6      2.555      9.802
REMARK  7 active torsions:
REMARK  status: ('A' for Active; 'I' for Inactive)
REMARK    1  A    between atoms: N_3  and  C_4 
REMARK    2  A    between atoms: C_12  and  C_13 
REMARK       I    between atoms: C_13  and  N_14 
REMARK    3  A    between atoms: N_14  and  C_15 
REMARK    4  A    between atoms: C_15  and  C_16 
REMARK    5  A    between atoms: C_17  and  C_18 
REMARK    6  A    between atoms: C_18  and  O_19 
REMARK    7  A    between atoms: O_19  and  C_20 
ROOT
HETATM    1  C   UNL     1      40.576 -13.272   5.969  1.00  0.00     0.255 C 
HETATM    2  N   UNL     1      40.793 -11.998   5.505  1.00  0.00    -0.346 N 
HETATM    3  O   UNL     1      39.510 -13.633   6.453  1.00  0.00    -0.268 OA
HETATM    4  H   UNL     1      41.741 -11.677   5.408  1.00  0.00     0.163 HD
ENDROOT
BRANCH   2   5
HETATM    5  C   UNL     1      39.748 -11.006   5.519  1.00  0.00     0.217 C 
BRANCH   5   6
HETATM    6  C   UNL     1      39.496 -10.522   6.878  1.00  0.00    -0.085 C 
HETATM    7  C   UNL     1      39.331 -10.188   8.021  1.00  0.00    -0.078 C 
BRANCH   7   8
HETATM    8  C   UNL     1      39.183  -9.849   9.444  1.00  0.00     0.269 C 
BRANCH   8   9
HETATM    9  O   UNL     1      40.087  -8.785   9.748  1.00  0.00    -0.337 OA
BRANCH   9  10
HETATM   10  C   UNL     1      41.027  -9.158  10.665  1.00  0.00     0.103 A 
HETATM   11  C   UNL     1      42.304  -9.491  10.254  1.00  0.00     0.109 A 
HETATM   12  C   UNL     1      43.242  -9.983  11.148  1.00  0.00    -0.019 A 
HETATM   13  O   UNL     1      42.767  -9.394   8.968  1.00  0.00    -0.337 OA
HETATM   14  C   UNL     1      44.487 -10.334  10.429  1.00  0.00     0.079 C 
HETATM   15  C   UNL     1      42.932 -10.152  12.488  1.00  0.00     0.010 A 
HETATM   16  C   UNL     1      44.178  -9.744   9.034  1.00  0.00     0.065 C 
HETATM   17  C   UNL     1      44.447 -10.768   7.928  1.00  0.00     0.046 C 
HETATM   18  C   UNL     1      44.990  -8.470   8.774  1.00  0.00     0.046 C 
HETATM   19  C   UNL     1      41.645  -9.820  12.918  1.00  0.00     0.003 A 
HETATM   20  C   UNL     1      40.690  -9.337  12.009  1.00  0.00     0.040 A 
ENDBRANCH   9  10
ENDBRANCH   8   9
ENDBRANCH   7   8
ENDBRANCH   5   6
ENDBRANCH   2   5
BRANCH   1  21
HETATM   21  C   UNL     1      41.691 -14.198   5.839  1.00  0.00     0.075 C 
HETATM   22  C   UNL     1      41.865 -15.325   5.035  1.00  0.00     0.050 C 
HETATM   23  C   UNL     1      41.061 -15.843   3.897  1.00  0.00     0.071 C 
HETATM   24  N   UNL     1      42.993 -15.974   5.549  1.00  0.00    -0.238 N 
HETATM   25  N   UNL     1      43.718 -15.128   6.325  1.00  0.00    -0.179 NA
HETATM   26  C   UNL     1      42.875 -14.138   6.603  1.00  0.00     0.158 C 
BRANCH  24  27
HETATM   27  C   UNL     1      43.414 -17.334   5.431  1.00  0.00     0.058 A 
HETATM   28  C   UNL     1      43.193 -18.213   6.504  1.00  0.00     0.031 A 
HETATM   29  C   UNL     1      43.552 -19.560   6.402  1.00  0.00     0.002 A 
HETATM   30  C   UNL     1      44.117 -20.045   5.225  1.00  0.00     0.000 A 
HETATM   31  C   UNL     1      44.315 -19.187   4.145  1.00  0.00     0.002 A 
HETATM   32  C   UNL     1      43.960 -17.838   4.242  1.00  0.00     0.031 A 
ENDBRANCH  24  27
ENDBRANCH   1  21
TORSDOF 7
ENDMDL
MODEL 9
REMARK VINA RESULT:      -8.5      5.361      9.017
REMARK  7 active torsions:
REMARK  status: ('A' for Active; 'I' for Inactive)
REMARK    1  A    between atoms: N_3  and  C_4 
REMARK    2  A    between atoms: C_12  and  C_13 
REMARK       I    between atoms: C_13  and  N_14 
REMARK    3  A    between atoms: N_14  and  C_15 
REMARK    4  A    between atoms: C_15  and  C_16 
REMARK    5  A    between atoms: C_17  and  C_18 
REMARK    6  A    between atoms: C_18  and  O_19 
REMARK    7  A    between atoms: O_19  and  C_20 
ROOT
HETATM    1  C   UNL     1      40.035 -12.746   5.707  1.00  0.00     0.255 C 
HETATM    2  N   UNL     1      40.486 -11.796   4.823  1.00  0.00    -0.346 N 
HETATM    3  O   UNL     1      39.078 -12.563   6.451  1.00  0.00    -0.268 OA
HETATM    4  H   UNL     1      41.425 -11.875   4.472  1.00  0.00     0.163 HD
ENDROOT
BRANCH   2   5
HETATM    5  C   UNL     1      39.822 -10.526   4.682  1.00  0.00     0.217 C 
BRANCH   5   6
HETATM    6  C   UNL     1      38.992 -10.494   3.476  1.00  0.00    -0.085 C 
HETATM    7  C   UNL     1      38.343 -10.397   2.469  1.00  0.00    -0.078 C 
BRANCH   7   8
HETATM    8  C   UNL     1      37.592 -10.199   1.220  1.00  0.00     0.269 C 
BRANCH   8   9
HETATM    9  O   UNL     1      38.512 -10.275   0.128  1.00  0.00    -0.337 OA
BRANCH   9  10
HETATM   10  C   UNL     1      38.372 -11.434  -0.578  1.00  0.00     0.103 A 
HETATM   11  C   UNL     1      39.096 -12.557  -0.222  1.00  0.00     0.109 A 
HETATM   12  C   UNL     1      39.061 -13.709  -0.989  1.00  0.00    -0.019 A 
HETATM   13  O   UNL     1      39.911 -12.650   0.876  1.00  0.00    -0.337 OA
HETATM   14  C   UNL     1      39.987 -14.718  -0.427  1.00  0.00     0.079 C 
HETATM   15  C   UNL     1      38.291 -13.779  -2.139  1.00  0.00     0.010 A 
HETATM   16  C   UNL     1      40.370 -14.031   0.904  1.00  0.00     0.065 C 
HETATM   17  C   UNL     1      41.888 -14.005   1.097  1.00  0.00     0.046 C 
HETATM   18  C   UNL     1      39.703 -14.722   2.100  1.00  0.00     0.046 C 
HETATM   19  C   UNL     1      37.554 -12.652  -2.514  1.00  0.00     0.003 A 
HETATM   20  C   UNL     1      37.604 -11.478  -1.744  1.00  0.00     0.040 A 
ENDBRANCH   9  10
ENDBRANCH   8   9
ENDBRANCH   7   8
ENDBRANCH   5   6
ENDBRANCH   2   5
BRANCH   1  21
HETATM   21  C   UNL     1      40.752 -14.011   5.707  1.00  0.00     0.075 C 
HETATM   22  C   UNL     1      41.951 -14.392   5.102  1.00  0.00     0.050 C 
HETATM   23  C   UNL     1      42.999 -13.584   4.425  1.00  0.00     0.071 C 
HETATM   24  N   UNL     1      41.987 -15.787   5.200  1.00  0.00    -0.238 N 
HETATM   25  N   UNL     1      41.116 -16.221   6.147  1.00  0.00    -0.179 NA
HETATM   26  C   UNL     1      40.299 -15.189   6.336  1.00  0.00     0.158 C 
BRANCH  24  27
HETATM   27  C   UNL     1      42.715 -16.751   4.437  1.00  0.00     0.058 A 
HETATM   28  C   UNL     1      43.735 -17.487   5.062  1.00  0.00     0.031 A 
HETATM   29  C   UNL     1      44.435 -18.469   4.356  1.00  0.00     0.002 A 
HETATM   30  C   UNL     1      44.114 -18.737   3.028  1.00  0.00     0.000 A 
HETATM   31  C   UNL     1      43.087 -18.030   2.406  1.00  0.00     0.002 A 
HETATM   32  C   UNL     1      42.383 -17.045   3.108  1.00  0.00     0.031 A 
ENDBRANCH  24  27
ENDBRANCH   1  21
TORSDOF 7
ENDMDL
MODEL 10
REMARK VINA RESULT:      -8.3      1.717      2.772
REMARK  7 active torsions:
REMARK  status: ('A' for Active; 'I' for Inactive)
REMARK    1  A    between atoms: N_3  and  C_4 
REMARK    2  A    between atoms: C_12  and  C_13 
REMARK       I    between atoms: C_13  and  N_14 
REMARK    3  A    between atoms: N_14  and  C_15 
REMARK    4  A    between atoms: C_15  and  C_16 
REMARK    5  A    between atoms: C_17  and  C_18 
REMARK    6  A    between atoms: C_18  and  O_19 
REMARK    7  A    between atoms: O_19  and  C_20 
ROOT
HETATM    1  C   UNL     1      43.549 -10.204   9.081  1.00  0.00     0.255 C 
HETATM    2  N   UNL     1      43.586 -11.478   8.568  1.00  0.00    -0.346 N 
HETATM    3  O   UNL     1      43.813  -9.210   8.416  1.00  0.00    -0.268 OA
HETATM    4  H   UNL     1      43.661 -12.251   9.207  1.00  0.00     0.163 HD
ENDROOT
BRANCH   2   5
HETATM    5  C   UNL     1      43.898 -11.720   7.183  1.00  0.00     0.217 C 
BRANCH   5   6
HETATM    6  C   UNL     1      43.917 -13.155   6.889  1.00  0.00    -0.085 C 
HETATM    7  C   UNL     1      43.888 -14.317   6.584  1.00  0.00    -0.078 C 
BRANCH   7   8
HETATM    8  C   UNL     1      43.806 -15.715   6.134  1.00  0.00     0.269 C 
BRANCH   8   9
HETATM    9  O   UNL     1      42.578 -15.886   5.424  1.00  0.00    -0.337 OA
BRANCH   9  10
HETATM   10  C   UNL     1      42.762 -15.870   4.072  1.00  0.00     0.103 A 
HETATM   11  C   UNL     1      42.357 -14.778   3.327  1.00  0.00     0.109 A 
HETATM   12  C   UNL     1      42.427 -14.783   1.944  1.00  0.00    -0.019 A 
HETATM   13  O   UNL     1      41.847 -13.618   3.849  1.00  0.00    -0.337 OA
HETATM   14  C   UNL     1      41.854 -13.529   1.406  1.00  0.00     0.079 C 
HETATM   15  C   UNL     1      42.911 -15.885   1.258  1.00  0.00     0.010 A 
HETATM   16  C   UNL     1      41.667 -12.726   2.713  1.00  0.00     0.065 C 
HETATM   17  C   UNL     1      40.255 -12.142   2.807  1.00  0.00     0.046 C 
HETATM   18  C   UNL     1      42.705 -11.603   2.830  1.00  0.00     0.046 C 
HETATM   19  C   UNL     1      43.324 -16.998   1.995  1.00  0.00     0.003 A 
HETATM   20  C   UNL     1      43.238 -16.998   3.397  1.00  0.00     0.040 A 
ENDBRANCH   9  10
ENDBRANCH   8   9
ENDBRANCH   7   8
ENDBRANCH   5   6
ENDBRANCH   2   5
BRANCH   1  21
HETATM   21  C   UNL     1      43.156 -10.089  10.477  1.00  0.00     0.075 C 
HETATM   22  C   UNL     1      42.346  -9.161  11.133  1.00  0.00     0.050 C 
HETATM   23  C   UNL     1      41.450  -8.101  10.600  1.00  0.00     0.071 C 
HETATM   24  N   UNL     1      42.571  -9.375  12.498  1.00  0.00    -0.238 N 
HETATM   25  N   UNL     1      43.134 -10.593  12.703  1.00  0.00    -0.179 NA
HETATM   26  C   UNL     1      43.601 -10.941  11.507  1.00  0.00     0.158 C 
BRANCH  24  27
HETATM   27  C   UNL     1      42.367  -8.510  13.617  1.00  0.00     0.058 A 
HETATM   28  C   UNL     1      41.368  -8.828  14.552  1.00  0.00     0.031 A 
HETATM   29  C   UNL     1      41.175  -8.028  15.681  1.00  0.00     0.002 A 
HETATM   30  C   UNL     1      41.984  -6.915  15.896  1.00  0.00     0.000 A 
HETATM   31  C   UNL     1      42.995  -6.607  14.989  1.00  0.00     0.002 A 
HETATM   32  C   UNL     1      43.193  -7.403  13.856  1.00  0.00     0.031 A 
ENDBRANCH  24  27
ENDBRANCH   1  21
TORSDOF 7
ENDMDL
