MODEL 1
REMARK VINA RESULT:      -8.2      0.000      0.000
REMARK  4 active torsions:
REMARK  status: ('A' for Active; 'I' for Inactive)
REMARK    1  A    between atoms: C_6  and  C_7 
REMARK    2  A    between atoms: C_9  and  C_10 
REMARK    3  A    between atoms: C_10  and  C_11 
REMARK    4  A    between atoms: C_15  and  N_16 
ROOT
HETATM    1  C   UNL     1      43.325 -14.069   5.771  1.00  0.00     0.112 A 
HETATM    2  O   UNL     1      44.274 -13.512   6.589  1.00  0.00    -0.308 OA
HETATM    3  C   UNL     1      43.866 -12.260   6.998  1.00  0.00     0.077 A 
HETATM    4  C   UNL     1      42.638 -12.020   6.394  1.00  0.00     0.040 A 
HETATM    5  C   UNL     1      42.294 -13.161   5.632  1.00  0.00     0.043 A 
ENDROOT
BRANCH   3   6
HETATM    6  C   UNL     1      44.697 -11.475   7.848  1.00  0.00     0.059 C 
BRANCH   6   7
HETATM    7  C   UNL     1      44.512 -10.198   8.201  1.00  0.00     0.053 A 
HETATM    8  S   UNL     1      43.133  -9.416   8.868  1.00  0.00    -0.024 SA
HETATM    9  C   UNL     1      43.975  -7.861   8.858  1.00  0.00     0.312 A 
HETATM   10  O   UNL     1      43.422  -6.839   9.231  1.00  0.00    -0.258 OA
HETATM   11  N   UNL     1      45.274  -7.939   8.409  1.00  0.00    -0.191 NA
HETATM   12  C   UNL     1      45.585  -9.158   8.063  1.00  0.00     0.122 A 
BRANCH  12  13
HETATM   13  N   UNL     1      46.855  -9.391   7.612  1.00  0.00    -0.286 NA
HETATM   14  H   UNL     1      46.968 -10.076   6.874  1.00  0.00     0.125 HD
HETATM   15  H   UNL     1      47.512  -9.539   8.374  1.00  0.00     0.125 HD
ENDBRANCH  12  13
ENDBRANCH   6   7
ENDBRANCH   3   6
BRANCH   1  16
HETATM   16  C   UNL     1      43.437 -15.373   5.176  1.00  0.00     0.133 A 
HETATM   17  S   UNL     1      44.185 -16.685   5.987  1.00  0.00    -0.066 SA
HETATM   18  C   UNL     1      43.877 -17.701   4.631  1.00  0.00     0.035 A 
HETATM   19  C   UNL     1      43.216 -16.957   3.651  1.00  0.00     0.075 A 
HETATM   20  C   UNL     1      44.195 -19.056   4.446  1.00  0.00     0.021 A 
HETATM   21  C   UNL     1      42.861 -17.592   2.443  1.00  0.00     0.033 A 
HETATM   22  N   UNL     1      42.971 -15.634   3.973  1.00  0.00    -0.238 NA
HETATM   23  C   UNL     1      43.172 -18.941   2.248  1.00  0.00     0.002 A 
HETATM   24  C   UNL     1      43.831 -19.662   3.239  1.00  0.00     0.002 A 
ENDBRANCH   1  16
TORSDOF 4
ENDMDL
MODEL 2
REMARK VINA RESULT:      -8.2      2.017      2.664
REMARK  4 active torsions:
REMARK  status: ('A' for Active; 'I' for Inactive)
REMARK    1  A    between atoms: C_6  and  C_7 
REMARK    2  A    between atoms: C_9  and  C_10 
REMARK    3  A    between atoms: C_10  and  C_11 
REMARK    4  A    between atoms: C_15  and  N_16 
ROOT
HETATM    1  C   UNL     1      43.157 -14.757   3.541  1.00  0.00     0.112 A 
HETATM    2  O   UNL     1      43.333 -13.814   4.519  1.00  0.00    -0.308 OA
HETATM    3  C   UNL     1      43.055 -12.559   4.016  1.00  0.00     0.077 A 
HETATM    4  C   UNL     1      42.723 -12.727   2.678  1.00  0.00     0.040 A 
HETATM    5  C   UNL     1      42.778 -14.108   2.382  1.00  0.00     0.043 A 
ENDROOT
BRANCH   3   6
HETATM    6  C   UNL     1      43.181 -11.408   4.846  1.00  0.00     0.059 C 
BRANCH   6   7
HETATM    7  C   UNL     1      43.941 -11.282   5.940  1.00  0.00     0.053 A 
HETATM    8  S   UNL     1      43.502 -11.219   7.601  1.00  0.00    -0.024 SA
HETATM    9  C   UNL     1      45.192 -10.998   8.069  1.00  0.00     0.312 A 
HETATM   10  O   UNL     1      45.511 -10.854   9.239  1.00  0.00    -0.258 OA
HETATM   11  N   UNL     1      46.067 -11.019   7.007  1.00  0.00    -0.191 NA
HETATM   12  C   UNL     1      45.437 -11.174   5.875  1.00  0.00     0.122 A 
BRANCH  12  13
HETATM   13  N   UNL     1      46.182 -11.230   4.729  1.00  0.00    -0.286 NA
HETATM   14  H   UNL     1      46.879 -11.962   4.663  1.00  0.00     0.125 HD
HETATM   15  H   UNL     1      46.558 -10.320   4.472  1.00  0.00     0.125 HD
ENDBRANCH  12  13
ENDBRANCH   6   7
ENDBRANCH   3   6
BRANCH   1  16
HETATM   16  C   UNL     1      43.358 -16.168   3.735  1.00  0.00     0.133 A 
HETATM   17  S   UNL     1      43.744 -16.832   5.267  1.00  0.00    -0.066 SA
HETATM   18  C   UNL     1      43.792 -18.408   4.574  1.00  0.00     0.035 A 
HETATM   19  C   UNL     1      43.503 -18.310   3.211  1.00  0.00     0.075 A 
HETATM   20  C   UNL     1      44.063 -19.641   5.188  1.00  0.00     0.021 A 
HETATM   21  C   UNL     1      43.486 -19.488   2.436  1.00  0.00     0.033 A 
HETATM   22  N   UNL     1      43.258 -17.030   2.745  1.00  0.00    -0.238 NA
HETATM   23  C   UNL     1      43.755 -20.721   3.038  1.00  0.00     0.002 A 
HETATM   24  C   UNL     1      44.040 -20.794   4.397  1.00  0.00     0.002 A 
ENDBRANCH   1  16
TORSDOF 4
ENDMDL
MODEL 3
REMARK VINA RESULT:      -8.2      1.806      2.164
REMARK  4 active torsions:
REMARK  status: ('A' for Active; 'I' for Inactive)
REMARK    1  A    between atoms: C_6  and  C_7 
REMARK    2  A    between atoms: C_9  and  C_10 
REMARK    3  A    between atoms: C_10  and  C_11 
REMARK    4  A    between atoms: C_15  and  N_16 
ROOT
HETATM    1  C   UNL     1      43.254 -15.108   4.979  1.00  0.00     0.112 A 
HETATM    2  O   UNL     1      43.517 -14.620   6.232  1.00  0.00    -0.308 OA
HETATM    3  C   UNL     1      43.257 -13.265   6.272  1.00  0.00     0.077 A 
HETATM    4  C   UNL     1      42.846 -12.897   4.998  1.00  0.00     0.040 A 
HETATM    5  C   UNL     1      42.835 -14.057   4.189  1.00  0.00     0.043 A 
ENDROOT
BRANCH   3   6
HETATM    6  C   UNL     1      43.470 -12.527   7.472  1.00  0.00     0.059 C 
BRANCH   6   7
HETATM    7  C   UNL     1      44.359 -11.547   7.669  1.00  0.00     0.053 A 
HETATM    8  S   UNL     1      45.591 -10.937   6.636  1.00  0.00    -0.024 SA
HETATM    9  C   UNL     1      46.113  -9.798   7.884  1.00  0.00     0.312 A 
HETATM   10  O   UNL     1      47.061  -9.051   7.703  1.00  0.00    -0.258 OA
HETATM   11  N   UNL     1      45.349  -9.844   9.028  1.00  0.00    -0.191 NA
HETATM   12  C   UNL     1      44.415 -10.751   8.940  1.00  0.00     0.122 A 
BRANCH  12  13
HETATM   13  N   UNL     1      43.564 -10.900  10.001  1.00  0.00    -0.286 NA
HETATM   14  H   UNL     1      42.806 -10.233  10.087  1.00  0.00     0.125 HD
HETATM   15  H   UNL     1      44.064 -11.026  10.878  1.00  0.00     0.125 HD
ENDBRANCH  12  13
ENDBRANCH   6   7
ENDBRANCH   3   6
BRANCH   1  16
HETATM   16  C   UNL     1      43.415 -16.486   4.600  1.00  0.00     0.133 A 
HETATM   17  S   UNL     1      43.941 -17.682   5.710  1.00  0.00    -0.066 SA
HETATM   18  C   UNL     1      43.842 -18.876   4.472  1.00  0.00     0.035 A 
HETATM   19  C   UNL     1      43.407 -18.268   3.293  1.00  0.00     0.075 A 
HETATM   20  C   UNL     1      44.128 -20.249   4.538  1.00  0.00     0.021 A 
HETATM   21  C   UNL     1      43.252 -19.062   2.138  1.00  0.00     0.033 A 
HETATM   22  N   UNL     1      43.167 -16.908   3.378  1.00  0.00    -0.238 NA
HETATM   23  C   UNL     1      43.534 -20.431   2.192  1.00  0.00     0.002 A 
HETATM   24  C   UNL     1      43.966 -21.015   3.378  1.00  0.00     0.002 A 
ENDBRANCH   1  16
TORSDOF 4
ENDMDL
MODEL 4
REMARK VINA RESULT:      -8.1      3.252      4.065
REMARK  4 active torsions:
REMARK  status: ('A' for Active; 'I' for Inactive)
REMARK    1  A    between atoms: C_6  and  C_7 
REMARK    2  A    between atoms: C_9  and  C_10 
REMARK    3  A    between atoms: C_10  and  C_11 
REMARK    4  A    between atoms: C_15  and  N_16 
ROOT
HETATM    1  C   UNL     1      44.528 -11.825   7.287  1.00  0.00     0.112 A 
HETATM    2  O   UNL     1      44.267 -11.324   8.536  1.00  0.00    -0.308 OA
HETATM    3  C   UNL     1      45.242 -10.413   8.889  1.00  0.00     0.077 A 
HETATM    4  C   UNL     1      46.150 -10.369   7.839  1.00  0.00     0.040 A 
HETATM    5  C   UNL     1      45.695 -11.248   6.829  1.00  0.00     0.043 A 
ENDROOT
BRANCH   3   6
HETATM    6  C   UNL     1      45.194  -9.765  10.157  1.00  0.00     0.059 C 
BRANCH   6   7
HETATM    7  C   UNL     1      44.107  -9.519  10.896  1.00  0.00     0.053 A 
HETATM    8  S   UNL     1      43.187  -8.078  11.079  1.00  0.00    -0.024 SA
HETATM    9  C   UNL     1      42.123  -8.871  12.247  1.00  0.00     0.312 A 
HETATM   10  O   UNL     1      41.212  -8.264  12.787  1.00  0.00    -0.258 OA
HETATM   11  N   UNL     1      42.424 -10.198  12.457  1.00  0.00    -0.191 NA
HETATM   12  C   UNL     1      43.459 -10.567  11.754  1.00  0.00     0.122 A 
BRANCH  12  13
HETATM   13  N   UNL     1      43.866 -11.870  11.848  1.00  0.00    -0.286 NA
HETATM   14  H   UNL     1      43.521 -12.517  11.149  1.00  0.00     0.125 HD
HETATM   15  H   UNL     1      43.763 -12.236  12.792  1.00  0.00     0.125 HD
ENDBRANCH  12  13
ENDBRANCH   6   7
ENDBRANCH   3   6
BRANCH   1  16
HETATM   16  C   UNL     1      43.702 -12.793   6.618  1.00  0.00     0.133 A 
HETATM   17  S   UNL     1      43.195 -12.593   4.993  1.00  0.00    -0.066 SA
HETATM   18  C   UNL     1      42.341 -14.086   5.073  1.00  0.00     0.035 A 
HETATM   19  C   UNL     1      42.509 -14.635   6.346  1.00  0.00     0.075 A 
HETATM   20  C   UNL     1      41.577 -14.727   4.084  1.00  0.00     0.021 A 
HETATM   21  C   UNL     1      41.892 -15.867   6.640  1.00  0.00     0.033 A 
HETATM   22  N   UNL     1      43.286 -13.889   7.216  1.00  0.00    -0.238 NA
HETATM   23  C   UNL     1      41.129 -16.515   5.662  1.00  0.00     0.002 A 
HETATM   24  C   UNL     1      40.976 -15.949   4.401  1.00  0.00     0.002 A 
ENDBRANCH   1  16
TORSDOF 4
ENDMDL
MODEL 5
REMARK VINA RESULT:      -8.1      5.865      8.114
REMARK  4 active torsions:
REMARK  status: ('A' for Active; 'I' for Inactive)
REMARK    1  A    between atoms: C_6  and  C_7 
REMARK    2  A    between atoms: C_9  and  C_10 
REMARK    3  A    between atoms: C_10  and  C_11 
REMARK    4  A    between atoms: C_15  and  N_16 
ROOT
HETATM    1  C   UNL     1      41.936 -14.573   2.291  1.00  0.00     0.112 A 
HETATM    2  O   UNL     1      41.800 -14.248   0.966  1.00  0.00    -0.308 OA
HETATM    3  C   UNL     1      41.277 -12.977   0.845  1.00  0.00     0.077 A 
HETATM    4  C   UNL     1      41.056 -12.509   2.134  1.00  0.00     0.040 A 
HETATM    5  C   UNL     1      41.480 -13.507   3.042  1.00  0.00     0.043 A 
ENDROOT
BRANCH   3   6
HETATM    6  C   UNL     1      41.031 -12.422  -0.443  1.00  0.00     0.059 C 
BRANCH   6   7
HETATM    7  C   UNL     1      40.022 -12.718  -1.270  1.00  0.00     0.053 A 
HETATM    8  S   UNL     1      38.323 -12.568  -1.051  1.00  0.00    -0.024 SA
HETATM    9  C   UNL     1      38.027 -13.261  -2.650  1.00  0.00     0.312 A 
HETATM   10  O   UNL     1      36.893 -13.439  -3.064  1.00  0.00    -0.258 OA
HETATM   11  N   UNL     1      39.178 -13.553  -3.348  1.00  0.00    -0.191 NA
HETATM   12  C   UNL     1      40.242 -13.271  -2.648  1.00  0.00     0.122 A 
BRANCH  12  13
HETATM   13  N   UNL     1      41.464 -13.494  -3.221  1.00  0.00    -0.286 NA
HETATM   14  H   UNL     1      41.505 -13.521  -4.233  1.00  0.00     0.125 HD
HETATM   15  H   UNL     1      41.948 -14.281  -2.797  1.00  0.00     0.125 HD
ENDBRANCH  12  13
ENDBRANCH   6   7
ENDBRANCH   3   6
BRANCH   1  16
HETATM   16  C   UNL     1      42.458 -15.826   2.766  1.00  0.00     0.133 A 
HETATM   17  S   UNL     1      43.101 -16.006   4.344  1.00  0.00    -0.066 SA
HETATM   18  C   UNL     1      43.440 -17.663   4.018  1.00  0.00     0.035 A 
HETATM   19  C   UNL     1      43.030 -17.960   2.717  1.00  0.00     0.075 A 
HETATM   20  C   UNL     1      44.025 -18.631   4.851  1.00  0.00     0.021 A 
HETATM   21  C   UNL     1      43.212 -19.271   2.231  1.00  0.00     0.033 A 
HETATM   22  N   UNL     1      42.472 -16.906   2.014  1.00  0.00    -0.238 NA
HETATM   23  C   UNL     1      43.793 -20.243   3.052  1.00  0.00     0.002 A 
HETATM   24  C   UNL     1      44.194 -19.924   4.345  1.00  0.00     0.002 A 
ENDBRANCH   1  16
TORSDOF 4
ENDMDL
MODEL 6
REMARK VINA RESULT:      -8.1      3.877      4.272
REMARK  4 active torsions:
REMARK  status: ('A' for Active; 'I' for Inactive)
REMARK    1  A    between atoms: C_6  and  C_7 
REMARK    2  A    between atoms: C_9  and  C_10 
REMARK    3  A    between atoms: C_10  and  C_11 
REMARK    4  A    between atoms: C_15  and  N_16 
ROOT
HETATM    1  C   UNL     1      43.063 -14.905   3.597  1.00  0.00     0.112 A 
HETATM    2  O   UNL     1      42.665 -14.099   4.631  1.00  0.00    -0.308 OA
HETATM    3  C   UNL     1      42.516 -12.802   4.185  1.00  0.00     0.077 A 
HETATM    4  C   UNL     1      42.860 -12.798   2.839  1.00  0.00     0.040 A 
HETATM    5  C   UNL     1      43.193 -14.121   2.468  1.00  0.00     0.043 A 
ENDROOT
BRANCH   3   6
HETATM    6  C   UNL     1      42.120 -11.773   5.087  1.00  0.00     0.059 C 
BRANCH   6   7
HETATM    7  C   UNL     1      40.874 -11.356   5.337  1.00  0.00     0.053 A 
HETATM    8  S   UNL     1      40.095  -9.875   4.942  1.00  0.00    -0.024 SA
HETATM    9  C   UNL     1      38.620 -10.399   5.763  1.00  0.00     0.312 A 
HETATM   10  O   UNL     1      37.642  -9.671   5.836  1.00  0.00    -0.258 OA
HETATM   11  N   UNL     1      38.697 -11.673   6.280  1.00  0.00    -0.191 NA
HETATM   12  C   UNL     1      39.870 -12.202   6.064  1.00  0.00     0.122 A 
BRANCH  12  13
HETATM   13  N   UNL     1      40.089 -13.477   6.509  1.00  0.00    -0.286 NA
HETATM   14  H   UNL     1      40.918 -13.951   6.173  1.00  0.00     0.125 HD
HETATM   15  H   UNL     1      39.258 -14.059   6.430  1.00  0.00     0.125 HD
ENDBRANCH  12  13
ENDBRANCH   6   7
ENDBRANCH   3   6
BRANCH   1  16
HETATM   16  C   UNL     1      43.303 -16.318   3.720  1.00  0.00     0.133 A 
HETATM   17  S   UNL     1      43.791 -17.034   5.199  1.00  0.00    -0.066 SA
HETATM   18  C   UNL     1      43.829 -18.579   4.439  1.00  0.00     0.035 A 
HETATM   19  C   UNL     1      43.459 -18.434   3.101  1.00  0.00     0.075 A 
HETATM   20  C   UNL     1      44.160 -19.830   4.985  1.00  0.00     0.021 A 
HETATM   21  C   UNL     1      43.419 -19.579   2.280  1.00  0.00     0.033 A 
HETATM   22  N   UNL     1      43.162 -17.141   2.703  1.00  0.00    -0.238 NA
HETATM   23  C   UNL     1      43.747 -20.829   2.814  1.00  0.00     0.002 A 
HETATM   24  C   UNL     1      44.113 -20.951   4.150  1.00  0.00     0.002 A 
ENDBRANCH   1  16
TORSDOF 4
ENDMDL
MODEL 7
REMARK VINA RESULT:      -7.9      6.964      9.590
REMARK  4 active torsions:
REMARK  status: ('A' for Active; 'I' for Inactive)
REMARK    1  A    between atoms: C_6  and  C_7 
REMARK    2  A    between atoms: C_9  and  C_10 
REMARK    3  A    between atoms: C_10  and  C_11 
REMARK    4  A    between atoms: C_15  and  N_16 
ROOT
HETATM    1  C   UNL     1      40.913 -15.300   1.532  1.00  0.00     0.112 A 
HETATM    2  O   UNL     1      42.008 -16.074   1.251  1.00  0.00    -0.308 OA
HETATM    3  C   UNL     1      42.316 -16.866   2.338  1.00  0.00     0.077 A 
HETATM    4  C   UNL     1      41.400 -16.553   3.335  1.00  0.00     0.040 A 
HETATM    5  C   UNL     1      40.513 -15.577   2.824  1.00  0.00     0.043 A 
ENDROOT
BRANCH   3   6
HETATM    6  C   UNL     1      43.431 -17.751   2.290  1.00  0.00     0.059 C 
BRANCH   6   7
HETATM    7  C   UNL     1      43.663 -18.799   3.090  1.00  0.00     0.053 A 
HETATM    8  S   UNL     1      44.076 -18.857   4.758  1.00  0.00    -0.024 SA
HETATM    9  C   UNL     1      44.180 -20.620   4.700  1.00  0.00     0.312 A 
HETATM   10  O   UNL     1      44.496 -21.269   5.685  1.00  0.00    -0.258 OA
HETATM   11  N   UNL     1      43.867 -21.153   3.470  1.00  0.00    -0.191 NA
HETATM   12  C   UNL     1      43.584 -20.217   2.605  1.00  0.00     0.122 A 
BRANCH  12  13
HETATM   13  N   UNL     1      43.237 -20.599   1.339  1.00  0.00    -0.286 NA
HETATM   14  H   UNL     1      43.272 -21.589   1.125  1.00  0.00     0.125 HD
HETATM   15  H   UNL     1      43.700 -20.037   0.628  1.00  0.00     0.125 HD
ENDBRANCH  12  13
ENDBRANCH   6   7
ENDBRANCH   3   6
BRANCH   1  16
HETATM   16  C   UNL     1      40.326 -14.366   0.609  1.00  0.00     0.133 A 
HETATM   17  S   UNL     1      40.492 -12.671   0.799  1.00  0.00    -0.066 SA
HETATM   18  C   UNL     1      39.552 -12.419  -0.623  1.00  0.00     0.035 A 
HETATM   19  C   UNL     1      39.181 -13.660  -1.144  1.00  0.00     0.075 A 
HETATM   20  C   UNL     1      39.171 -11.213  -1.234  1.00  0.00     0.021 A 
HETATM   21  C   UNL     1      38.401 -13.696  -2.318  1.00  0.00     0.033 A 
HETATM   22  N   UNL     1      39.628 -14.761  -0.434  1.00  0.00    -0.238 NA
HETATM   23  C   UNL     1      38.015 -12.501  -2.935  1.00  0.00     0.002 A 
HETATM   24  C   UNL     1      38.397 -11.276  -2.397  1.00  0.00     0.002 A 
ENDBRANCH   1  16
TORSDOF 4
ENDMDL
MODEL 8
REMARK VINA RESULT:      -7.8      5.380      7.286
REMARK  4 active torsions:
REMARK  status: ('A' for Active; 'I' for Inactive)
REMARK    1  A    between atoms: C_6  and  C_7 
REMARK    2  A    between atoms: C_9  and  C_10 
REMARK    3  A    between atoms: C_10  and  C_11 
REMARK    4  A    between atoms: C_15  and  N_16 
ROOT
HETATM    1  C   UNL     1      42.737 -14.972   3.272  1.00  0.00     0.112 A 
HETATM    2  O   UNL     1      41.776 -14.596   2.370  1.00  0.00    -0.308 OA
HETATM    3  C   UNL     1      41.711 -13.219   2.299  1.00  0.00     0.077 A 
HETATM    4  C   UNL     1      42.642 -12.726   3.205  1.00  0.00     0.040 A 
HETATM    5  C   UNL     1      43.293 -13.828   3.808  1.00  0.00     0.043 A 
ENDROOT
BRANCH   3   6
HETATM    6  C   UNL     1      40.772 -12.587   1.435  1.00  0.00     0.059 C 
BRANCH   6   7
HETATM    7  C   UNL     1      40.616 -12.796   0.123  1.00  0.00     0.053 A 
HETATM    8  S   UNL     1      40.993 -11.786  -1.217  1.00  0.00    -0.024 SA
HETATM    9  C   UNL     1      40.349 -12.989  -2.341  1.00  0.00     0.312 A 
HETATM   10  O   UNL     1      40.326 -12.784  -3.544  1.00  0.00    -0.258 OA
HETATM   11  N   UNL     1      39.906 -14.139  -1.726  1.00  0.00    -0.191 NA
HETATM   12  C   UNL     1      40.041 -14.067  -0.431  1.00  0.00     0.122 A 
BRANCH  12  13
HETATM   13  N   UNL     1      39.656 -15.148   0.315  1.00  0.00    -0.286 NA
HETATM   14  H   UNL     1      38.976 -15.777  -0.095  1.00  0.00     0.125 HD
HETATM   15  H   UNL     1      39.413 -14.889   1.268  1.00  0.00     0.125 HD
ENDBRANCH  12  13
ENDBRANCH   6   7
ENDBRANCH   3   6
BRANCH   1  16
HETATM   16  C   UNL     1      43.064 -16.338   3.580  1.00  0.00     0.133 A 
HETATM   17  S   UNL     1      43.471 -16.843   5.166  1.00  0.00    -0.066 SA
HETATM   18  C   UNL     1      43.683 -18.456   4.600  1.00  0.00     0.035 A 
HETATM   19  C   UNL     1      43.421 -18.491   3.229  1.00  0.00     0.075 A 
HETATM   20  C   UNL     1      44.053 -19.607   5.314  1.00  0.00     0.021 A 
HETATM   21  C   UNL     1      43.533 -19.720   2.549  1.00  0.00     0.033 A 
HETATM   22  N   UNL     1      43.069 -17.279   2.660  1.00  0.00    -0.238 NA
HETATM   23  C   UNL     1      43.901 -20.873   3.250  1.00  0.00     0.002 A 
HETATM   24  C   UNL     1      44.157 -20.814   4.616  1.00  0.00     0.002 A 
ENDBRANCH   1  16
TORSDOF 4
ENDMDL
MODEL 9
REMARK VINA RESULT:      -7.5      4.672      5.915
REMARK  4 active torsions:
REMARK  status: ('A' for Active; 'I' for Inactive)
REMARK    1  A    between atoms: C_6  and  C_7 
REMARK    2  A    between atoms: C_9  and  C_10 
REMARK    3  A    between atoms: C_10  and  C_11 
REMARK    4  A    between atoms: C_15  and  N_16 
ROOT
HETATM    1  C   UNL     1      43.026 -14.859   3.937  1.00  0.00     0.112 A 
HETATM    2  O   UNL     1      42.813 -14.005   2.886  1.00  0.00    -0.308 OA
HETATM    3  C   UNL     1      42.649 -12.717   3.354  1.00  0.00     0.077 A 
HETATM    4  C   UNL     1      42.735 -12.778   4.738  1.00  0.00     0.040 A 
HETATM    5  C   UNL     1      42.982 -14.122   5.104  1.00  0.00     0.043 A 
ENDROOT
BRANCH   3   6
HETATM    6  C   UNL     1      42.400 -11.649   2.445  1.00  0.00     0.059 C 
BRANCH   6   7
HETATM    7  C   UNL     1      41.358 -11.523   1.614  1.00  0.00     0.053 A 
HETATM    8  S   UNL     1      39.925 -12.462   1.476  1.00  0.00    -0.024 SA
HETATM    9  C   UNL     1      39.373 -11.474   0.118  1.00  0.00     0.312 A 
HETATM   10  O   UNL     1      38.325 -11.717  -0.458  1.00  0.00    -0.258 OA
HETATM   11  N   UNL     1      40.224 -10.436  -0.191  1.00  0.00    -0.191 NA
HETATM   12  C   UNL     1      41.273 -10.434   0.584  1.00  0.00     0.122 A 
BRANCH  12  13
HETATM   13  N   UNL     1      42.202  -9.446   0.404  1.00  0.00    -0.286 NA
HETATM   14  H   UNL     1      42.251  -9.016  -0.512  1.00  0.00     0.125 HD
HETATM   15  H   UNL     1      43.120  -9.715   0.750  1.00  0.00     0.125 HD
ENDBRANCH  12  13
ENDBRANCH   6   7
ENDBRANCH   3   6
BRANCH   1  16
HETATM   16  C   UNL     1      43.240 -16.274   3.796  1.00  0.00     0.133 A 
HETATM   17  S   UNL     1      43.099 -17.072   2.286  1.00  0.00    -0.066 SA
HETATM   18  C   UNL     1      43.486 -18.571   3.041  1.00  0.00     0.035 A 
HETATM   19  C   UNL     1      43.699 -18.349   4.403  1.00  0.00     0.075 A 
HETATM   20  C   UNL     1      43.593 -19.850   2.472  1.00  0.00     0.021 A 
HETATM   21  C   UNL     1      44.031 -19.445   5.224  1.00  0.00     0.033 A 
HETATM   22  N   UNL     1      43.556 -17.037   4.820  1.00  0.00    -0.238 NA
HETATM   23  C   UNL     1      44.140 -20.724   4.668  1.00  0.00     0.002 A 
HETATM   24  C   UNL     1      43.924 -20.921   3.309  1.00  0.00     0.002 A 
ENDBRANCH   1  16
TORSDOF 4
ENDMDL
MODEL 10
REMARK VINA RESULT:      -7.5      3.672      4.187
REMARK  4 active torsions:
REMARK  status: ('A' for Active; 'I' for Inactive)
REMARK    1  A    between atoms: C_6  and  C_7 
REMARK    2  A    between atoms: C_9  and  C_10 
REMARK    3  A    between atoms: C_10  and  C_11 
REMARK    4  A    between atoms: C_15  and  N_16 
ROOT
HETATM    1  C   UNL     1      43.406 -15.115   5.430  1.00  0.00     0.112 A 
HETATM    2  O   UNL     1      42.904 -13.958   4.892  1.00  0.00    -0.308 OA
HETATM    3  C   UNL     1      43.008 -12.931   5.808  1.00  0.00     0.077 A 
HETATM    4  C   UNL     1      43.566 -13.473   6.958  1.00  0.00     0.040 A 
HETATM    5  C   UNL     1      43.826 -14.842   6.717  1.00  0.00     0.043 A 
ENDROOT
BRANCH   3   6
HETATM    6  C   UNL     1      42.536 -11.627   5.481  1.00  0.00     0.059 C 
BRANCH   6   7
HETATM    7  C   UNL     1      41.262 -11.223   5.418  1.00  0.00     0.053 A 
HETATM    8  S   UNL     1      40.352 -10.236   6.493  1.00  0.00    -0.024 SA
HETATM    9  C   UNL     1      38.908 -10.427   5.491  1.00  0.00     0.312 A 
HETATM   10  O   UNL     1      37.845  -9.919   5.810  1.00  0.00    -0.258 OA
HETATM   11  N   UNL     1      39.118 -11.174   4.354  1.00  0.00    -0.191 NA
HETATM   12  C   UNL     1      40.350 -11.600   4.287  1.00  0.00     0.122 A 
BRANCH  12  13
HETATM   13  N   UNL     1      40.711 -12.345   3.198  1.00  0.00    -0.286 NA
HETATM   14  H   UNL     1      41.660 -12.700   3.172  1.00  0.00     0.125 HD
HETATM   15  H   UNL     1      40.445 -11.900   2.323  1.00  0.00     0.125 HD
ENDBRANCH  12  13
ENDBRANCH   6   7
ENDBRANCH   3   6
BRANCH   1  16
HETATM   16  C   UNL     1      43.455 -16.373   4.736  1.00  0.00     0.133 A 
HETATM   17  S   UNL     1      43.014 -16.522   3.086  1.00  0.00    -0.066 SA
HETATM   18  C   UNL     1      43.354 -18.210   3.147  1.00  0.00     0.035 A 
HETATM   19  C   UNL     1      43.787 -18.537   4.433  1.00  0.00     0.075 A 
HETATM   20  C   UNL     1      43.247 -19.174   2.132  1.00  0.00     0.021 A 
HETATM   21  C   UNL     1      44.125 -19.877   4.714  1.00  0.00     0.033 A 
HETATM   22  N   UNL     1      43.840 -17.483   5.329  1.00  0.00    -0.238 NA
HETATM   23  C   UNL     1      44.022 -20.846   3.711  1.00  0.00     0.002 A 
HETATM   24  C   UNL     1      43.589 -20.496   2.436  1.00  0.00     0.002 A 
ENDBRANCH   1  16
TORSDOF 4
ENDMDL
