MODEL 1
REMARK VINA RESULT:      -9.4      0.000      0.000
REMARK  7 active torsions:
REMARK  status: ('A' for Active; 'I' for Inactive)
REMARK    1  A    between atoms: C_3  and  C_4 
REMARK    2  A    between atoms: C_4  and  S_5 
REMARK    3  A    between atoms: S_5  and  C_6 
REMARK    4  A    between atoms: C_6  and  C_7 
REMARK    5  A    between atoms: C_16  and  C_17 
REMARK       I    between atoms: C_17  and  N_18 
REMARK    6  A    between atoms: N_18  and  C_19 
REMARK    7  A    between atoms: C_19  and  C_20 
ROOT
HETATM    1  C   UNL     1      40.994 -14.598   5.541  1.00  0.00     0.162 C 
HETATM    2  N   UNL     1      40.195 -15.471   4.638  1.00  0.00    -0.277 NA
HETATM    3  C   UNL     1      40.245 -15.115   3.278  1.00  0.00     0.036 A 
HETATM    4  C   UNL     1      40.485 -13.786   2.880  1.00  0.00     0.057 A 
HETATM    5  N   UNL     1      40.739 -12.808   3.849  1.00  0.00    -0.324 N 
HETATM    6  C   UNL     1      40.842 -13.107   5.184  1.00  0.00     0.240 C 
HETATM    7  O   UNL     1      40.885 -12.212   6.028  1.00  0.00    -0.271 OA
HETATM    8  C   UNL     1      39.887 -16.048   2.299  1.00  0.00     0.027 A 
HETATM    9  C   UNL     1      39.853 -15.688   0.946  1.00  0.00     0.019 A 
HETATM   10  C   UNL     1      40.149 -14.376   0.560  1.00  0.00     0.034 A 
HETATM   11  C   UNL     1      40.440 -13.416   1.537  1.00  0.00     0.048 A 
HETATM   12  H   UNL     1      40.331 -16.464   4.798  1.00  0.00     0.128 HD
HETATM   13  H   UNL     1      40.744 -11.827   3.603  1.00  0.00     0.169 HD
ENDROOT
BRANCH  10  14
HETATM   14  C   UNL     1      40.144 -13.938  -0.863  1.00  0.00     0.252 C 
HETATM   15  N   UNL     1      40.843 -12.791  -1.162  1.00  0.00    -0.353 N 
HETATM   16  H   UNL     1      41.354 -12.287  -0.451  1.00  0.00     0.163 HD
HETATM   17  O   UNL     1      39.499 -14.569  -1.692  1.00  0.00    -0.268 OA
BRANCH  15  18
HETATM   18  C   UNL     1      40.854 -12.264  -2.509  1.00  0.00     0.161 C 
BRANCH  18  19
HETATM   19  C   UNL     1      41.183 -10.791  -2.533  1.00  0.00    -0.040 A 
HETATM   20  C   UNL     1      40.936 -10.028  -3.683  1.00  0.00     0.010 A 
HETATM   21  C   UNL     1      41.203  -8.655  -3.696  1.00  0.00     0.024 A 
HETATM   22  C   UNL     1      41.717  -8.039  -2.558  1.00  0.00     0.034 A 
HETATM   23 CL   UNL     1      42.046  -6.349  -2.575  1.00  0.00    -0.084 Cl
HETATM   24  C   UNL     1      41.959  -8.779  -1.404  1.00  0.00     0.024 A 
HETATM   25  C   UNL     1      41.685 -10.148  -1.389  1.00  0.00     0.010 A 
ENDBRANCH  18  19
ENDBRANCH  15  18
ENDBRANCH  10  14
BRANCH   1  26
HETATM   26  C   UNL     1      42.472 -15.041   5.507  1.00  0.00     0.103 C 
BRANCH  26  27
HETATM   27  S   UNL     1      42.891 -16.687   6.183  1.00  0.00    -0.162 SA
BRANCH  27  28
HETATM   28  C   UNL     1      44.334 -17.108   5.152  1.00  0.00     0.112 C 
BRANCH  28  29
HETATM   29  C   UNL     1      44.043 -18.289   4.254  1.00  0.00    -0.043 A 
HETATM   30  C   UNL     1      43.588 -18.135   2.927  1.00  0.00    -0.055 A 
HETATM   31  C   UNL     1      43.376 -16.778   2.309  1.00  0.00     0.049 C 
HETATM   32  C   UNL     1      43.334 -19.279   2.150  1.00  0.00     0.007 A 
HETATM   33  C   UNL     1      43.509 -20.557   2.679  1.00  0.00     0.001 A 
HETATM   34  C   UNL     1      43.940 -20.712   3.992  1.00  0.00     0.001 A 
HETATM   35  C   UNL     1      44.203 -19.588   4.774  1.00  0.00     0.008 A 
ENDBRANCH  28  29
ENDBRANCH  27  28
ENDBRANCH  26  27
ENDBRANCH   1  26
TORSDOF 7
ENDMDL
MODEL 2
REMARK VINA RESULT:      -9.4      5.462      8.833
REMARK  7 active torsions:
REMARK  status: ('A' for Active; 'I' for Inactive)
REMARK    1  A    between atoms: C_3  and  C_4 
REMARK    2  A    between atoms: C_4  and  S_5 
REMARK    3  A    between atoms: S_5  and  C_6 
REMARK    4  A    between atoms: C_6  and  C_7 
REMARK    5  A    between atoms: C_16  and  C_17 
REMARK       I    between atoms: C_17  and  N_18 
REMARK    6  A    between atoms: N_18  and  C_19 
REMARK    7  A    between atoms: C_19  and  C_20 
ROOT
HETATM    1  C   UNL     1      40.783 -14.800   3.777  1.00  0.00     0.162 C 
HETATM    2  N   UNL     1      40.814 -13.314   3.879  1.00  0.00    -0.277 NA
HETATM    3  C   UNL     1      41.768 -12.806   4.779  1.00  0.00     0.036 A 
HETATM    4  C   UNL     1      42.202 -13.559   5.886  1.00  0.00     0.057 A 
HETATM    5  N   UNL     1      41.724 -14.863   6.067  1.00  0.00    -0.324 N 
HETATM    6  C   UNL     1      40.899 -15.475   5.157  1.00  0.00     0.240 C 
HETATM    7  O   UNL     1      40.351 -16.544   5.425  1.00  0.00    -0.271 OA
HETATM    8  C   UNL     1      42.175 -11.471   4.681  1.00  0.00     0.027 A 
HETATM    9  C   UNL     1      43.063 -10.924   5.616  1.00  0.00     0.019 A 
HETATM   10  C   UNL     1      43.530 -11.703   6.682  1.00  0.00     0.034 A 
HETATM   11  C   UNL     1      43.075 -13.018   6.830  1.00  0.00     0.048 A 
HETATM   12  H   UNL     1      40.815 -12.840   2.981  1.00  0.00     0.128 HD
HETATM   13  H   UNL     1      41.886 -15.355   6.935  1.00  0.00     0.169 HD
ENDROOT
BRANCH  10  14
HETATM   14  C   UNL     1      44.486 -11.181   7.697  1.00  0.00     0.252 C 
HETATM   15  N   UNL     1      43.961 -10.831   8.920  1.00  0.00    -0.353 N 
HETATM   16  H   UNL     1      42.979 -10.949   9.123  1.00  0.00     0.163 HD
HETATM   17  O   UNL     1      45.667 -11.040   7.406  1.00  0.00    -0.268 OA
BRANCH  15  18
HETATM   18  C   UNL     1      44.806 -10.271   9.952  1.00  0.00     0.161 C 
BRANCH  18  19
HETATM   19  C   UNL     1      44.009  -9.842  11.160  1.00  0.00    -0.040 A 
HETATM   20  C   UNL     1      43.898  -8.484  11.491  1.00  0.00     0.010 A 
HETATM   21  C   UNL     1      43.128  -8.081  12.587  1.00  0.00     0.024 A 
HETATM   22  C   UNL     1      42.464  -9.034  13.355  1.00  0.00     0.034 A 
HETATM   23 CL   UNL     1      41.517  -8.537  14.704  1.00  0.00    -0.084 Cl
HETATM   24  C   UNL     1      42.554 -10.386  13.034  1.00  0.00     0.024 A 
HETATM   25  C   UNL     1      43.317 -10.787  11.936  1.00  0.00     0.010 A 
ENDBRANCH  18  19
ENDBRANCH  15  18
ENDBRANCH  10  14
BRANCH   1  26
HETATM   26  C   UNL     1      41.898 -15.272   2.820  1.00  0.00     0.103 C 
BRANCH  26  27
HETATM   27  S   UNL     1      41.836 -16.996   2.213  1.00  0.00    -0.162 SA
BRANCH  27  28
HETATM   28  C   UNL     1      43.576 -17.486   2.439  1.00  0.00     0.112 C 
BRANCH  28  29
HETATM   29  C   UNL     1      43.706 -18.601   3.452  1.00  0.00    -0.043 A 
HETATM   30  C   UNL     1      43.754 -19.961   3.076  1.00  0.00    -0.055 A 
HETATM   31  C   UNL     1      43.695 -20.392   1.635  1.00  0.00     0.049 C 
HETATM   32  C   UNL     1      43.873 -20.946   4.072  1.00  0.00     0.007 A 
HETATM   33  C   UNL     1      43.925 -20.597   5.421  1.00  0.00     0.001 A 
HETATM   34  C   UNL     1      43.860 -19.260   5.795  1.00  0.00     0.001 A 
HETATM   35  C   UNL     1      43.750 -18.270   4.820  1.00  0.00     0.008 A 
ENDBRANCH  28  29
ENDBRANCH  27  28
ENDBRANCH  26  27
ENDBRANCH   1  26
TORSDOF 7
ENDMDL
MODEL 3
REMARK VINA RESULT:      -9.4      5.954      9.304
REMARK  7 active torsions:
REMARK  status: ('A' for Active; 'I' for Inactive)
REMARK    1  A    between atoms: C_3  and  C_4 
REMARK    2  A    between atoms: C_4  and  S_5 
REMARK    3  A    between atoms: S_5  and  C_6 
REMARK    4  A    between atoms: C_6  and  C_7 
REMARK    5  A    between atoms: C_16  and  C_17 
REMARK       I    between atoms: C_17  and  N_18 
REMARK    6  A    between atoms: N_18  and  C_19 
REMARK    7  A    between atoms: C_19  and  C_20 
ROOT
HETATM    1  C   UNL     1      42.518 -11.233   3.202  1.00  0.00     0.162 C 
HETATM    2  N   UNL     1      43.899 -11.274   3.759  1.00  0.00    -0.277 NA
HETATM    3  C   UNL     1      43.970 -11.198   5.161  1.00  0.00     0.036 A 
HETATM    4  C   UNL     1      42.968 -10.552   5.910  1.00  0.00     0.057 A 
HETATM    5  N   UNL     1      41.847 -10.025   5.257  1.00  0.00    -0.324 N 
HETATM    6  C   UNL     1      41.642 -10.182   3.909  1.00  0.00     0.240 C 
HETATM    7  O   UNL     1      40.751  -9.560   3.332  1.00  0.00    -0.271 OA
HETATM    8  C   UNL     1      45.128 -11.619   5.824  1.00  0.00     0.027 A 
HETATM    9  C   UNL     1      45.250 -11.476   7.212  1.00  0.00     0.019 A 
HETATM   10  C   UNL     1      44.220 -10.881   7.951  1.00  0.00     0.034 A 
HETATM   11  C   UNL     1      43.087 -10.393   7.290  1.00  0.00     0.048 A 
HETATM   12  H   UNL     1      44.479 -12.008   3.366  1.00  0.00     0.128 HD
HETATM   13  H   UNL     1      41.206  -9.414   5.744  1.00  0.00     0.169 HD
ENDROOT
BRANCH  10  14
HETATM   14  C   UNL     1      44.286 -10.717   9.428  1.00  0.00     0.252 C 
HETATM   15  N   UNL     1      43.105 -10.425  10.074  1.00  0.00    -0.353 N 
HETATM   16  H   UNL     1      42.235 -10.352   9.567  1.00  0.00     0.163 HD
HETATM   17  O   UNL     1      45.365 -10.798  10.003  1.00  0.00    -0.268 OA
BRANCH  15  18
HETATM   18  C   UNL     1      43.081 -10.201  11.503  1.00  0.00     0.161 C 
BRANCH  18  19
HETATM   19  C   UNL     1      42.827  -8.751  11.840  1.00  0.00    -0.040 A 
HETATM   20  C   UNL     1      42.872  -8.315  13.171  1.00  0.00     0.010 A 
HETATM   21  C   UNL     1      42.676  -6.966  13.483  1.00  0.00     0.024 A 
HETATM   22  C   UNL     1      42.435  -6.046  12.465  1.00  0.00     0.034 A 
HETATM   23 CL   UNL     1      42.193  -4.387  12.850  1.00  0.00    -0.084 Cl
HETATM   24  C   UNL     1      42.398  -6.461  11.136  1.00  0.00     0.024 A 
HETATM   25  C   UNL     1      42.602  -7.807  10.824  1.00  0.00     0.010 A 
ENDBRANCH  18  19
ENDBRANCH  15  18
ENDBRANCH  10  14
BRANCH   1  26
HETATM   26  C   UNL     1      41.890 -12.641   3.283  1.00  0.00     0.103 C 
BRANCH  26  27
HETATM   27  S   UNL     1      42.898 -14.065   2.736  1.00  0.00    -0.162 SA
BRANCH  27  28
HETATM   28  C   UNL     1      42.752 -15.149   4.192  1.00  0.00     0.112 C 
BRANCH  28  29
HETATM   29  C   UNL     1      43.179 -16.564   3.870  1.00  0.00    -0.043 A 
HETATM   30  C   UNL     1      44.024 -17.310   4.721  1.00  0.00    -0.055 A 
HETATM   31  C   UNL     1      44.545 -16.750   6.018  1.00  0.00     0.049 C 
HETATM   32  C   UNL     1      44.384 -18.618   4.357  1.00  0.00     0.007 A 
HETATM   33  C   UNL     1      43.933 -19.179   3.162  1.00  0.00     0.001 A 
HETATM   34  C   UNL     1      43.115 -18.441   2.314  1.00  0.00     0.001 A 
HETATM   35  C   UNL     1      42.743 -17.144   2.664  1.00  0.00     0.008 A 
ENDBRANCH  28  29
ENDBRANCH  27  28
ENDBRANCH  26  27
ENDBRANCH   1  26
TORSDOF 7
ENDMDL
MODEL 4
REMARK VINA RESULT:      -9.2      2.266      2.676
REMARK  7 active torsions:
REMARK  status: ('A' for Active; 'I' for Inactive)
REMARK    1  A    between atoms: C_3  and  C_4 
REMARK    2  A    between atoms: C_4  and  S_5 
REMARK    3  A    between atoms: S_5  and  C_6 
REMARK    4  A    between atoms: C_6  and  C_7 
REMARK    5  A    between atoms: C_16  and  C_17 
REMARK       I    between atoms: C_17  and  N_18 
REMARK    6  A    between atoms: N_18  and  C_19 
REMARK    7  A    between atoms: C_19  and  C_20 
ROOT
HETATM    1  C   UNL     1      40.575 -15.292   5.956  1.00  0.00     0.162 C 
HETATM    2  N   UNL     1      40.123 -16.152   4.827  1.00  0.00    -0.277 NA
HETATM    3  C   UNL     1      40.215 -15.553   3.558  1.00  0.00     0.036 A 
HETATM    4  C   UNL     1      40.141 -14.156   3.402  1.00  0.00     0.057 A 
HETATM    5  N   UNL     1      40.035 -13.338   4.534  1.00  0.00    -0.324 N 
HETATM    6  C   UNL     1      40.078 -13.841   5.810  1.00  0.00     0.240 C 
HETATM    7  O   UNL     1      39.803 -13.130   6.776  1.00  0.00    -0.271 OA
HETATM    8  C   UNL     1      40.210 -16.351   2.409  1.00  0.00     0.027 A 
HETATM    9  C   UNL     1      40.220 -15.771   1.134  1.00  0.00     0.019 A 
HETATM   10  C   UNL     1      40.202 -14.378   0.996  1.00  0.00     0.034 A 
HETATM   11  C   UNL     1      40.135 -13.570   2.137  1.00  0.00     0.048 A 
HETATM   12  H   UNL     1      40.496 -17.096   4.854  1.00  0.00     0.128 HD
HETATM   13  H   UNL     1      39.810 -12.356   4.441  1.00  0.00     0.169 HD
ENDROOT
BRANCH  10  14
HETATM   14  C   UNL     1      40.226 -13.704  -0.330  1.00  0.00     0.252 C 
HETATM   15  N   UNL     1      39.500 -14.294  -1.340  1.00  0.00    -0.353 N 
HETATM   16  H   UNL     1      38.957 -15.130  -1.176  1.00  0.00     0.163 HD
HETATM   17  O   UNL     1      40.910 -12.700  -0.492  1.00  0.00    -0.268 OA
BRANCH  15  18
HETATM   18  C   UNL     1      39.503 -13.736  -2.675  1.00  0.00     0.161 C 
BRANCH  18  19
HETATM   19  C   UNL     1      38.424 -12.695  -2.851  1.00  0.00    -0.040 A 
HETATM   20  C   UNL     1      37.076 -13.075  -2.914  1.00  0.00     0.010 A 
HETATM   21  C   UNL     1      36.071 -12.110  -3.038  1.00  0.00     0.024 A 
HETATM   22  C   UNL     1      36.410 -10.761  -3.098  1.00  0.00     0.034 A 
HETATM   23 CL   UNL     1      35.173  -9.574  -3.251  1.00  0.00    -0.084 Cl
HETATM   24  C   UNL     1      37.743 -10.365  -3.027  1.00  0.00     0.024 A 
HETATM   25  C   UNL     1      38.745 -11.328  -2.895  1.00  0.00     0.010 A 
ENDBRANCH  18  19
ENDBRANCH  15  18
ENDBRANCH  10  14
BRANCH   1  26
HETATM   26  C   UNL     1      42.113 -15.356   6.067  1.00  0.00     0.103 C 
BRANCH  26  27
HETATM   27  S   UNL     1      42.875 -16.948   6.545  1.00  0.00    -0.162 SA
BRANCH  27  28
HETATM   28  C   UNL     1      44.184 -17.077   5.286  1.00  0.00     0.112 C 
BRANCH  28  29
HETATM   29  C   UNL     1      44.007 -18.313   4.432  1.00  0.00    -0.043 A 
HETATM   30  C   UNL     1      43.692 -18.243   3.058  1.00  0.00    -0.055 A 
HETATM   31  C   UNL     1      43.527 -16.927   2.344  1.00  0.00     0.049 C 
HETATM   32  C   UNL     1      43.539 -19.433   2.326  1.00  0.00     0.007 A 
HETATM   33  C   UNL     1      43.675 -20.676   2.944  1.00  0.00     0.001 A 
HETATM   34  C   UNL     1      43.967 -20.748   4.301  1.00  0.00     0.001 A 
HETATM   35  C   UNL     1      44.131 -19.577   5.040  1.00  0.00     0.008 A 
ENDBRANCH  28  29
ENDBRANCH  27  28
ENDBRANCH  26  27
ENDBRANCH   1  26
TORSDOF 7
ENDMDL
MODEL 5
REMARK VINA RESULT:      -8.9      6.650     10.434
REMARK  7 active torsions:
REMARK  status: ('A' for Active; 'I' for Inactive)
REMARK    1  A    between atoms: C_3  and  C_4 
REMARK    2  A    between atoms: C_4  and  S_5 
REMARK    3  A    between atoms: S_5  and  C_6 
REMARK    4  A    between atoms: C_6  and  C_7 
REMARK    5  A    between atoms: C_16  and  C_17 
REMARK       I    between atoms: C_17  and  N_18 
REMARK    6  A    between atoms: N_18  and  C_19 
REMARK    7  A    between atoms: C_19  and  C_20 
ROOT
HETATM    1  C   UNL     1      44.233  -9.545   8.294  1.00  0.00     0.162 C 
HETATM    2  N   UNL     1      43.044  -9.373   7.414  1.00  0.00    -0.277 NA
HETATM    3  C   UNL     1      42.755 -10.477   6.592  1.00  0.00     0.036 A 
HETATM    4  C   UNL     1      43.767 -11.365   6.179  1.00  0.00     0.057 A 
HETATM    5  N   UNL     1      45.077 -11.185   6.641  1.00  0.00    -0.324 N 
HETATM    6  C   UNL     1      45.406 -10.214   7.553  1.00  0.00     0.240 C 
HETATM    7  O   UNL     1      46.584  -9.961   7.803  1.00  0.00    -0.271 OA
HETATM    8  C   UNL     1      41.481 -10.614   6.031  1.00  0.00     0.027 A 
HETATM    9  C   UNL     1      41.197 -11.662   5.146  1.00  0.00     0.019 A 
HETATM   10  C   UNL     1      42.200 -12.570   4.788  1.00  0.00     0.034 A 
HETATM   11  C   UNL     1      43.497 -12.402   5.288  1.00  0.00     0.048 A 
HETATM   12  H   UNL     1      42.228  -9.004   7.893  1.00  0.00     0.128 HD
HETATM   13  H   UNL     1      45.844 -11.699   6.229  1.00  0.00     0.169 HD
ENDROOT
BRANCH  10  14
HETATM   14  C   UNL     1      41.955 -13.711   3.865  1.00  0.00     0.252 C 
HETATM   15  N   UNL     1      43.030 -14.525   3.585  1.00  0.00    -0.353 N 
HETATM   16  H   UNL     1      43.933 -14.366   4.008  1.00  0.00     0.163 HD
HETATM   17  O   UNL     1      40.849 -13.860   3.360  1.00  0.00    -0.268 OA
BRANCH  15  18
HETATM   18  C   UNL     1      42.897 -15.630   2.661  1.00  0.00     0.161 C 
BRANCH  18  19
HETATM   19  C   UNL     1      43.333 -16.936   3.280  1.00  0.00    -0.040 A 
HETATM   20  C   UNL     1      43.587 -17.017   4.657  1.00  0.00     0.010 A 
HETATM   21  C   UNL     1      43.953 -18.234   5.241  1.00  0.00     0.024 A 
HETATM   22  C   UNL     1      44.065 -19.376   4.451  1.00  0.00     0.034 A 
HETATM   23 CL   UNL     1      44.516 -20.873   5.170  1.00  0.00    -0.084 Cl
HETATM   24  C   UNL     1      43.807 -19.315   3.084  1.00  0.00     0.024 A 
HETATM   25  C   UNL     1      43.434 -18.101   2.503  1.00  0.00     0.010 A 
ENDBRANCH  18  19
ENDBRANCH  15  18
ENDBRANCH  10  14
BRANCH   1  26
HETATM   26  C   UNL     1      43.830 -10.342   9.552  1.00  0.00     0.103 C 
BRANCH  26  27
HETATM   27  S   UNL     1      44.285  -9.659  11.186  1.00  0.00    -0.162 SA
BRANCH  27  28
HETATM   28  C   UNL     1      43.037  -8.342  11.350  1.00  0.00     0.112 C 
BRANCH  28  29
HETATM   29  C   UNL     1      42.574  -8.198  12.782  1.00  0.00    -0.043 A 
HETATM   30  C   UNL     1      41.507  -8.957  13.311  1.00  0.00    -0.055 A 
HETATM   31  C   UNL     1      40.767  -9.975  12.485  1.00  0.00     0.049 C 
HETATM   32  C   UNL     1      41.127  -8.768  14.651  1.00  0.00     0.007 A 
HETATM   33  C   UNL     1      41.777  -7.832  15.455  1.00  0.00     0.001 A 
HETATM   34  C   UNL     1      42.817  -7.070  14.931  1.00  0.00     0.001 A 
HETATM   35  C   UNL     1      43.211  -7.251  13.607  1.00  0.00     0.008 A 
ENDBRANCH  28  29
ENDBRANCH  27  28
ENDBRANCH  26  27
ENDBRANCH   1  26
TORSDOF 7
ENDMDL
MODEL 6
REMARK VINA RESULT:      -8.9      6.497      9.699
REMARK  7 active torsions:
REMARK  status: ('A' for Active; 'I' for Inactive)
REMARK    1  A    between atoms: C_3  and  C_4 
REMARK    2  A    between atoms: C_4  and  S_5 
REMARK    3  A    between atoms: S_5  and  C_6 
REMARK    4  A    between atoms: C_6  and  C_7 
REMARK    5  A    between atoms: C_16  and  C_17 
REMARK       I    between atoms: C_17  and  N_18 
REMARK    6  A    between atoms: N_18  and  C_19 
REMARK    7  A    between atoms: C_19  and  C_20 
ROOT
HETATM    1  C   UNL     1      43.058 -13.749   5.616  1.00  0.00     0.162 C 
HETATM    2  N   UNL     1      44.353 -13.065   5.881  1.00  0.00    -0.277 NA
HETATM    3  C   UNL     1      44.254 -11.898   6.661  1.00  0.00     0.036 A 
HETATM    4  C   UNL     1      43.076 -11.126   6.673  1.00  0.00     0.057 A 
HETATM    5  N   UNL     1      41.960 -11.554   5.945  1.00  0.00    -0.324 N 
HETATM    6  C   UNL     1      41.937 -12.750   5.272  1.00  0.00     0.240 C 
HETATM    7  O   UNL     1      41.019 -13.018   4.497  1.00  0.00    -0.271 OA
HETATM    8  C   UNL     1      45.387 -11.393   7.308  1.00  0.00     0.027 A 
HETATM    9  C   UNL     1      45.327 -10.190   8.022  1.00  0.00     0.019 A 
HETATM   10  C   UNL     1      44.133  -9.461   8.071  1.00  0.00     0.034 A 
HETATM   11  C   UNL     1      43.011  -9.920   7.370  1.00  0.00     0.048 A 
HETATM   12  H   UNL     1      45.094 -13.689   6.184  1.00  0.00     0.128 HD
HETATM   13  H   UNL     1      41.171 -10.938   5.801  1.00  0.00     0.169 HD
ENDROOT
BRANCH  10  14
HETATM   14  C   UNL     1      44.004  -8.185   8.827  1.00  0.00     0.252 C 
HETATM   15  N   UNL     1      42.942  -8.083   9.697  1.00  0.00    -0.353 N 
HETATM   16  H   UNL     1      42.299  -8.850   9.832  1.00  0.00     0.163 HD
HETATM   17  O   UNL     1      44.796  -7.273   8.622  1.00  0.00    -0.268 OA
BRANCH  15  18
HETATM   18  C   UNL     1      42.709  -6.862  10.437  1.00  0.00     0.161 C 
BRANCH  18  19
HETATM   19  C   UNL     1      42.310  -7.140  11.866  1.00  0.00    -0.040 A 
HETATM   20  C   UNL     1      41.120  -6.611  12.385  1.00  0.00     0.010 A 
HETATM   21  C   UNL     1      40.727  -6.898  13.697  1.00  0.00     0.024 A 
HETATM   22  C   UNL     1      41.523  -7.717  14.495  1.00  0.00     0.034 A 
HETATM   23 CL   UNL     1      41.039  -8.070  16.108  1.00  0.00    -0.084 Cl
HETATM   24  C   UNL     1      42.703  -8.259  13.992  1.00  0.00     0.024 A 
HETATM   25  C   UNL     1      43.090  -7.978  12.680  1.00  0.00     0.010 A 
ENDBRANCH  18  19
ENDBRANCH  15  18
ENDBRANCH  10  14
BRANCH   1  26
HETATM   26  C   UNL     1      42.682 -14.626   6.830  1.00  0.00     0.103 C 
BRANCH  26  27
HETATM   27  S   UNL     1      42.694 -16.441   6.616  1.00  0.00    -0.162 SA
BRANCH  27  28
HETATM   28  C   UNL     1      43.700 -16.587   5.105  1.00  0.00     0.112 C 
BRANCH  28  29
HETATM   29  C   UNL     1      43.743 -18.014   4.607  1.00  0.00    -0.043 A 
HETATM   30  C   UNL     1      43.559 -18.345   3.247  1.00  0.00    -0.055 A 
HETATM   31  C   UNL     1      43.325 -17.294   2.195  1.00  0.00     0.049 C 
HETATM   32  C   UNL     1      43.608 -19.694   2.855  1.00  0.00     0.007 A 
HETATM   33  C   UNL     1      43.816 -20.705   3.793  1.00  0.00     0.001 A 
HETATM   34  C   UNL     1      43.979 -20.383   5.136  1.00  0.00     0.001 A 
HETATM   35  C   UNL     1      43.942 -19.050   5.540  1.00  0.00     0.008 A 
ENDBRANCH  28  29
ENDBRANCH  27  28
ENDBRANCH  26  27
ENDBRANCH   1  26
TORSDOF 7
ENDMDL
MODEL 7
REMARK VINA RESULT:      -8.5      5.467      8.792
REMARK  7 active torsions:
REMARK  status: ('A' for Active; 'I' for Inactive)
REMARK    1  A    between atoms: C_3  and  C_4 
REMARK    2  A    between atoms: C_4  and  S_5 
REMARK    3  A    between atoms: S_5  and  C_6 
REMARK    4  A    between atoms: C_6  and  C_7 
REMARK    5  A    between atoms: C_16  and  C_17 
REMARK       I    between atoms: C_17  and  N_18 
REMARK    6  A    between atoms: N_18  and  C_19 
REMARK    7  A    between atoms: C_19  and  C_20 
ROOT
HETATM    1  C   UNL     1      40.895 -10.473   1.762  1.00  0.00     0.162 C 
HETATM    2  N   UNL     1      42.337 -10.765   1.985  1.00  0.00    -0.277 NA
HETATM    3  C   UNL     1      42.702 -10.934   3.333  1.00  0.00     0.036 A 
HETATM    4  C   UNL     1      41.980 -10.310   4.369  1.00  0.00     0.057 A 
HETATM    5  N   UNL     1      40.841  -9.556   4.062  1.00  0.00    -0.324 N 
HETATM    6  C   UNL     1      40.346  -9.461   2.785  1.00  0.00     0.240 C 
HETATM    7  O   UNL     1      39.459  -8.652   2.514  1.00  0.00    -0.271 OA
HETATM    8  C   UNL     1      43.895 -11.589   3.655  1.00  0.00     0.027 A 
HETATM    9  C   UNL     1      44.316 -11.696   4.987  1.00  0.00     0.019 A 
HETATM   10  C   UNL     1      43.558 -11.118   6.012  1.00  0.00     0.034 A 
HETATM   11  C   UNL     1      42.399 -10.399   5.696  1.00  0.00     0.048 A 
HETATM   12  H   UNL     1      42.711 -11.485   1.375  1.00  0.00     0.128 HD
HETATM   13  H   UNL     1      40.411  -8.965   4.760  1.00  0.00     0.169 HD
ENDROOT
BRANCH  10  14
HETATM   14  C   UNL     1      43.946 -11.212   7.446  1.00  0.00     0.252 C 
HETATM   15  N   UNL     1      44.241 -10.031   8.088  1.00  0.00    -0.353 N 
HETATM   16  H   UNL     1      44.171  -9.143   7.611  1.00  0.00     0.163 HD
HETATM   17  O   UNL     1      44.033 -12.310   7.983  1.00  0.00    -0.268 OA
BRANCH  15  18
HETATM   18  C   UNL     1      44.674 -10.029   9.468  1.00  0.00     0.161 C 
BRANCH  18  19
HETATM   19  C   UNL     1      43.985  -8.952  10.271  1.00  0.00    -0.040 A 
HETATM   20  C   UNL     1      43.474  -7.811   9.636  1.00  0.00     0.010 A 
HETATM   21  C   UNL     1      42.801  -6.830  10.371  1.00  0.00     0.024 A 
HETATM   22  C   UNL     1      42.635  -6.986  11.746  1.00  0.00     0.034 A 
HETATM   23 CL   UNL     1      41.807  -5.778  12.650  1.00  0.00    -0.084 Cl
HETATM   24  C   UNL     1      43.127  -8.118  12.391  1.00  0.00     0.024 A 
HETATM   25  C   UNL     1      43.792  -9.101  11.655  1.00  0.00     0.010 A 
ENDBRANCH  18  19
ENDBRANCH  15  18
ENDBRANCH  10  14
BRANCH   1  26
HETATM   26  C   UNL     1      40.094 -11.793   1.786  1.00  0.00     0.103 C 
BRANCH  26  27
HETATM   27  S   UNL     1      40.851 -13.271   1.022  1.00  0.00    -0.162 SA
BRANCH  27  28
HETATM   28  C   UNL     1      40.263 -14.566   2.160  1.00  0.00     0.112 C 
BRANCH  28  29
HETATM   29  C   UNL     1      41.188 -14.719   3.346  1.00  0.00    -0.043 A 
HETATM   30  C   UNL     1      42.357 -15.509   3.296  1.00  0.00    -0.055 A 
HETATM   31  C   UNL     1      42.770 -16.242   2.048  1.00  0.00     0.049 C 
HETATM   32  C   UNL     1      43.168 -15.608   4.439  1.00  0.00     0.007 A 
HETATM   33  C   UNL     1      42.824 -14.954   5.622  1.00  0.00     0.001 A 
HETATM   34  C   UNL     1      41.664 -14.190   5.679  1.00  0.00     0.001 A 
HETATM   35  C   UNL     1      40.852 -14.074   4.552  1.00  0.00     0.008 A 
ENDBRANCH  28  29
ENDBRANCH  27  28
ENDBRANCH  26  27
ENDBRANCH   1  26
TORSDOF 7
ENDMDL
MODEL 8
REMARK VINA RESULT:      -8.5      5.004      8.402
REMARK  7 active torsions:
REMARK  status: ('A' for Active; 'I' for Inactive)
REMARK    1  A    between atoms: C_3  and  C_4 
REMARK    2  A    between atoms: C_4  and  S_5 
REMARK    3  A    between atoms: S_5  and  C_6 
REMARK    4  A    between atoms: C_6  and  C_7 
REMARK    5  A    between atoms: C_16  and  C_17 
REMARK       I    between atoms: C_17  and  N_18 
REMARK    6  A    between atoms: N_18  and  C_19 
REMARK    7  A    between atoms: C_19  and  C_20 
ROOT
HETATM    1  C   UNL     1      38.656  -9.524   5.752  1.00  0.00     0.162 C 
HETATM    2  N   UNL     1      38.742 -10.960   6.137  1.00  0.00    -0.277 NA
HETATM    3  C   UNL     1      39.646 -11.720   5.374  1.00  0.00     0.036 A 
HETATM    4  C   UNL     1      39.964 -11.365   4.049  1.00  0.00     0.057 A 
HETATM    5  N   UNL     1      39.419 -10.200   3.495  1.00  0.00    -0.324 N 
HETATM    6  C   UNL     1      38.639  -9.337   4.223  1.00  0.00     0.240 C 
HETATM    7  O   UNL     1      38.027  -8.423   3.669  1.00  0.00    -0.271 OA
HETATM    8  C   UNL     1      40.117 -12.943   5.865  1.00  0.00     0.027 A 
HETATM    9  C   UNL     1      40.954 -13.752   5.087  1.00  0.00     0.019 A 
HETATM   10  C   UNL     1      41.306 -13.358   3.791  1.00  0.00     0.034 A 
HETATM   11  C   UNL     1      40.785 -12.171   3.262  1.00  0.00     0.048 A 
HETATM   12  H   UNL     1      38.831 -11.113   7.136  1.00  0.00     0.128 HD
HETATM   13  H   UNL     1      39.493 -10.017   2.503  1.00  0.00     0.169 HD
ENDROOT
BRANCH  10  14
HETATM   14  C   UNL     1      42.204 -14.169   2.923  1.00  0.00     0.252 C 
HETATM   15  N   UNL     1      41.878 -15.496   2.761  1.00  0.00    -0.353 N 
HETATM   16  H   UNL     1      41.054 -15.890   3.191  1.00  0.00     0.163 HD
HETATM   17  O   UNL     1      43.202 -13.656   2.432  1.00  0.00    -0.268 OA
BRANCH  15  18
HETATM   18  C   UNL     1      42.719 -16.372   1.974  1.00  0.00     0.161 C 
BRANCH  18  19
HETATM   19  C   UNL     1      43.224 -17.542   2.784  1.00  0.00    -0.040 A 
HETATM   20  C   UNL     1      43.640 -17.359   4.110  1.00  0.00     0.010 A 
HETATM   21  C   UNL     1      44.071 -18.447   4.875  1.00  0.00     0.024 A 
HETATM   22  C   UNL     1      44.087 -19.724   4.318  1.00  0.00     0.034 A 
HETATM   23 CL   UNL     1      44.618 -21.062   5.260  1.00  0.00    -0.084 Cl
HETATM   24  C   UNL     1      43.667 -19.925   3.005  1.00  0.00     0.024 A 
HETATM   25  C   UNL     1      43.229 -18.839   2.245  1.00  0.00     0.010 A 
ENDBRANCH  18  19
ENDBRANCH  15  18
ENDBRANCH  10  14
BRANCH   1  26
HETATM   26  C   UNL     1      39.818  -8.746   6.405  1.00  0.00     0.103 C 
BRANCH  26  27
HETATM   27  S   UNL     1      40.509  -9.389   7.971  1.00  0.00    -0.162 SA
BRANCH  27  28
HETATM   28  C   UNL     1      42.197  -8.708   7.889  1.00  0.00     0.112 C 
BRANCH  28  29
HETATM   29  C   UNL     1      43.204  -9.775   7.523  1.00  0.00    -0.043 A 
HETATM   30  C   UNL     1      44.429  -9.925   8.210  1.00  0.00    -0.055 A 
HETATM   31  C   UNL     1      44.806  -9.040   9.368  1.00  0.00     0.049 C 
HETATM   32  C   UNL     1      45.319 -10.937   7.813  1.00  0.00     0.007 A 
HETATM   33  C   UNL     1      45.018 -11.777   6.742  1.00  0.00     0.001 A 
HETATM   34  C   UNL     1      43.821 -11.620   6.052  1.00  0.00     0.001 A 
HETATM   35  C   UNL     1      42.923 -10.626   6.438  1.00  0.00     0.008 A 
ENDBRANCH  28  29
ENDBRANCH  27  28
ENDBRANCH  26  27
ENDBRANCH   1  26
TORSDOF 7
ENDMDL
MODEL 9
REMARK VINA RESULT:      -8.4     11.340     15.623
REMARK  7 active torsions:
REMARK  status: ('A' for Active; 'I' for Inactive)
REMARK    1  A    between atoms: C_3  and  C_4 
REMARK    2  A    between atoms: C_4  and  S_5 
REMARK    3  A    between atoms: S_5  and  C_6 
REMARK    4  A    between atoms: C_6  and  C_7 
REMARK    5  A    between atoms: C_16  and  C_17 
REMARK       I    between atoms: C_17  and  N_18 
REMARK    6  A    between atoms: N_18  and  C_19 
REMARK    7  A    between atoms: C_19  and  C_20 
ROOT
HETATM    1  C   UNL     1      40.627  -7.429   8.217  1.00  0.00     0.162 C 
HETATM    2  N   UNL     1      40.969  -6.215   9.009  1.00  0.00    -0.277 NA
HETATM    3  C   UNL     1      40.469  -6.209  10.323  1.00  0.00     0.036 A 
HETATM    4  C   UNL     1      39.303  -6.921  10.665  1.00  0.00     0.057 A 
HETATM    5  N   UNL     1      38.659  -7.700   9.696  1.00  0.00    -0.324 N 
HETATM    6  C   UNL     1      39.165  -7.864   8.430  1.00  0.00     0.240 C 
HETATM    7  O   UNL     1      38.493  -8.400   7.550  1.00  0.00    -0.271 OA
HETATM    8  C   UNL     1      41.030  -5.354  11.278  1.00  0.00     0.027 A 
HETATM    9  C   UNL     1      40.495  -5.275  12.570  1.00  0.00     0.019 A 
HETATM   10  C   UNL     1      39.368  -6.032  12.911  1.00  0.00     0.034 A 
HETATM   11  C   UNL     1      38.755  -6.837  11.944  1.00  0.00     0.048 A 
HETATM   12  H   UNL     1      41.946  -5.947   8.949  1.00  0.00     0.128 HD
HETATM   13  H   UNL     1      37.737  -8.078   9.868  1.00  0.00     0.169 HD
ENDROOT
BRANCH  10  14
HETATM   14  C   UNL     1      38.764  -6.001  14.271  1.00  0.00     0.252 C 
HETATM   15  N   UNL     1      39.590  -5.635  15.309  1.00  0.00    -0.353 N 
HETATM   16  H   UNL     1      40.553  -5.377  15.147  1.00  0.00     0.163 HD
HETATM   17  O   UNL     1      37.596  -6.337  14.427  1.00  0.00    -0.268 OA
BRANCH  15  18
HETATM   18  C   UNL     1      39.103  -5.623  16.671  1.00  0.00     0.161 C 
BRANCH  18  19
HETATM   19  C   UNL     1      40.079  -6.272  17.623  1.00  0.00    -0.040 A 
HETATM   20  C   UNL     1      39.788  -7.517  18.198  1.00  0.00     0.010 A 
HETATM   21  C   UNL     1      40.708  -8.139  19.049  1.00  0.00     0.024 A 
HETATM   22  C   UNL     1      41.923  -7.518  19.328  1.00  0.00     0.034 A 
HETATM   23 CL   UNL     1      43.054  -8.284  20.375  1.00  0.00    -0.084 Cl
HETATM   24  C   UNL     1      42.233  -6.286  18.757  1.00  0.00     0.024 A 
HETATM   25  C   UNL     1      41.318  -5.670  17.901  1.00  0.00     0.010 A 
ENDBRANCH  18  19
ENDBRANCH  15  18
ENDBRANCH  10  14
BRANCH   1  26
HETATM   26  C   UNL     1      41.612  -8.565   8.568  1.00  0.00     0.103 C 
BRANCH  26  27
HETATM   27  S   UNL     1      42.838  -8.261   9.890  1.00  0.00    -0.162 SA
BRANCH  27  28
HETATM   28  C   UNL     1      42.276  -9.460  11.141  1.00  0.00     0.112 C 
BRANCH  28  29
HETATM   29  C   UNL     1      42.267  -8.850  12.524  1.00  0.00    -0.043 A 
HETATM   30  C   UNL     1      41.294  -9.183  13.491  1.00  0.00    -0.055 A 
HETATM   31  C   UNL     1      40.205 -10.185  13.213  1.00  0.00     0.049 C 
HETATM   32  C   UNL     1      41.344  -8.574  14.756  1.00  0.00     0.007 A 
HETATM   33  C   UNL     1      42.330  -7.635  15.060  1.00  0.00     0.001 A 
HETATM   34  C   UNL     1      43.279  -7.291  14.104  1.00  0.00     0.001 A 
HETATM   35  C   UNL     1      43.248  -7.892  12.847  1.00  0.00     0.008 A 
ENDBRANCH  28  29
ENDBRANCH  27  28
ENDBRANCH  26  27
ENDBRANCH   1  26
TORSDOF 7
ENDMDL
MODEL 10
REMARK VINA RESULT:      -8.4     12.058     16.795
REMARK  7 active torsions:
REMARK  status: ('A' for Active; 'I' for Inactive)
REMARK    1  A    between atoms: C_3  and  C_4 
REMARK    2  A    between atoms: C_4  and  S_5 
REMARK    3  A    between atoms: S_5  and  C_6 
REMARK    4  A    between atoms: C_6  and  C_7 
REMARK    5  A    between atoms: C_16  and  C_17 
REMARK       I    between atoms: C_17  and  N_18 
REMARK    6  A    between atoms: N_18  and  C_19 
REMARK    7  A    between atoms: C_19  and  C_20 
ROOT
HETATM    1  C   UNL     1      42.686  -9.613   9.939  1.00  0.00     0.162 C 
HETATM    2  N   UNL     1      41.757 -10.186  10.951  1.00  0.00    -0.277 NA
HETATM    3  C   UNL     1      41.711  -9.487  12.171  1.00  0.00     0.036 A 
HETATM    4  C   UNL     1      42.813  -8.738  12.626  1.00  0.00     0.057 A 
HETATM    5  N   UNL     1      43.958  -8.634  11.826  1.00  0.00    -0.324 N 
HETATM    6  C   UNL     1      44.024  -9.176  10.566  1.00  0.00     0.240 C 
HETATM    7  O   UNL     1      45.094  -9.228   9.960  1.00  0.00    -0.271 OA
HETATM    8  C   UNL     1      40.625  -9.663  13.034  1.00  0.00     0.027 A 
HETATM    9  C   UNL     1      40.598  -9.038  14.287  1.00  0.00     0.019 A 
HETATM   10  C   UNL     1      41.678  -8.250  14.703  1.00  0.00     0.034 A 
HETATM   11  C   UNL     1      42.801  -8.123  13.877  1.00  0.00     0.048 A 
HETATM   12  H   UNL     1      40.839 -10.416  10.584  1.00  0.00     0.128 HD
HETATM   13  H   UNL     1      44.815  -8.251  12.199  1.00  0.00     0.169 HD
ENDROOT
BRANCH  10  14
HETATM   14  C   UNL     1      41.700  -7.549  16.016  1.00  0.00     0.252 C 
HETATM   15  N   UNL     1      40.867  -8.039  16.995  1.00  0.00    -0.353 N 
HETATM   16  H   UNL     1      40.289  -8.851  16.834  1.00  0.00     0.163 HD
HETATM   17  O   UNL     1      42.405  -6.558  16.166  1.00  0.00    -0.268 OA
BRANCH  15  18
HETATM   18  C   UNL     1      40.786  -7.393  18.287  1.00  0.00     0.161 C 
BRANCH  18  19
HETATM   19  C   UNL     1      41.101  -8.347  19.413  1.00  0.00    -0.040 A 
HETATM   20  C   UNL     1      40.091  -9.146  19.969  1.00  0.00     0.010 A 
HETATM   21  C   UNL     1      40.387 -10.059  20.986  1.00  0.00     0.024 A 
HETATM   22  C   UNL     1      41.694 -10.180  21.451  1.00  0.00     0.034 A 
HETATM   23 CL   UNL     1      42.057 -11.304  22.702  1.00  0.00    -0.084 Cl
HETATM   24  C   UNL     1      42.711  -9.402  20.903  1.00  0.00     0.024 A 
HETATM   25  C   UNL     1      42.417  -8.496  19.882  1.00  0.00     0.010 A 
ENDBRANCH  18  19
ENDBRANCH  15  18
ENDBRANCH  10  14
BRANCH   1  26
HETATM   26  C   UNL     1      41.993  -8.443   9.209  1.00  0.00     0.103 C 
BRANCH  26  27
HETATM   27  S   UNL     1      40.234  -8.117   9.587  1.00  0.00    -0.162 SA
BRANCH  27  28
HETATM   28  C   UNL     1      40.354  -6.440  10.288  1.00  0.00     0.112 C 
BRANCH  28  29
HETATM   29  C   UNL     1      39.619  -6.339  11.606  1.00  0.00    -0.043 A 
HETATM   30  C   UNL     1      40.129  -5.609  12.701  1.00  0.00    -0.055 A 
HETATM   31  C   UNL     1      41.436  -4.865  12.624  1.00  0.00     0.049 C 
HETATM   32  C   UNL     1      39.394  -5.562  13.898  1.00  0.00     0.007 A 
HETATM   33  C   UNL     1      38.182  -6.241  14.021  1.00  0.00     0.001 A 
HETATM   34  C   UNL     1      37.686  -6.976  12.950  1.00  0.00     0.001 A 
HETATM   35  C   UNL     1      38.399  -7.026  11.753  1.00  0.00     0.008 A 
ENDBRANCH  28  29
ENDBRANCH  27  28
ENDBRANCH  26  27
ENDBRANCH   1  26
TORSDOF 7
ENDMDL
