MODEL 1
REMARK VINA RESULT:      -7.0      0.000      0.000
REMARK  9 active torsions:
REMARK  status: ('A' for Active; 'I' for Inactive)
REMARK    1  A    between atoms: C_2  and  C_3 
REMARK    2  A    between atoms: C_3  and  O_4 
REMARK    3  A    between atoms: C_3  and  C_5 
REMARK    4  A    between atoms: C_5  and  N_6 
REMARK    5  A    between atoms: N_6  and  C_8 
REMARK    6  A    between atoms: N_6  and  C_21 
REMARK    7  A    between atoms: C_8  and  C_9 
REMARK    8  A    between atoms: C_10  and  C_11 
REMARK    9  A    between atoms: C_21  and  C_22 
ROOT
HETATM    1  N   UNL     1      41.116 -13.607   5.129  1.00  0.00    -0.061 N 
HETATM    2  H   UNL     1      41.850 -13.864   4.466  1.00  0.00     0.280 HD
ENDROOT
BRANCH   1   3
HETATM    3  C   UNL     1      41.630 -12.359   5.837  1.00  0.00     0.267 C 
BRANCH   3   4
HETATM    4  C   UNL     1      43.162 -12.360   6.052  1.00  0.00     0.143 C 
BRANCH   4   5
HETATM    5  C   UNL     1      43.806 -11.273   5.179  1.00  0.00     0.029 C 
HETATM    6  C   UNL     1      43.680 -11.546   3.686  1.00  0.00     0.007 C 
ENDBRANCH   4   5
BRANCH   4   7
HETATM    7  O   UNL     1      43.440 -12.107   7.428  1.00  0.00    -0.394 OA
HETATM    8  H   UNL     1      42.664 -11.681   7.838  1.00  0.00     0.210 HD
ENDBRANCH   4   7
ENDBRANCH   3   4
ENDBRANCH   1   3
BRANCH   1   9
HETATM    9  C   UNL     1      40.935 -14.847   5.983  1.00  0.00     0.277 C 
BRANCH   9  10
HETATM   10  C   UNL     1      42.123 -15.598   6.478  1.00  0.00     0.016 A 
HETATM   11  C   UNL     1      43.099 -16.239   5.640  1.00  0.00     0.096 A 
HETATM   12  N   UNL     1      44.013 -16.886   6.373  1.00  0.00    -0.174 NA
HETATM   13  N   UNL     1      43.699 -16.614   7.638  1.00  0.00    -0.288 N 
HETATM   14  H   UNL     1      44.300 -16.982   8.371  1.00  0.00     0.188 HD
HETATM   15  C   UNL     1      42.560 -15.871   7.761  1.00  0.00     0.120 A 
BRANCH  11  16
HETATM   16  C   UNL     1      43.156 -16.293   4.180  1.00  0.00    -0.005 A 
HETATM   17  C   UNL     1      42.957 -17.496   3.491  1.00  0.00     0.014 A 
HETATM   18  C   UNL     1      43.031 -17.530   2.096  1.00  0.00     0.001 A 
HETATM   19  C   UNL     1      43.291 -16.362   1.381  1.00  0.00     0.000 A 
HETATM   20  C   UNL     1      43.469 -15.156   2.056  1.00  0.00     0.001 A 
HETATM   21  C   UNL     1      43.399 -15.121   3.450  1.00  0.00     0.014 A 
ENDBRANCH  11  16
ENDBRANCH   9  10
ENDBRANCH   1   9
BRANCH   1  22
HETATM   22  C   UNL     1      39.886 -13.346   4.282  1.00  0.00     0.273 C 
BRANCH  22  23
HETATM   23  C   UNL     1      40.006 -13.885   2.881  1.00  0.00    -0.033 A 
HETATM   24  C   UNL     1      40.356 -13.043   1.813  1.00  0.00     0.009 A 
HETATM   25  C   UNL     1      40.433 -13.545   0.514  1.00  0.00     0.001 A 
HETATM   26  C   UNL     1      40.168 -14.891   0.267  1.00  0.00     0.000 A 
HETATM   27  C   UNL     1      39.831 -15.739   1.319  1.00  0.00     0.001 A 
HETATM   28  C   UNL     1      39.752 -15.241   2.620  1.00  0.00     0.009 A 
ENDBRANCH  22  23
ENDBRANCH   1  22
TORSDOF 9
ENDMDL
MODEL 2
REMARK VINA RESULT:      -6.9      1.805      4.381
REMARK  9 active torsions:
REMARK  status: ('A' for Active; 'I' for Inactive)
REMARK    1  A    between atoms: C_2  and  C_3 
REMARK    2  A    between atoms: C_3  and  O_4 
REMARK    3  A    between atoms: C_3  and  C_5 
REMARK    4  A    between atoms: C_5  and  N_6 
REMARK    5  A    between atoms: N_6  and  C_8 
REMARK    6  A    between atoms: N_6  and  C_21 
REMARK    7  A    between atoms: C_8  and  C_9 
REMARK    8  A    between atoms: C_10  and  C_11 
REMARK    9  A    between atoms: C_21  and  C_22 
ROOT
HETATM    1  N   UNL     1      42.840 -14.786   7.154  1.00  0.00    -0.061 N 
HETATM    2  H   UNL     1      42.624 -14.203   7.965  1.00  0.00     0.280 HD
ENDROOT
BRANCH   1   3
HETATM    3  C   UNL     1      43.686 -13.907   6.241  1.00  0.00     0.267 C 
BRANCH   3   4
HETATM    4  C   UNL     1      44.294 -12.678   6.958  1.00  0.00     0.143 C 
BRANCH   4   5
HETATM    5  C   UNL     1      44.244 -11.459   6.024  1.00  0.00     0.029 C 
HETATM    6  C   UNL     1      42.905 -11.294   5.319  1.00  0.00     0.007 C 
ENDBRANCH   4   5
BRANCH   4   7
HETATM    7  O   UNL     1      43.548 -12.414   8.144  1.00  0.00    -0.394 OA
HETATM    8  H   UNL     1      42.936 -11.672   7.979  1.00  0.00     0.210 HD
ENDBRANCH   4   7
ENDBRANCH   3   4
ENDBRANCH   1   3
BRANCH   1   9
HETATM    9  C   UNL     1      41.482 -15.206   6.624  1.00  0.00     0.277 C 
BRANCH   9  10
HETATM   10  C   UNL     1      40.695 -14.281   5.761  1.00  0.00     0.016 A 
HETATM   11  C   UNL     1      40.759 -14.239   4.326  1.00  0.00     0.096 A 
HETATM   12  N   UNL     1      39.986 -13.262   3.837  1.00  0.00    -0.174 NA
HETATM   13  N   UNL     1      39.376 -12.738   4.899  1.00  0.00    -0.288 N 
HETATM   14  H   UNL     1      38.703 -11.992   4.745  1.00  0.00     0.188 HD
HETATM   15  C   UNL     1      39.785 -13.289   6.079  1.00  0.00     0.120 A 
BRANCH  11  16
HETATM   16  C   UNL     1      41.563 -15.061   3.423  1.00  0.00    -0.005 A 
HETATM   17  C   UNL     1      41.275 -16.418   3.229  1.00  0.00     0.014 A 
HETATM   18  C   UNL     1      42.064 -17.191   2.375  1.00  0.00     0.001 A 
HETATM   19  C   UNL     1      43.138 -16.612   1.699  1.00  0.00     0.000 A 
HETATM   20  C   UNL     1      43.420 -15.258   1.869  1.00  0.00     0.001 A 
HETATM   21  C   UNL     1      42.634 -14.485   2.726  1.00  0.00     0.014 A 
ENDBRANCH  11  16
ENDBRANCH   9  10
ENDBRANCH   1   9
BRANCH   1  22
HETATM   22  C   UNL     1      43.599 -15.976   7.706  1.00  0.00     0.273 C 
BRANCH  22  23
HETATM   23  C   UNL     1      43.772 -17.086   6.704  1.00  0.00    -0.033 A 
HETATM   24  C   UNL     1      43.242 -18.363   6.945  1.00  0.00     0.009 A 
HETATM   25  C   UNL     1      43.436 -19.394   6.024  1.00  0.00     0.001 A 
HETATM   26  C   UNL     1      44.153 -19.160   4.853  1.00  0.00     0.000 A 
HETATM   27  C   UNL     1      44.674 -17.894   4.596  1.00  0.00     0.001 A 
HETATM   28  C   UNL     1      44.484 -16.861   5.515  1.00  0.00     0.009 A 
ENDBRANCH  22  23
ENDBRANCH   1  22
TORSDOF 9
ENDMDL
MODEL 3
REMARK VINA RESULT:      -6.9      2.050      5.426
REMARK  9 active torsions:
REMARK  status: ('A' for Active; 'I' for Inactive)
REMARK    1  A    between atoms: C_2  and  C_3 
REMARK    2  A    between atoms: C_3  and  O_4 
REMARK    3  A    between atoms: C_3  and  C_5 
REMARK    4  A    between atoms: C_5  and  N_6 
REMARK    5  A    between atoms: N_6  and  C_8 
REMARK    6  A    between atoms: N_6  and  C_21 
REMARK    7  A    between atoms: C_8  and  C_9 
REMARK    8  A    between atoms: C_10  and  C_11 
REMARK    9  A    between atoms: C_21  and  C_22 
ROOT
HETATM    1  N   UNL     1      42.385 -16.193   4.589  1.00  0.00    -0.061 N 
HETATM    2  H   UNL     1      42.322 -17.032   5.170  1.00  0.00     0.280 HD
ENDROOT
BRANCH   1   3
HETATM    3  C   UNL     1      43.156 -15.181   5.428  1.00  0.00     0.267 C 
BRANCH   3   4
HETATM    4  C   UNL     1      42.435 -14.790   6.740  1.00  0.00     0.143 C 
BRANCH   4   5
HETATM    5  C   UNL     1      42.891 -15.717   7.876  1.00  0.00     0.029 C 
HETATM    6  C   UNL     1      44.007 -16.669   7.466  1.00  0.00     0.007 C 
ENDBRANCH   4   5
BRANCH   4   7
HETATM    7  O   UNL     1      42.750 -13.437   7.060  1.00  0.00    -0.394 OA
HETATM    8  H   UNL     1      43.700 -13.371   7.274  1.00  0.00     0.210 HD
ENDBRANCH   4   7
ENDBRANCH   3   4
ENDBRANCH   1   3
BRANCH   1   9
HETATM    9  C   UNL     1      40.942 -15.852   4.268  1.00  0.00     0.277 C 
BRANCH   9  10
HETATM   10  C   UNL     1      40.578 -15.321   2.925  1.00  0.00     0.016 A 
HETATM   11  C   UNL     1      40.888 -14.000   2.450  1.00  0.00     0.096 A 
HETATM   12  N   UNL     1      40.376 -13.794   1.231  1.00  0.00    -0.174 NA
HETATM   13  N   UNL     1      39.823 -14.955   0.885  1.00  0.00    -0.288 N 
HETATM   14  H   UNL     1      39.403 -15.031  -0.037  1.00  0.00     0.188 HD
HETATM   15  C   UNL     1      39.889 -15.896   1.873  1.00  0.00     0.120 A 
BRANCH  11  16
HETATM   16  C   UNL     1      41.608 -12.928   3.136  1.00  0.00    -0.005 A 
HETATM   17  C   UNL     1      42.957 -12.669   2.859  1.00  0.00     0.014 A 
HETATM   18  C   UNL     1      43.631 -11.650   3.536  1.00  0.00     0.001 A 
HETATM   19  C   UNL     1      42.961 -10.876   4.484  1.00  0.00     0.000 A 
HETATM   20  C   UNL     1      41.614 -11.113   4.750  1.00  0.00     0.001 A 
HETATM   21  C   UNL     1      40.939 -12.133   4.077  1.00  0.00     0.014 A 
ENDBRANCH  11  16
ENDBRANCH   9  10
ENDBRANCH   1   9
BRANCH   1  22
HETATM   22  C   UNL     1      43.132 -16.625   3.343  1.00  0.00     0.273 C 
BRANCH  22  23
HETATM   23  C   UNL     1      43.401 -18.106   3.295  1.00  0.00    -0.033 A 
HETATM   24  C   UNL     1      43.083 -18.859   2.154  1.00  0.00     0.009 A 
HETATM   25  C   UNL     1      43.306 -20.236   2.133  1.00  0.00     0.001 A 
HETATM   26  C   UNL     1      43.853 -20.874   3.244  1.00  0.00     0.000 A 
HETATM   27  C   UNL     1      44.184 -20.136   4.378  1.00  0.00     0.001 A 
HETATM   28  C   UNL     1      43.961 -18.759   4.405  1.00  0.00     0.009 A 
ENDBRANCH  22  23
ENDBRANCH   1  22
TORSDOF 9
ENDMDL
MODEL 4
REMARK VINA RESULT:      -6.8      1.806      4.453
REMARK  9 active torsions:
REMARK  status: ('A' for Active; 'I' for Inactive)
REMARK    1  A    between atoms: C_2  and  C_3 
REMARK    2  A    between atoms: C_3  and  O_4 
REMARK    3  A    between atoms: C_3  and  C_5 
REMARK    4  A    between atoms: C_5  and  N_6 
REMARK    5  A    between atoms: N_6  and  C_8 
REMARK    6  A    between atoms: N_6  and  C_21 
REMARK    7  A    between atoms: C_8  and  C_9 
REMARK    8  A    between atoms: C_10  and  C_11 
REMARK    9  A    between atoms: C_21  and  C_22 
ROOT
HETATM    1  N   UNL     1      42.314 -13.016   5.419  1.00  0.00    -0.061 N 
HETATM    2  H   UNL     1      42.654 -13.881   5.845  1.00  0.00     0.280 HD
ENDROOT
BRANCH   1   3
HETATM    3  C   UNL     1      42.830 -11.895   6.314  1.00  0.00     0.267 C 
BRANCH   3   4
HETATM    4  C   UNL     1      44.099 -12.277   7.111  1.00  0.00     0.143 C 
BRANCH   4   5
HETATM    5  C   UNL     1      45.314 -11.536   6.532  1.00  0.00     0.029 C 
HETATM    6  C   UNL     1      46.065 -10.709   7.567  1.00  0.00     0.007 C 
ENDBRANCH   4   5
BRANCH   4   7
HETATM    7  O   UNL     1      43.917 -11.919   8.479  1.00  0.00    -0.394 OA
HETATM    8  H   UNL     1      44.346 -11.058   8.644  1.00  0.00     0.210 HD
ENDBRANCH   4   7
ENDBRANCH   3   4
ENDBRANCH   1   3
BRANCH   1   9
HETATM    9  C   UNL     1      40.809 -13.198   5.357  1.00  0.00     0.277 C 
BRANCH   9  10
HETATM   10  C   UNL     1      39.957 -12.179   4.682  1.00  0.00     0.016 A 
HETATM   11  C   UNL     1      39.452 -12.286   3.341  1.00  0.00     0.096 A 
HETATM   12  N   UNL     1      38.772 -11.187   2.993  1.00  0.00    -0.174 NA
HETATM   13  N   UNL     1      38.761 -10.425   4.085  1.00  0.00    -0.288 N 
HETATM   14  H   UNL     1      38.256  -9.543   4.050  1.00  0.00     0.188 HD
HETATM   15  C   UNL     1      39.481 -10.956   5.118  1.00  0.00     0.120 A 
BRANCH  11  16
HETATM   16  C   UNL     1      39.637 -13.372   2.379  1.00  0.00    -0.005 A 
HETATM   17  C   UNL     1      39.563 -14.713   2.777  1.00  0.00     0.014 A 
HETATM   18  C   UNL     1      39.758 -15.736   1.846  1.00  0.00     0.001 A 
HETATM   19  C   UNL     1      40.016 -15.427   0.511  1.00  0.00     0.000 A 
HETATM   20  C   UNL     1      40.070 -14.096   0.102  1.00  0.00     0.001 A 
HETATM   21  C   UNL     1      39.879 -13.072   1.032  1.00  0.00     0.014 A 
ENDBRANCH  11  16
ENDBRANCH   9  10
ENDBRANCH   1   9
BRANCH   1  22
HETATM   22  C   UNL     1      42.916 -12.992   4.028  1.00  0.00     0.273 C 
BRANCH  22  23
HETATM   23  C   UNL     1      43.046 -14.361   3.414  1.00  0.00    -0.033 A 
HETATM   24  C   UNL     1      42.934 -15.517   4.203  1.00  0.00     0.009 A 
HETATM   25  C   UNL     1      43.088 -16.780   3.630  1.00  0.00     0.001 A 
HETATM   26  C   UNL     1      43.348 -16.904   2.267  1.00  0.00     0.000 A 
HETATM   27  C   UNL     1      43.450 -15.765   1.472  1.00  0.00     0.001 A 
HETATM   28  C   UNL     1      43.299 -14.499   2.040  1.00  0.00     0.009 A 
ENDBRANCH  22  23
ENDBRANCH   1  22
TORSDOF 9
ENDMDL
MODEL 5
REMARK VINA RESULT:      -6.8      2.226      4.006
REMARK  9 active torsions:
REMARK  status: ('A' for Active; 'I' for Inactive)
REMARK    1  A    between atoms: C_2  and  C_3 
REMARK    2  A    between atoms: C_3  and  O_4 
REMARK    3  A    between atoms: C_3  and  C_5 
REMARK    4  A    between atoms: C_5  and  N_6 
REMARK    5  A    between atoms: N_6  and  C_8 
REMARK    6  A    between atoms: N_6  and  C_21 
REMARK    7  A    between atoms: C_8  and  C_9 
REMARK    8  A    between atoms: C_10  and  C_11 
REMARK    9  A    between atoms: C_21  and  C_22 
ROOT
HETATM    1  N   UNL     1      41.239 -12.436   3.838  1.00  0.00    -0.061 N 
HETATM    2  H   UNL     1      42.221 -12.603   3.612  1.00  0.00     0.280 HD
ENDROOT
BRANCH   1   3
HETATM    3  C   UNL     1      40.793 -11.325   2.894  1.00  0.00     0.267 C 
BRANCH   3   4
HETATM    4  C   UNL     1      41.591 -11.284   1.569  1.00  0.00     0.143 C 
BRANCH   4   5
HETATM    5  C   UNL     1      40.644 -11.549   0.389  1.00  0.00     0.029 C 
HETATM    6  C   UNL     1      40.688 -12.987  -0.110  1.00  0.00     0.007 C 
ENDBRANCH   4   5
BRANCH   4   7
HETATM    7  O   UNL     1      42.197 -10.001   1.429  1.00  0.00    -0.394 OA
HETATM    8  H   UNL     1      43.166 -10.107   1.396  1.00  0.00     0.210 HD
ENDBRANCH   4   7
ENDBRANCH   3   4
ENDBRANCH   1   3
BRANCH   1   9
HETATM    9  C   UNL     1      41.247 -12.105   5.318  1.00  0.00     0.277 C 
BRANCH   9  10
HETATM   10  C   UNL     1      42.538 -11.928   6.040  1.00  0.00     0.016 A 
HETATM   11  C   UNL     1      43.366 -13.000   6.522  1.00  0.00     0.096 A 
HETATM   12  N   UNL     1      44.428 -12.528   7.185  1.00  0.00    -0.174 NA
HETATM   13  N   UNL     1      44.346 -11.203   7.074  1.00  0.00    -0.288 N 
HETATM   14  H   UNL     1      45.088 -10.640   7.482  1.00  0.00     0.188 HD
HETATM   15  C   UNL     1      43.219 -10.787   6.424  1.00  0.00     0.120 A 
BRANCH  11  16
HETATM   16  C   UNL     1      43.150 -14.442   6.411  1.00  0.00    -0.005 A 
HETATM   17  C   UNL     1      41.946 -15.027   6.821  1.00  0.00     0.014 A 
HETATM   18  C   UNL     1      41.765 -16.409   6.722  1.00  0.00     0.001 A 
HETATM   19  C   UNL     1      42.779 -17.212   6.201  1.00  0.00     0.000 A 
HETATM   20  C   UNL     1      43.972 -16.636   5.771  1.00  0.00     0.001 A 
HETATM   21  C   UNL     1      44.156 -15.255   5.873  1.00  0.00     0.014 A 
ENDBRANCH  11  16
ENDBRANCH   9  10
ENDBRANCH   1   9
BRANCH   1  22
HETATM   22  C   UNL     1      40.538 -13.754   3.578  1.00  0.00     0.273 C 
BRANCH  22  23
HETATM   23  C   UNL     1      41.461 -14.824   3.057  1.00  0.00    -0.033 A 
HETATM   24  C   UNL     1      42.725 -14.496   2.542  1.00  0.00     0.009 A 
HETATM   25  C   UNL     1      43.560 -15.491   2.032  1.00  0.00     0.001 A 
HETATM   26  C   UNL     1      43.146 -16.822   2.037  1.00  0.00     0.000 A 
HETATM   27  C   UNL     1      41.900 -17.161   2.557  1.00  0.00     0.001 A 
HETATM   28  C   UNL     1      41.061 -16.170   3.066  1.00  0.00     0.009 A 
ENDBRANCH  22  23
ENDBRANCH   1  22
TORSDOF 9
ENDMDL
MODEL 6
REMARK VINA RESULT:      -6.7      2.126      5.652
REMARK  9 active torsions:
REMARK  status: ('A' for Active; 'I' for Inactive)
REMARK    1  A    between atoms: C_2  and  C_3 
REMARK    2  A    between atoms: C_3  and  O_4 
REMARK    3  A    between atoms: C_3  and  C_5 
REMARK    4  A    between atoms: C_5  and  N_6 
REMARK    5  A    between atoms: N_6  and  C_8 
REMARK    6  A    between atoms: N_6  and  C_21 
REMARK    7  A    between atoms: C_8  and  C_9 
REMARK    8  A    between atoms: C_10  and  C_11 
REMARK    9  A    between atoms: C_21  and  C_22 
ROOT
HETATM    1  N   UNL     1      42.510 -16.209   4.844  1.00  0.00    -0.061 N 
HETATM    2  H   UNL     1      41.853 -16.930   4.538  1.00  0.00     0.280 HD
ENDROOT
BRANCH   1   3
HETATM    3  C   UNL     1      42.074 -15.840   6.257  1.00  0.00     0.267 C 
BRANCH   3   4
HETATM    4  C   UNL     1      43.241 -15.382   7.163  1.00  0.00     0.143 C 
BRANCH   4   5
HETATM    5  C   UNL     1      43.213 -13.853   7.307  1.00  0.00     0.029 C 
HETATM    6  C   UNL     1      44.188 -13.142   6.377  1.00  0.00     0.007 C 
ENDBRANCH   4   5
BRANCH   4   7
HETATM    7  O   UNL     1      43.105 -15.994   8.444  1.00  0.00    -0.394 OA
HETATM    8  H   UNL     1      42.264 -16.488   8.475  1.00  0.00     0.210 HD
ENDBRANCH   4   7
ENDBRANCH   3   4
ENDBRANCH   1   3
BRANCH   1   9
HETATM    9  C   UNL     1      42.390 -15.124   3.791  1.00  0.00     0.277 C 
BRANCH   9  10
HETATM   10  C   UNL     1      41.049 -14.701   3.299  1.00  0.00     0.016 A 
HETATM   11  C   UNL     1      40.443 -13.423   3.556  1.00  0.00     0.096 A 
HETATM   12  N   UNL     1      39.211 -13.361   3.038  1.00  0.00    -0.174 NA
HETATM   13  N   UNL     1      39.044 -14.517   2.398  1.00  0.00    -0.288 N 
HETATM   14  H   UNL     1      38.174 -14.665   1.893  1.00  0.00     0.188 HD
HETATM   15  C   UNL     1      40.101 -15.370   2.546  1.00  0.00     0.120 A 
BRANCH  11  16
HETATM   16  C   UNL     1      40.981 -12.293   4.312  1.00  0.00    -0.005 A 
HETATM   17  C   UNL     1      40.522 -12.003   5.604  1.00  0.00     0.014 A 
HETATM   18  C   UNL     1      41.037 -10.909   6.304  1.00  0.00     0.001 A 
HETATM   19  C   UNL     1      42.019 -10.106   5.725  1.00  0.00     0.000 A 
HETATM   20  C   UNL     1      42.496 -10.400   4.449  1.00  0.00     0.001 A 
HETATM   21  C   UNL     1      41.980 -11.491   3.746  1.00  0.00     0.014 A 
ENDBRANCH  11  16
ENDBRANCH   9  10
ENDBRANCH   1   9
BRANCH   1  22
HETATM   22  C   UNL     1      43.875 -16.866   4.795  1.00  0.00     0.273 C 
BRANCH  22  23
HETATM   23  C   UNL     1      43.835 -18.279   4.273  1.00  0.00    -0.033 A 
HETATM   24  C   UNL     1      44.055 -19.369   5.130  1.00  0.00     0.009 A 
HETATM   25  C   UNL     1      44.048 -20.672   4.631  1.00  0.00     0.001 A 
HETATM   26  C   UNL     1      43.815 -20.901   3.276  1.00  0.00     0.000 A 
HETATM   27  C   UNL     1      43.584 -19.828   2.418  1.00  0.00     0.001 A 
HETATM   28  C   UNL     1      43.592 -18.524   2.913  1.00  0.00     0.009 A 
ENDBRANCH  22  23
ENDBRANCH   1  22
TORSDOF 9
ENDMDL
MODEL 7
REMARK VINA RESULT:      -6.7      2.099      5.242
REMARK  9 active torsions:
REMARK  status: ('A' for Active; 'I' for Inactive)
REMARK    1  A    between atoms: C_2  and  C_3 
REMARK    2  A    between atoms: C_3  and  O_4 
REMARK    3  A    between atoms: C_3  and  C_5 
REMARK    4  A    between atoms: C_5  and  N_6 
REMARK    5  A    between atoms: N_6  and  C_8 
REMARK    6  A    between atoms: N_6  and  C_21 
REMARK    7  A    between atoms: C_8  and  C_9 
REMARK    8  A    between atoms: C_10  and  C_11 
REMARK    9  A    between atoms: C_21  and  C_22 
ROOT
HETATM    1  N   UNL     1      41.819 -12.519   4.104  1.00  0.00    -0.061 N 
HETATM    2  H   UNL     1      41.164 -13.206   3.726  1.00  0.00     0.280 HD
ENDROOT
BRANCH   1   3
HETATM    3  C   UNL     1      41.606 -12.548   5.613  1.00  0.00     0.267 C 
BRANCH   3   4
HETATM    4  C   UNL     1      40.399 -13.412   6.049  1.00  0.00     0.143 C 
BRANCH   4   5
HETATM    5  C   UNL     1      40.902 -14.718   6.684  1.00  0.00     0.029 C 
HETATM    6  C   UNL     1      40.098 -15.941   6.264  1.00  0.00     0.007 C 
ENDBRANCH   4   5
BRANCH   4   7
HETATM    7  O   UNL     1      39.619 -12.681   6.993  1.00  0.00    -0.394 OA
HETATM    8  H   UNL     1      38.716 -13.052   7.017  1.00  0.00     0.210 HD
ENDBRANCH   4   7
ENDBRANCH   3   4
ENDBRANCH   1   3
BRANCH   1   9
HETATM    9  C   UNL     1      41.459 -11.228   3.393  1.00  0.00     0.277 C 
BRANCH   9  10
HETATM   10  C   UNL     1      40.043 -10.940   3.032  1.00  0.00     0.016 A 
HETATM   11  C   UNL     1      39.179 -11.834   2.310  1.00  0.00     0.096 A 
HETATM   12  N   UNL     1      37.986 -11.271   2.082  1.00  0.00    -0.174 NA
HETATM   13  N   UNL     1      38.035 -10.091   2.698  1.00  0.00    -0.288 N 
HETATM   14  H   UNL     1      37.204  -9.506   2.681  1.00  0.00     0.188 HD
HETATM   15  C   UNL     1      39.253  -9.828   3.258  1.00  0.00     0.120 A 
BRANCH  11  16
HETATM   16  C   UNL     1      39.471 -13.171   1.798  1.00  0.00    -0.005 A 
HETATM   17  C   UNL     1      39.787 -13.376   0.448  1.00  0.00     0.014 A 
HETATM   18  C   UNL     1      40.047 -14.664  -0.026  1.00  0.00     0.001 A 
HETATM   19  C   UNL     1      40.006 -15.753   0.845  1.00  0.00     0.000 A 
HETATM   20  C   UNL     1      39.714 -15.555   2.193  1.00  0.00     0.001 A 
HETATM   21  C   UNL     1      39.450 -14.269   2.668  1.00  0.00     0.014 A 
ENDBRANCH  11  16
ENDBRANCH   9  10
ENDBRANCH   1   9
BRANCH   1  22
HETATM   22  C   UNL     1      43.193 -13.005   3.688  1.00  0.00     0.273 C 
BRANCH  22  23
HETATM   23  C   UNL     1      43.192 -14.425   3.185  1.00  0.00    -0.033 A 
HETATM   24  C   UNL     1      43.033 -15.502   4.071  1.00  0.00     0.009 A 
HETATM   25  C   UNL     1      43.065 -16.815   3.599  1.00  0.00     0.001 A 
HETATM   26  C   UNL     1      43.252 -17.066   2.242  1.00  0.00     0.000 A 
HETATM   27  C   UNL     1      43.400 -16.006   1.351  1.00  0.00     0.001 A 
HETATM   28  C   UNL     1      43.369 -14.691   1.818  1.00  0.00     0.009 A 
ENDBRANCH  22  23
ENDBRANCH   1  22
TORSDOF 9
ENDMDL
MODEL 8
REMARK VINA RESULT:      -6.7      0.865      1.739
REMARK  9 active torsions:
REMARK  status: ('A' for Active; 'I' for Inactive)
REMARK    1  A    between atoms: C_2  and  C_3 
REMARK    2  A    between atoms: C_3  and  O_4 
REMARK    3  A    between atoms: C_3  and  C_5 
REMARK    4  A    between atoms: C_5  and  N_6 
REMARK    5  A    between atoms: N_6  and  C_8 
REMARK    6  A    between atoms: N_6  and  C_21 
REMARK    7  A    between atoms: C_8  and  C_9 
REMARK    8  A    between atoms: C_10  and  C_11 
REMARK    9  A    between atoms: C_21  and  C_22 
ROOT
HETATM    1  N   UNL     1      41.217 -13.446   5.208  1.00  0.00    -0.061 N 
HETATM    2  H   UNL     1      41.966 -13.670   4.550  1.00  0.00     0.280 HD
ENDROOT
BRANCH   1   3
HETATM    3  C   UNL     1      41.726 -12.249   6.004  1.00  0.00     0.267 C 
BRANCH   3   4
HETATM    4  C   UNL     1      43.137 -11.780   5.579  1.00  0.00     0.143 C 
BRANCH   4   5
HETATM    5  C   UNL     1      44.198 -12.524   6.405  1.00  0.00     0.029 C 
HETATM    6  C   UNL     1      45.151 -11.592   7.142  1.00  0.00     0.007 C 
ENDBRANCH   4   5
BRANCH   4   7
HETATM    7  O   UNL     1      43.321 -12.053   4.192  1.00  0.00    -0.394 OA
HETATM    8  H   UNL     1      42.851 -12.877   3.963  1.00  0.00     0.210 HD
ENDBRANCH   4   7
ENDBRANCH   3   4
ENDBRANCH   1   3
BRANCH   1   9
HETATM    9  C   UNL     1      41.000 -14.733   5.981  1.00  0.00     0.277 C 
BRANCH   9  10
HETATM   10  C   UNL     1      42.166 -15.494   6.512  1.00  0.00     0.016 A 
HETATM   11  C   UNL     1      43.123 -16.201   5.708  1.00  0.00     0.096 A 
HETATM   12  N   UNL     1      44.017 -16.840   6.472  1.00  0.00    -0.174 NA
HETATM   13  N   UNL     1      43.710 -16.501   7.723  1.00  0.00    -0.288 N 
HETATM   14  H   UNL     1      44.298 -16.852   8.474  1.00  0.00     0.188 HD
HETATM   15  C   UNL     1      42.592 -15.720   7.809  1.00  0.00     0.120 A 
BRANCH  11  16
HETATM   16  C   UNL     1      43.181 -16.324   4.252  1.00  0.00    -0.005 A 
HETATM   17  C   UNL     1      43.421 -15.207   3.440  1.00  0.00     0.014 A 
HETATM   18  C   UNL     1      43.457 -15.342   2.050  1.00  0.00     0.001 A 
HETATM   19  C   UNL     1      43.266 -16.592   1.463  1.00  0.00     0.000 A 
HETATM   20  C   UNL     1      43.048 -17.712   2.263  1.00  0.00     0.001 A 
HETATM   21  C   UNL     1      43.008 -17.579   3.653  1.00  0.00     0.014 A 
ENDBRANCH  11  16
ENDBRANCH   9  10
ENDBRANCH   1   9
BRANCH   1  22
HETATM   22  C   UNL     1      40.013 -13.119   4.347  1.00  0.00     0.273 C 
BRANCH  22  23
HETATM   23  C   UNL     1      40.085 -13.728   2.971  1.00  0.00    -0.033 A 
HETATM   24  C   UNL     1      39.751 -15.075   2.762  1.00  0.00     0.009 A 
HETATM   25  C   UNL     1      39.852 -15.638   1.489  1.00  0.00     0.001 A 
HETATM   26  C   UNL     1      40.281 -14.863   0.413  1.00  0.00     0.000 A 
HETATM   27  C   UNL     1      40.605 -13.522   0.606  1.00  0.00     0.001 A 
HETATM   28  C   UNL     1      40.507 -12.955   1.877  1.00  0.00     0.009 A 
ENDBRANCH  22  23
ENDBRANCH   1  22
TORSDOF 9
ENDMDL
MODEL 9
REMARK VINA RESULT:      -6.6      1.786      2.702
REMARK  9 active torsions:
REMARK  status: ('A' for Active; 'I' for Inactive)
REMARK    1  A    between atoms: C_2  and  C_3 
REMARK    2  A    between atoms: C_3  and  O_4 
REMARK    3  A    between atoms: C_3  and  C_5 
REMARK    4  A    between atoms: C_5  and  N_6 
REMARK    5  A    between atoms: N_6  and  C_8 
REMARK    6  A    between atoms: N_6  and  C_21 
REMARK    7  A    between atoms: C_8  and  C_9 
REMARK    8  A    between atoms: C_10  and  C_11 
REMARK    9  A    between atoms: C_21  and  C_22 
ROOT
HETATM    1  N   UNL     1      43.227 -12.934   5.846  1.00  0.00    -0.061 N 
HETATM    2  H   UNL     1      43.509 -13.406   4.985  1.00  0.00     0.280 HD
ENDROOT
BRANCH   1   3
HETATM    3  C   UNL     1      44.526 -12.633   6.585  1.00  0.00     0.267 C 
BRANCH   3   4
HETATM    4  C   UNL     1      44.948 -11.147   6.512  1.00  0.00     0.143 C 
BRANCH   4   5
HETATM    5  C   UNL     1      45.342 -10.653   7.912  1.00  0.00     0.029 C 
HETATM    6  C   UNL     1      46.364  -9.524   7.888  1.00  0.00     0.007 C 
ENDBRANCH   4   5
BRANCH   4   7
HETATM    7  O   UNL     1      46.054 -11.019   5.621  1.00  0.00    -0.394 OA
HETATM    8  H   UNL     1      46.212 -11.876   5.182  1.00  0.00     0.210 HD
ENDBRANCH   4   7
ENDBRANCH   3   4
ENDBRANCH   1   3
BRANCH   1   9
HETATM    9  C   UNL     1      42.277 -13.911   6.513  1.00  0.00     0.277 C 
BRANCH   9  10
HETATM   10  C   UNL     1      42.645 -15.349   6.636  1.00  0.00     0.016 A 
HETATM   11  C   UNL     1      42.639 -16.296   5.555  1.00  0.00     0.096 A 
HETATM   12  N   UNL     1      42.955 -17.523   5.987  1.00  0.00    -0.174 NA
HETATM   13  N   UNL     1      43.236 -17.374   7.281  1.00  0.00    -0.288 N 
HETATM   14  H   UNL     1      43.541 -18.191   7.803  1.00  0.00     0.188 HD
HETATM   15  C   UNL     1      43.038 -16.099   7.730  1.00  0.00     0.120 A 
BRANCH  11  16
HETATM   16  C   UNL     1      42.299 -16.077   4.150  1.00  0.00    -0.005 A 
HETATM   17  C   UNL     1      43.289 -15.781   3.203  1.00  0.00     0.014 A 
HETATM   18  C   UNL     1      42.942 -15.559   1.868  1.00  0.00     0.001 A 
HETATM   19  C   UNL     1      41.609 -15.644   1.468  1.00  0.00     0.000 A 
HETATM   20  C   UNL     1      40.621 -15.958   2.399  1.00  0.00     0.001 A 
HETATM   21  C   UNL     1      40.965 -16.177   3.734  1.00  0.00     0.014 A 
ENDBRANCH  11  16
ENDBRANCH   9  10
ENDBRANCH   1   9
BRANCH   1  22
HETATM   22  C   UNL     1      42.495 -11.684   5.397  1.00  0.00     0.273 C 
BRANCH  22  23
HETATM   23  C   UNL     1      41.744 -11.870   4.105  1.00  0.00    -0.033 A 
HETATM   24  C   UNL     1      40.369 -12.153   4.106  1.00  0.00     0.009 A 
HETATM   25  C   UNL     1      39.688 -12.355   2.905  1.00  0.00     0.001 A 
HETATM   26  C   UNL     1      40.369 -12.270   1.692  1.00  0.00     0.000 A 
HETATM   27  C   UNL     1      41.731 -11.978   1.677  1.00  0.00     0.001 A 
HETATM   28  C   UNL     1      42.416 -11.777   2.876  1.00  0.00     0.009 A 
ENDBRANCH  22  23
ENDBRANCH   1  22
TORSDOF 9
ENDMDL
MODEL 10
REMARK VINA RESULT:      -6.6      2.020      5.329
REMARK  9 active torsions:
REMARK  status: ('A' for Active; 'I' for Inactive)
REMARK    1  A    between atoms: C_2  and  C_3 
REMARK    2  A    between atoms: C_3  and  O_4 
REMARK    3  A    between atoms: C_3  and  C_5 
REMARK    4  A    between atoms: C_5  and  N_6 
REMARK    5  A    between atoms: N_6  and  C_8 
REMARK    6  A    between atoms: N_6  and  C_21 
REMARK    7  A    between atoms: C_8  and  C_9 
REMARK    8  A    between atoms: C_10  and  C_11 
REMARK    9  A    between atoms: C_21  and  C_22 
ROOT
HETATM    1  N   UNL     1      43.037 -13.183   4.837  1.00  0.00    -0.061 N 
HETATM    2  H   UNL     1      43.938 -13.587   5.099  1.00  0.00     0.280 HD
ENDROOT
BRANCH   1   3
HETATM    3  C   UNL     1      42.063 -13.636   5.920  1.00  0.00     0.267 C 
BRANCH   3   4
HETATM    4  C   UNL     1      42.721 -14.510   7.014  1.00  0.00     0.143 C 
BRANCH   4   5
HETATM    5  C   UNL     1      41.931 -15.818   7.173  1.00  0.00     0.029 C 
HETATM    6  C   UNL     1      40.540 -15.762   6.554  1.00  0.00     0.007 C 
ENDBRANCH   4   5
BRANCH   4   7
HETATM    7  O   UNL     1      44.066 -14.796   6.636  1.00  0.00    -0.394 OA
HETATM    8  H   UNL     1      44.487 -13.980   6.307  1.00  0.00     0.210 HD
ENDBRANCH   4   7
ENDBRANCH   3   4
ENDBRANCH   1   3
BRANCH   1   9
HETATM    9  C   UNL     1      42.786 -13.707   3.436  1.00  0.00     0.277 C 
BRANCH   9  10
HETATM   10  C   UNL     1      41.482 -14.343   3.095  1.00  0.00     0.016 A 
HETATM   11  C   UNL     1      41.274 -15.754   2.922  1.00  0.00     0.096 A 
HETATM   12  N   UNL     1      40.013 -16.015   2.557  1.00  0.00    -0.174 NA
HETATM   13  N   UNL     1      39.397 -14.834   2.570  1.00  0.00    -0.288 N 
HETATM   14  H   UNL     1      38.403 -14.809   2.356  1.00  0.00     0.188 HD
HETATM   15  C   UNL     1      40.235 -13.794   2.856  1.00  0.00     0.120 A 
BRANCH  11  16
HETATM   16  C   UNL     1      42.243 -16.842   3.045  1.00  0.00    -0.005 A 
HETATM   17  C   UNL     1      42.322 -17.855   2.080  1.00  0.00     0.014 A 
HETATM   18  C   UNL     1      43.243 -18.895   2.224  1.00  0.00     0.001 A 
HETATM   19  C   UNL     1      44.100 -18.924   3.324  1.00  0.00     0.000 A 
HETATM   20  C   UNL     1      44.044 -17.909   4.277  1.00  0.00     0.001 A 
HETATM   21  C   UNL     1      43.121 -16.871   4.137  1.00  0.00     0.014 A 
ENDBRANCH  11  16
ENDBRANCH   9  10
ENDBRANCH   1   9
BRANCH   1  22
HETATM   22  C   UNL     1      43.258 -11.684   4.826  1.00  0.00     0.273 C 
BRANCH  22  23
HETATM   23  C   UNL     1      44.006 -11.186   6.035  1.00  0.00    -0.033 A 
HETATM   24  C   UNL     1      45.384 -11.413   6.172  1.00  0.00     0.009 A 
HETATM   25  C   UNL     1      46.062 -10.976   7.311  1.00  0.00     0.001 A 
HETATM   26  C   UNL     1      45.374 -10.303   8.319  1.00  0.00     0.000 A 
HETATM   27  C   UNL     1      44.009 -10.061   8.189  1.00  0.00     0.001 A 
HETATM   28  C   UNL     1      43.327 -10.498   7.053  1.00  0.00     0.009 A 
ENDBRANCH  22  23
ENDBRANCH   1  22
TORSDOF 9
ENDMDL
