MODEL 1
REMARK VINA RESULT:      -8.9      0.000      0.000
REMARK  2 active torsions:
REMARK  status: ('A' for Active; 'I' for Inactive)
REMARK    1  A    between atoms: C_11  and  C_12 
REMARK    2  A    between atoms: C_12  and  C_13 
ROOT
HETATM    1  C   UNL     1      43.800 -19.407   2.343  1.00  0.00     0.051 C 
HETATM    2  C   UNL     1      43.624 -18.355   3.411  1.00  0.00    -0.031 A 
HETATM    3  C   UNL     1      43.828 -18.672   4.761  1.00  0.00     0.038 A 
HETATM    4  C   UNL     1      44.242 -20.052   5.200  1.00  0.00     0.071 C 
HETATM    5  N   UNL     1      43.688 -17.795   5.769  1.00  0.00    -0.245 NA
HETATM    6  C   UNL     1      43.329 -16.551   5.412  1.00  0.00     0.111 A 
HETATM    7  C   UNL     1      43.099 -16.076   4.126  1.00  0.00     0.034 A 
HETATM    8  C   UNL     1      43.310 -17.010   3.061  1.00  0.00    -0.039 A 
HETATM    9  C   UNL     1      43.199 -16.612   1.610  1.00  0.00     0.050 C 
HETATM   10  S   UNL     1      43.142 -15.371   6.616  1.00  0.00    -0.063 SA
HETATM   11  C   UNL     1      42.696 -14.171   5.480  1.00  0.00     0.085 A 
HETATM   12  C   UNL     1      42.702 -14.678   4.189  1.00  0.00     0.061 A 
HETATM   13  N   UNL     1      42.389 -13.939   3.097  1.00  0.00    -0.397 N 
HETATM   14  H   UNL     1      42.145 -12.953   3.125  1.00  0.00     0.156 HD
HETATM   15  H   UNL     1      42.209 -14.354   2.190  1.00  0.00     0.156 HD
ENDROOT
BRANCH  11  16
HETATM   16  C   UNL     1      42.411 -12.846   6.005  1.00  0.00     0.201 C 
HETATM   17  O   UNL     1      41.277 -12.370   6.070  1.00  0.00    -0.286 OA
BRANCH  16  18
HETATM   18  C   UNL     1      43.516 -11.976   6.501  1.00  0.00     0.018 A 
HETATM   19  C   UNL     1      43.327 -11.071   7.556  1.00  0.00     0.055 A 
HETATM   20  C   UNL     1      44.413 -10.317   7.951  1.00  0.00     0.106 A 
HETATM   21  C   UNL     1      45.647 -10.445   7.354  1.00  0.00     0.105 A 
HETATM   22  O   UNL     1      44.414  -9.386   8.942  1.00  0.00    -0.323 OA
HETATM   23  O   UNL     1      46.574  -9.611   7.896  1.00  0.00    -0.323 OA
HETATM   24  C   UNL     1      45.870 -11.336   6.329  1.00  0.00     0.040 A 
HETATM   25  C   UNL     1      45.791  -8.955   8.914  1.00  0.00     0.352 A 
HETATM   26  C   UNL     1      44.790 -12.114   5.903  1.00  0.00     0.018 A 
ENDBRANCH  16  18
ENDBRANCH  11  16
TORSDOF 2
ENDMDL
MODEL 2
REMARK VINA RESULT:      -8.5      1.538      2.319
REMARK  2 active torsions:
REMARK  status: ('A' for Active; 'I' for Inactive)
REMARK    1  A    between atoms: C_11  and  C_12 
REMARK    2  A    between atoms: C_12  and  C_13 
ROOT
HETATM    1  C   UNL     1      44.089 -20.881   4.872  1.00  0.00     0.051 C 
HETATM    2  C   UNL     1      43.795 -19.449   4.494  1.00  0.00    -0.031 A 
HETATM    3  C   UNL     1      43.728 -19.069   3.146  1.00  0.00     0.038 A 
HETATM    4  C   UNL     1      43.927 -20.059   2.030  1.00  0.00     0.071 C 
HETATM    5  N   UNL     1      43.476 -17.816   2.730  1.00  0.00    -0.245 NA
HETATM    6  C   UNL     1      43.284 -16.908   3.701  1.00  0.00     0.111 A 
HETATM    7  C   UNL     1      43.307 -17.124   5.074  1.00  0.00     0.034 A 
HETATM    8  C   UNL     1      43.519 -18.476   5.497  1.00  0.00    -0.039 A 
HETATM    9  C   UNL     1      43.469 -18.880   6.950  1.00  0.00     0.050 C 
HETATM   10  S   UNL     1      42.945 -15.303   3.271  1.00  0.00    -0.063 SA
HETATM   11  C   UNL     1      42.858 -14.802   4.905  1.00  0.00     0.085 A 
HETATM   12  C   UNL     1      43.080 -15.865   5.767  1.00  0.00     0.061 A 
HETATM   13  N   UNL     1      43.066 -15.745   7.117  1.00  0.00    -0.397 N 
HETATM   14  H   UNL     1      42.873 -14.880   7.612  1.00  0.00     0.156 HD
HETATM   15  H   UNL     1      43.413 -16.471   7.733  1.00  0.00     0.156 HD
ENDROOT
BRANCH  11  16
HETATM   16  C   UNL     1      42.555 -13.400   5.145  1.00  0.00     0.201 C 
HETATM   17  O   UNL     1      41.527 -12.850   4.749  1.00  0.00    -0.286 OA
BRANCH  16  18
HETATM   18  C   UNL     1      43.510 -12.539   5.901  1.00  0.00     0.018 A 
HETATM   19  C   UNL     1      43.318 -12.239   7.258  1.00  0.00     0.055 A 
HETATM   20  C   UNL     1      44.262 -11.443   7.873  1.00  0.00     0.106 A 
HETATM   21  C   UNL     1      45.365 -10.964   7.202  1.00  0.00     0.105 A 
HETATM   22  O   UNL     1      44.235 -11.040   9.173  1.00  0.00    -0.323 OA
HETATM   23  O   UNL     1      46.165 -10.203   7.995  1.00  0.00    -0.323 OA
HETATM   24  C   UNL     1      45.592 -11.255   5.876  1.00  0.00     0.040 A 
HETATM   25  C   UNL     1      45.452 -10.270   9.248  1.00  0.00     0.352 A 
HETATM   26  C   UNL     1      44.653 -12.057   5.221  1.00  0.00     0.018 A 
ENDBRANCH  16  18
ENDBRANCH  11  16
TORSDOF 2
ENDMDL
MODEL 3
REMARK VINA RESULT:      -8.4      2.935      4.031
REMARK  2 active torsions:
REMARK  status: ('A' for Active; 'I' for Inactive)
REMARK    1  A    between atoms: C_11  and  C_12 
REMARK    2  A    between atoms: C_12  and  C_13 
ROOT
HETATM    1  C   UNL     1      44.108 -20.502   4.958  1.00  0.00     0.051 C 
HETATM    2  C   UNL     1      43.805 -19.162   4.333  1.00  0.00    -0.031 A 
HETATM    3  C   UNL     1      43.670 -19.039   2.943  1.00  0.00     0.038 A 
HETATM    4  C   UNL     1      43.803 -20.224   2.024  1.00  0.00     0.071 C 
HETATM    5  N   UNL     1      43.406 -17.883   2.312  1.00  0.00    -0.245 NA
HETATM    6  C   UNL     1      43.271 -16.805   3.104  1.00  0.00     0.111 A 
HETATM    7  C   UNL     1      43.365 -16.761   4.490  1.00  0.00     0.034 A 
HETATM    8  C   UNL     1      43.589 -18.013   5.148  1.00  0.00    -0.039 A 
HETATM    9  C   UNL     1      43.612 -18.137   6.652  1.00  0.00     0.050 C 
HETATM   10  S   UNL     1      42.922 -15.304   2.398  1.00  0.00    -0.063 SA
HETATM   11  C   UNL     1      42.925 -14.504   3.910  1.00  0.00     0.085 A 
HETATM   12  C   UNL     1      43.184 -15.391   4.945  1.00  0.00     0.061 A 
HETATM   13  N   UNL     1      43.241 -15.021   6.246  1.00  0.00    -0.397 N 
HETATM   14  H   UNL     1      43.081 -14.074   6.579  1.00  0.00     0.156 HD
HETATM   15  H   UNL     1      43.615 -15.624   6.970  1.00  0.00     0.156 HD
ENDROOT
BRANCH  11  16
HETATM   16  C   UNL     1      42.645 -13.077   3.897  1.00  0.00     0.201 C 
HETATM   17  O   UNL     1      43.261 -12.271   3.199  1.00  0.00    -0.286 OA
BRANCH  16  18
HETATM   18  C   UNL     1      41.567 -12.511   4.758  1.00  0.00     0.018 A 
HETATM   19  C   UNL     1      41.811 -11.452   5.645  1.00  0.00     0.055 A 
HETATM   20  C   UNL     1      40.746 -10.990   6.392  1.00  0.00     0.106 A 
HETATM   21  C   UNL     1      39.483 -11.524   6.274  1.00  0.00     0.105 A 
HETATM   22  O   UNL     1      40.797  -9.985   7.308  1.00  0.00    -0.323 OA
HETATM   23  O   UNL     1      38.586 -10.922   7.098  1.00  0.00    -0.323 OA
HETATM   24  C   UNL     1      39.207 -12.551   5.399  1.00  0.00     0.040 A 
HETATM   25  C   UNL     1      39.421  -9.935   7.738  1.00  0.00     0.352 A 
HETATM   26  C   UNL     1      40.264 -13.045   4.629  1.00  0.00     0.018 A 
ENDBRANCH  16  18
ENDBRANCH  11  16
TORSDOF 2
ENDMDL
MODEL 4
REMARK VINA RESULT:      -8.3      2.322      3.558
REMARK  2 active torsions:
REMARK  status: ('A' for Active; 'I' for Inactive)
REMARK    1  A    between atoms: C_11  and  C_12 
REMARK    2  A    between atoms: C_12  and  C_13 
ROOT
HETATM    1  C   UNL     1      43.692 -19.859   2.299  1.00  0.00     0.051 C 
HETATM    2  C   UNL     1      43.654 -18.848   3.419  1.00  0.00    -0.031 A 
HETATM    3  C   UNL     1      43.877 -19.248   4.745  1.00  0.00     0.038 A 
HETATM    4  C   UNL     1      44.174 -20.679   5.104  1.00  0.00     0.071 C 
HETATM    5  N   UNL     1      43.856 -18.411   5.796  1.00  0.00    -0.245 NA
HETATM    6  C   UNL     1      43.603 -17.123   5.509  1.00  0.00     0.111 A 
HETATM    7  C   UNL     1      43.372 -16.568   4.256  1.00  0.00     0.034 A 
HETATM    8  C   UNL     1      43.456 -17.465   3.143  1.00  0.00    -0.039 A 
HETATM    9  C   UNL     1      43.331 -16.988   1.716  1.00  0.00     0.050 C 
HETATM   10  S   UNL     1      43.571 -15.991   6.771  1.00  0.00    -0.063 SA
HETATM   11  C   UNL     1      43.200 -14.702   5.709  1.00  0.00     0.085 A 
HETATM   12  C   UNL     1      43.111 -15.144   4.397  1.00  0.00     0.061 A 
HETATM   13  N   UNL     1      42.829 -14.327   3.354  1.00  0.00    -0.397 N 
HETATM   14  H   UNL     1      42.681 -13.325   3.435  1.00  0.00     0.156 HD
HETATM   15  H   UNL     1      42.579 -14.679   2.437  1.00  0.00     0.156 HD
ENDROOT
BRANCH  11  16
HETATM   16  C   UNL     1      43.059 -13.382   6.304  1.00  0.00     0.201 C 
HETATM   17  O   UNL     1      43.918 -12.865   7.020  1.00  0.00    -0.286 OA
BRANCH  16  18
HETATM   18  C   UNL     1      41.829 -12.574   6.068  1.00  0.00     0.018 A 
HETATM   19  C   UNL     1      41.884 -11.188   5.859  1.00  0.00     0.055 A 
HETATM   20  C   UNL     1      40.691 -10.530   5.638  1.00  0.00     0.106 A 
HETATM   21  C   UNL     1      39.485 -11.192   5.607  1.00  0.00     0.105 A 
HETATM   22  O   UNL     1      40.550  -9.193   5.430  1.00  0.00    -0.323 OA
HETATM   23  O   UNL     1      38.439 -10.355   5.374  1.00  0.00    -0.323 OA
HETATM   24  C   UNL     1      39.398 -12.554   5.790  1.00  0.00     0.040 A 
HETATM   25  C   UNL     1      39.123  -9.092   5.246  1.00  0.00     0.352 A 
HETATM   26  C   UNL     1      40.588 -13.251   6.018  1.00  0.00     0.018 A 
ENDBRANCH  16  18
ENDBRANCH  11  16
TORSDOF 2
ENDMDL
MODEL 5
REMARK VINA RESULT:      -8.3      3.932      6.092
REMARK  2 active torsions:
REMARK  status: ('A' for Active; 'I' for Inactive)
REMARK    1  A    between atoms: C_11  and  C_12 
REMARK    2  A    between atoms: C_12  and  C_13 
ROOT
HETATM    1  C   UNL     1      44.125 -20.317   5.255  1.00  0.00     0.051 C 
HETATM    2  C   UNL     1      43.813 -19.107   4.408  1.00  0.00    -0.031 A 
HETATM    3  C   UNL     1      43.672 -19.229   3.018  1.00  0.00     0.038 A 
HETATM    4  C   UNL     1      43.807 -20.556   2.319  1.00  0.00     0.071 C 
HETATM    5  N   UNL     1      43.399 -18.202   2.197  1.00  0.00    -0.245 NA
HETATM    6  C   UNL     1      43.263 -17.004   2.789  1.00  0.00     0.111 A 
HETATM    7  C   UNL     1      43.362 -16.718   4.146  1.00  0.00     0.034 A 
HETATM    8  C   UNL     1      43.595 -17.835   5.011  1.00  0.00    -0.039 A 
HETATM    9  C   UNL     1      43.625 -17.695   6.514  1.00  0.00     0.050 C 
HETATM   10  S   UNL     1      42.903 -15.650   1.834  1.00  0.00    -0.063 SA
HETATM   11  C   UNL     1      42.908 -14.599   3.184  1.00  0.00     0.085 A 
HETATM   12  C   UNL     1      43.175 -15.290   4.356  1.00  0.00     0.061 A 
HETATM   13  N   UNL     1      43.236 -14.698   5.573  1.00  0.00    -0.397 N 
HETATM   14  H   UNL     1      43.072 -13.709   5.736  1.00  0.00     0.156 HD
HETATM   15  H   UNL     1      43.616 -15.165   6.389  1.00  0.00     0.156 HD
ENDROOT
BRANCH  11  16
HETATM   16  C   UNL     1      42.621 -13.197   2.923  1.00  0.00     0.201 C 
HETATM   17  O   UNL     1      43.379 -12.279   3.237  1.00  0.00    -0.286 OA
BRANCH  16  18
HETATM   18  C   UNL     1      41.353 -12.799   2.247  1.00  0.00     0.018 A 
HETATM   19  C   UNL     1      41.288 -12.593   0.861  1.00  0.00     0.055 A 
HETATM   20  C   UNL     1      40.067 -12.236   0.326  1.00  0.00     0.106 A 
HETATM   21  C   UNL     1      38.940 -12.099   1.105  1.00  0.00     0.105 A 
HETATM   22  O   UNL     1      39.819 -11.984  -0.987  1.00  0.00    -0.323 OA
HETATM   23  O   UNL     1      37.847 -11.744   0.378  1.00  0.00    -0.323 OA
HETATM   24  C   UNL     1      38.966 -12.312   2.465  1.00  0.00     0.040 A 
HETATM   25  C   UNL     1      38.407 -11.691  -0.950  1.00  0.00     0.352 A 
HETATM   26  C   UNL     1      40.188 -12.672   3.039  1.00  0.00     0.018 A 
ENDBRANCH  16  18
ENDBRANCH  11  16
TORSDOF 2
ENDMDL
MODEL 6
REMARK VINA RESULT:      -8.0      4.594      7.641
REMARK  2 active torsions:
REMARK  status: ('A' for Active; 'I' for Inactive)
REMARK    1  A    between atoms: C_11  and  C_12 
REMARK    2  A    between atoms: C_12  and  C_13 
ROOT
HETATM    1  C   UNL     1      39.618 -11.484  -3.005  1.00  0.00     0.051 C 
HETATM    2  C   UNL     1      39.830 -12.463  -1.877  1.00  0.00    -0.031 A 
HETATM    3  C   UNL     1      39.260 -13.743  -1.930  1.00  0.00     0.038 A 
HETATM    4  C   UNL     1      38.437 -14.199  -3.105  1.00  0.00     0.071 C 
HETATM    5  N   UNL     1      39.398 -14.668  -0.965  1.00  0.00    -0.245 NA
HETATM    6  C   UNL     1      40.135 -14.298   0.095  1.00  0.00     0.111 A 
HETATM    7  C   UNL     1      40.772 -13.079   0.294  1.00  0.00     0.034 A 
HETATM    8  C   UNL     1      40.662 -12.127  -0.770  1.00  0.00    -0.039 A 
HETATM    9  C   UNL     1      41.383 -10.802  -0.740  1.00  0.00     0.050 C 
HETATM   10  S   UNL     1      40.377 -15.406   1.356  1.00  0.00    -0.063 SA
HETATM   11  C   UNL     1      41.310 -14.292   2.260  1.00  0.00     0.085 A 
HETATM   12  C   UNL     1      41.438 -13.085   1.588  1.00  0.00     0.061 A 
HETATM   13  N   UNL     1      42.129 -12.029   2.080  1.00  0.00    -0.397 N 
HETATM   14  H   UNL     1      42.627 -12.033   2.965  1.00  0.00     0.156 HD
HETATM   15  H   UNL     1      42.060 -11.098   1.682  1.00  0.00     0.156 HD
ENDROOT
BRANCH  11  16
HETATM   16  C   UNL     1      41.831 -14.757   3.535  1.00  0.00     0.201 C 
HETATM   17  O   UNL     1      41.755 -14.107   4.578  1.00  0.00    -0.286 OA
BRANCH  16  18
HETATM   18  C   UNL     1      42.505 -16.084   3.637  1.00  0.00     0.018 A 
HETATM   19  C   UNL     1      42.629 -16.757   4.861  1.00  0.00     0.055 A 
HETATM   20  C   UNL     1      43.260 -17.985   4.851  1.00  0.00     0.106 A 
HETATM   21  C   UNL     1      43.742 -18.550   3.692  1.00  0.00     0.105 A 
HETATM   22  O   UNL     1      43.481 -18.771   5.939  1.00  0.00    -0.323 OA
HETATM   23  O   UNL     1      44.324 -19.759   3.908  1.00  0.00    -0.323 OA
HETATM   24  C   UNL     1      43.619 -17.924   2.472  1.00  0.00     0.040 A 
HETATM   25  C   UNL     1      44.140 -19.902   5.331  1.00  0.00     0.352 A 
HETATM   26  C   UNL     1      42.988 -16.677   2.447  1.00  0.00     0.018 A 
ENDBRANCH  16  18
ENDBRANCH  11  16
TORSDOF 2
ENDMDL
MODEL 7
REMARK VINA RESULT:      -8.0      2.411      3.380
REMARK  2 active torsions:
REMARK  status: ('A' for Active; 'I' for Inactive)
REMARK    1  A    between atoms: C_11  and  C_12 
REMARK    2  A    between atoms: C_12  and  C_13 
ROOT
HETATM    1  C   UNL     1      43.516 -18.693   2.843  1.00  0.00     0.051 C 
HETATM    2  C   UNL     1      43.348 -17.421   3.638  1.00  0.00    -0.031 A 
HETATM    3  C   UNL     1      43.414 -17.444   5.038  1.00  0.00     0.038 A 
HETATM    4  C   UNL     1      43.668 -18.716   5.802  1.00  0.00     0.071 C 
HETATM    5  N   UNL     1      43.270 -16.358   5.816  1.00  0.00    -0.245 NA
HETATM    6  C   UNL     1      43.051 -15.202   5.166  1.00  0.00     0.111 A 
HETATM    7  C   UNL     1      42.968 -15.010   3.792  1.00  0.00     0.034 A 
HETATM    8  C   UNL     1      43.183 -16.169   2.979  1.00  0.00    -0.039 A 
HETATM    9  C   UNL     1      43.224 -16.096   1.472  1.00  0.00     0.050 C 
HETATM   10  S   UNL     1      42.871 -13.775   6.064  1.00  0.00    -0.063 SA
HETATM   11  C   UNL     1      42.626 -12.830   4.659  1.00  0.00     0.085 A 
HETATM   12  C   UNL     1      42.692 -13.609   3.514  1.00  0.00     0.061 A 
HETATM   13  N   UNL     1      42.534 -13.111   2.264  1.00  0.00    -0.397 N 
HETATM   14  H   UNL     1      42.376 -12.130   2.055  1.00  0.00     0.156 HD
HETATM   15  H   UNL     1      42.392 -13.704   1.454  1.00  0.00     0.156 HD
ENDROOT
BRANCH  11  16
HETATM   16  C   UNL     1      42.416 -11.404   4.857  1.00  0.00     0.201 C 
HETATM   17  O   UNL     1      43.012 -10.535   4.220  1.00  0.00    -0.286 OA
BRANCH  16  18
HETATM   18  C   UNL     1      41.441 -10.918   5.875  1.00  0.00     0.018 A 
HETATM   19  C   UNL     1      41.818 -10.032   6.895  1.00  0.00     0.055 A 
HETATM   20  C   UNL     1      40.842  -9.632   7.784  1.00  0.00     0.106 A 
HETATM   21  C   UNL     1      39.538 -10.062   7.681  1.00  0.00     0.105 A 
HETATM   22  O   UNL     1      41.025  -8.791   8.838  1.00  0.00    -0.323 OA
HETATM   23  O   UNL     1      38.743  -9.546   8.655  1.00  0.00    -0.323 OA
HETATM   24  C   UNL     1      39.132 -10.917   6.681  1.00  0.00     0.040 A 
HETATM   25  C   UNL     1      39.687  -8.727   9.375  1.00  0.00     0.352 A 
HETATM   26  C   UNL     1      40.097 -11.344   5.765  1.00  0.00     0.018 A 
ENDBRANCH  16  18
ENDBRANCH  11  16
TORSDOF 2
ENDMDL
MODEL 8
REMARK VINA RESULT:      -7.9      4.975      7.976
REMARK  2 active torsions:
REMARK  status: ('A' for Active; 'I' for Inactive)
REMARK    1  A    between atoms: C_11  and  C_12 
REMARK    2  A    between atoms: C_12  and  C_13 
ROOT
HETATM    1  C   UNL     1      40.826 -10.231  -3.227  1.00  0.00     0.051 C 
HETATM    2  C   UNL     1      41.044 -10.651  -1.794  1.00  0.00    -0.031 A 
HETATM    3  C   UNL     1      41.753  -9.825  -0.911  1.00  0.00     0.038 A 
HETATM    4  C   UNL     1      42.307  -8.492  -1.340  1.00  0.00     0.071 C 
HETATM    5  N   UNL     1      41.992 -10.130   0.376  1.00  0.00    -0.245 NA
HETATM    6  C   UNL     1      41.503 -11.309   0.795  1.00  0.00     0.111 A 
HETATM    7  C   UNL     1      40.776 -12.232   0.052  1.00  0.00     0.034 A 
HETATM    8  C   UNL     1      40.481 -11.863  -1.300  1.00  0.00    -0.039 A 
HETATM    9  C   UNL     1      39.616 -12.716  -2.194  1.00  0.00     0.050 C 
HETATM   10  S   UNL     1      41.743 -11.772   2.408  1.00  0.00    -0.063 SA
HETATM   11  C   UNL     1      40.925 -13.258   2.185  1.00  0.00     0.085 A 
HETATM   12  C   UNL     1      40.467 -13.386   0.882  1.00  0.00     0.061 A 
HETATM   13  N   UNL     1      39.784 -14.468   0.436  1.00  0.00    -0.397 N 
HETATM   14  H   UNL     1      39.531 -15.263   1.014  1.00  0.00     0.156 HD
HETATM   15  H   UNL     1      39.621 -14.642  -0.550  1.00  0.00     0.156 HD
ENDROOT
BRANCH  11  16
HETATM   16  C   UNL     1      40.812 -14.125   3.347  1.00  0.00     0.201 C 
HETATM   17  O   UNL     1      39.969 -13.970   4.231  1.00  0.00    -0.286 OA
BRANCH  16  18
HETATM   18  C   UNL     1      41.746 -15.274   3.526  1.00  0.00     0.018 A 
HETATM   19  C   UNL     1      41.762 -16.358   2.637  1.00  0.00     0.055 A 
HETATM   20  C   UNL     1      42.670 -17.369   2.881  1.00  0.00     0.106 A 
HETATM   21  C   UNL     1      43.545 -17.325   3.943  1.00  0.00     0.105 A 
HETATM   22  O   UNL     1      42.819 -18.498   2.137  1.00  0.00    -0.323 OA
HETATM   23  O   UNL     1      44.351 -18.418   3.996  1.00  0.00    -0.323 OA
HETATM   24  C   UNL     1      43.568 -16.266   4.822  1.00  0.00     0.040 A 
HETATM   25  C   UNL     1      43.898 -19.150   2.839  1.00  0.00     0.352 A 
HETATM   26  C   UNL     1      42.659 -15.227   4.605  1.00  0.00     0.018 A 
ENDBRANCH  16  18
ENDBRANCH  11  16
TORSDOF 2
ENDMDL
MODEL 9
REMARK VINA RESULT:      -7.8      4.339      6.711
REMARK  2 active torsions:
REMARK  status: ('A' for Active; 'I' for Inactive)
REMARK    1  A    between atoms: C_11  and  C_12 
REMARK    2  A    between atoms: C_12  and  C_13 
ROOT
HETATM    1  C   UNL     1      43.940 -18.725   5.235  1.00  0.00     0.051 C 
HETATM    2  C   UNL     1      43.593 -17.269   5.036  1.00  0.00    -0.031 A 
HETATM    3  C   UNL     1      43.563 -16.390   6.128  1.00  0.00     0.038 A 
HETATM    4  C   UNL     1      43.885 -16.847   7.526  1.00  0.00     0.071 C 
HETATM    5  N   UNL     1      43.260 -15.085   6.034  1.00  0.00    -0.245 NA
HETATM    6  C   UNL     1      42.976 -14.641   4.798  1.00  0.00     0.111 A 
HETATM    7  C   UNL     1      42.972 -15.376   3.619  1.00  0.00     0.034 A 
HETATM    8  C   UNL     1      43.354 -16.752   3.731  1.00  0.00    -0.039 A 
HETATM    9  C   UNL     1      43.494 -17.647   2.524  1.00  0.00     0.050 C 
HETATM   10  S   UNL     1      42.597 -13.003   4.580  1.00  0.00    -0.063 SA
HETATM   11  C   UNL     1      42.360 -13.202   2.897  1.00  0.00     0.085 A 
HETATM   12  C   UNL     1      42.581 -14.516   2.512  1.00  0.00     0.061 A 
HETATM   13  N   UNL     1      42.463 -14.948   1.234  1.00  0.00    -0.397 N 
HETATM   14  H   UNL     1      42.226 -14.349   0.448  1.00  0.00     0.156 HD
HETATM   15  H   UNL     1      42.437 -15.931   0.990  1.00  0.00     0.156 HD
ENDROOT
BRANCH  11  16
HETATM   16  C   UNL     1      41.999 -12.013   2.141  1.00  0.00     0.201 C 
HETATM   17  O   UNL     1      42.637 -10.960   2.186  1.00  0.00    -0.286 OA
BRANCH  16  18
HETATM   18  C   UNL     1      40.802 -12.017   1.252  1.00  0.00     0.018 A 
HETATM   19  C   UNL     1      40.884 -12.396  -0.095  1.00  0.00     0.055 A 
HETATM   20  C   UNL     1      39.718 -12.377  -0.834  1.00  0.00     0.106 A 
HETATM   21  C   UNL     1      38.509 -12.017  -0.283  1.00  0.00     0.105 A 
HETATM   22  O   UNL     1      39.608 -12.698  -2.151  1.00  0.00    -0.323 OA
HETATM   23  O   UNL     1      37.492 -12.069  -1.184  1.00  0.00    -0.323 OA
HETATM   24  C   UNL     1      38.391 -11.658   1.041  1.00  0.00     0.040 A 
HETATM   25  C   UNL     1      38.192 -12.518  -2.362  1.00  0.00     0.352 A 
HETATM   26  C   UNL     1      39.554 -11.664   1.817  1.00  0.00     0.018 A 
ENDBRANCH  16  18
ENDBRANCH  11  16
TORSDOF 2
ENDMDL
MODEL 10
REMARK VINA RESULT:      -7.5      3.488      8.335
REMARK  2 active torsions:
REMARK  status: ('A' for Active; 'I' for Inactive)
REMARK    1  A    between atoms: C_11  and  C_12 
REMARK    2  A    between atoms: C_12  and  C_13 
ROOT
HETATM    1  C   UNL     1      43.452  -8.535  11.955  1.00  0.00     0.051 C 
HETATM    2  C   UNL     1      43.079  -9.026  10.577  1.00  0.00    -0.031 A 
HETATM    3  C   UNL     1      41.781  -8.838  10.082  1.00  0.00     0.038 A 
HETATM    4  C   UNL     1      40.719  -8.134  10.884  1.00  0.00     0.071 C 
HETATM    5  N   UNL     1      41.371  -9.249   8.871  1.00  0.00    -0.245 NA
HETATM    6  C   UNL     1      42.296  -9.874   8.124  1.00  0.00     0.111 A 
HETATM    7  C   UNL     1      43.620 -10.128   8.462  1.00  0.00     0.034 A 
HETATM    8  C   UNL     1      44.054  -9.631   9.733  1.00  0.00    -0.039 A 
HETATM    9  C   UNL     1      45.488  -9.743  10.192  1.00  0.00     0.050 C 
HETATM   10  S   UNL     1      41.874 -10.415   6.574  1.00  0.00    -0.063 SA
HETATM   11  C   UNL     1      43.433 -11.063   6.291  1.00  0.00     0.085 A 
HETATM   12  C   UNL     1      44.267 -10.854   7.379  1.00  0.00     0.061 A 
HETATM   13  N   UNL     1      45.557 -11.265   7.419  1.00  0.00    -0.397 N 
HETATM   14  H   UNL     1      46.029 -11.740   6.655  1.00  0.00     0.156 HD
HETATM   15  H   UNL     1      46.099 -11.282   8.276  1.00  0.00     0.156 HD
ENDROOT
BRANCH  11  16
HETATM   16  C   UNL     1      43.656 -11.691   4.999  1.00  0.00     0.201 C 
HETATM   17  O   UNL     1      44.496 -11.299   4.188  1.00  0.00    -0.286 OA
BRANCH  16  18
HETATM   18  C   UNL     1      42.848 -12.875   4.585  1.00  0.00     0.018 A 
HETATM   19  C   UNL     1      41.916 -12.803   3.540  1.00  0.00     0.055 A 
HETATM   20  C   UNL     1      41.224 -13.955   3.223  1.00  0.00     0.106 A 
HETATM   21  C   UNL     1      41.439 -15.142   3.887  1.00  0.00     0.105 A 
HETATM   22  O   UNL     1      40.277 -14.071   2.254  1.00  0.00    -0.323 OA
HETATM   23  O   UNL     1      40.656 -16.149   3.416  1.00  0.00    -0.323 OA
HETATM   24  C   UNL     1      42.361 -15.250   4.903  1.00  0.00     0.040 A 
HETATM   25  C   UNL     1      39.934 -15.468   2.369  1.00  0.00     0.352 A 
HETATM   26  C   UNL     1      43.077 -14.101   5.251  1.00  0.00     0.018 A 
ENDBRANCH  16  18
ENDBRANCH  11  16
TORSDOF 2
ENDMDL
