MODEL 1
REMARK VINA RESULT:      -8.5      0.000      0.000
REMARK  10 active torsions:
REMARK  status: ('A' for Active; 'I' for Inactive)
REMARK    1  A    between atoms: O_2  and  C_3 
REMARK    2  A    between atoms: C_3  and  C_4 
REMARK    3  A    between atoms: C_8  and  N_9 
REMARK       I    between atoms: N_9  and  C_10 
REMARK    4  A    between atoms: C_10  and  C_11 
REMARK    5  A    between atoms: C_12  and  C_13 
REMARK    6  A    between atoms: C_22  and  C_23 
REMARK    7  A    between atoms: C_23  and  N_24 
REMARK    8  A    between atoms: C_26  and  C_27 
REMARK    9  A    between atoms: C_27  and  C_28 
REMARK   10  A    between atoms: C_28  and  O_29 
ROOT
HETATM    1  C   UNL     1      40.992 -11.669   5.020  1.00  0.00     0.110 C 
HETATM    2  S   UNL     1      40.823 -10.257   5.970  1.00  0.00    -0.061 SA
HETATM    3  C   UNL     1      42.275 -10.551   6.791  1.00  0.00     0.111 A 
HETATM    4  C   UNL     1      42.912 -11.712   6.373  1.00  0.00     0.028 A 
HETATM    5  C   UNL     1      42.104 -12.419   5.401  1.00  0.00     0.071 C 
HETATM    6  N   UNL     1      42.704  -9.674   7.726  1.00  0.00    -0.243 NA
HETATM    7  C   UNL     1      43.912  -9.949   8.259  1.00  0.00     0.061 A 
HETATM    8  C   UNL     1      44.686 -11.041   7.889  1.00  0.00     0.030 A 
HETATM    9  C   UNL     1      44.189 -11.932   6.940  1.00  0.00     0.019 A 
ENDROOT
BRANCH   5  10
HETATM   10  N   UNL     1      42.345 -13.667   4.807  1.00  0.00    -0.321 N 
HETATM   11  C   UNL     1      42.960 -13.883   3.595  1.00  0.00     0.245 C 
HETATM   12  O   UNL     1      43.471 -13.034   2.875  1.00  0.00    -0.268 OA
HETATM   13  H   UNL     1      42.229 -14.474   5.421  1.00  0.00     0.169 HD
BRANCH  11  14
HETATM   14  C   UNL     1      43.002 -15.329   3.241  1.00  0.00     0.075 C 
HETATM   15  C   UNL     1      43.445 -16.221   4.139  1.00  0.00     0.017 C 
BRANCH  15  16
HETATM   16  C   UNL     1      43.585 -17.648   3.834  1.00  0.00    -0.036 A 
HETATM   17  C   UNL     1      44.034 -18.513   4.843  1.00  0.00     0.014 A 
HETATM   18  C   UNL     1      44.182 -19.877   4.588  1.00  0.00     0.043 A 
HETATM   19  C   UNL     1      43.869 -20.377   3.330  1.00  0.00     0.116 A 
HETATM   20  F   UNL     1      44.013 -21.685   3.084  1.00  0.00    -0.206 F 
HETATM   21  C   UNL     1      43.404 -19.538   2.323  1.00  0.00     0.043 A 
HETATM   22  C   UNL     1      43.260 -18.172   2.575  1.00  0.00     0.014 A 
ENDBRANCH  15  16
ENDBRANCH  11  14
ENDBRANCH   5  10
BRANCH   1  23
HETATM   23  C   UNL     1      40.028 -12.017   3.985  1.00  0.00     0.302 C 
HETATM   24  O   UNL     1      39.492 -13.118   3.902  1.00  0.00    -0.259 OA
BRANCH  23  25
HETATM   25  O   UNL     1      39.815 -10.991   3.114  1.00  0.00    -0.322 OA
HETATM   26  C   UNL     1      40.722 -10.958   2.009  1.00  0.00     0.213 C 
ENDBRANCH  23  25
ENDBRANCH   1  23
BRANCH   7  27
HETATM   27  C   UNL     1      44.404  -9.008   9.343  1.00  0.00     0.294 C 
BRANCH  27  28
HETATM   28  N   UNL     1      43.354  -8.059   9.940  1.00  0.00    -0.061 N 
HETATM   29  H   UNL     1      42.449  -8.426   9.623  1.00  0.00     0.280 HD
HETATM   30  C   UNL     1      43.286  -8.025  11.476  1.00  0.00     0.190 C 
HETATM   31  C   UNL     1      42.130  -7.085  11.873  1.00  0.00     0.033 C 
HETATM   32  C   UNL     1      42.246  -5.699  11.255  1.00  0.00     0.004 C 
HETATM   33  C   UNL     1      42.345  -5.795   9.742  1.00  0.00     0.028 C 
HETATM   34  C   UNL     1      43.511  -6.675   9.337  1.00  0.00     0.235 C 
BRANCH  30  35
HETATM   35  C   UNL     1      42.997  -9.423  12.052  1.00  0.00     0.059 C 
BRANCH  35  36
HETATM   36  C   UNL     1      41.532  -9.837  11.948  1.00  0.00     0.166 C 
BRANCH  36  37
HETATM   37  O   UNL     1      41.277 -10.153  10.587  1.00  0.00    -0.401 OA
HETATM   38  H   UNL     1      40.328 -10.363  10.504  1.00  0.00     0.209 HD
ENDBRANCH  36  37
ENDBRANCH  35  36
ENDBRANCH  30  35
ENDBRANCH  27  28
ENDBRANCH   7  27
TORSDOF 10
ENDMDL
MODEL 2
REMARK VINA RESULT:      -8.4      1.750      2.470
REMARK  10 active torsions:
REMARK  status: ('A' for Active; 'I' for Inactive)
REMARK    1  A    between atoms: O_2  and  C_3 
REMARK    2  A    between atoms: C_3  and  C_4 
REMARK    3  A    between atoms: C_8  and  N_9 
REMARK       I    between atoms: N_9  and  C_10 
REMARK    4  A    between atoms: C_10  and  C_11 
REMARK    5  A    between atoms: C_12  and  C_13 
REMARK    6  A    between atoms: C_22  and  C_23 
REMARK    7  A    between atoms: C_23  and  N_24 
REMARK    8  A    between atoms: C_26  and  C_27 
REMARK    9  A    between atoms: C_27  and  C_28 
REMARK   10  A    between atoms: C_28  and  O_29 
ROOT
HETATM    1  C   UNL     1      39.909 -12.236   3.505  1.00  0.00     0.110 C 
HETATM    2  S   UNL     1      39.252 -10.844   4.252  1.00  0.00    -0.061 SA
HETATM    3  C   UNL     1      40.503 -10.782   5.393  1.00  0.00     0.111 A 
HETATM    4  C   UNL     1      41.433 -11.802   5.240  1.00  0.00     0.028 A 
HETATM    5  C   UNL     1      41.025 -12.713   4.190  1.00  0.00     0.071 C 
HETATM    6  N   UNL     1      40.524  -9.787   6.309  1.00  0.00    -0.243 NA
HETATM    7  C   UNL     1      41.605  -9.772   7.116  1.00  0.00     0.061 A 
HETATM    8  C   UNL     1      42.640 -10.693   7.031  1.00  0.00     0.030 A 
HETATM    9  C   UNL     1      42.560 -11.717   6.089  1.00  0.00     0.019 A 
ENDROOT
BRANCH   5  10
HETATM   10  N   UNL     1      41.635 -13.910   3.788  1.00  0.00    -0.321 N 
HETATM   11  C   UNL     1      42.783 -14.023   3.036  1.00  0.00     0.245 C 
HETATM   12  O   UNL     1      43.505 -13.106   2.665  1.00  0.00    -0.268 OA
HETATM   13  H   UNL     1      41.304 -14.751   4.261  1.00  0.00     0.169 HD
BRANCH  11  14
HETATM   14  C   UNL     1      43.121 -15.444   2.744  1.00  0.00     0.075 C 
HETATM   15  C   UNL     1      42.845 -16.394   3.650  1.00  0.00     0.017 C 
BRANCH  15  16
HETATM   16  C   UNL     1      43.217 -17.799   3.462  1.00  0.00    -0.036 A 
HETATM   17  C   UNL     1      43.829 -18.482   4.523  1.00  0.00     0.014 A 
HETATM   18  C   UNL     1      44.200 -19.820   4.379  1.00  0.00     0.043 A 
HETATM   19  C   UNL     1      43.946 -20.477   3.181  1.00  0.00     0.116 A 
HETATM   20  F   UNL     1      44.304 -21.759   3.042  1.00  0.00    -0.206 F 
HETATM   21  C   UNL     1      43.322 -19.821   2.125  1.00  0.00     0.043 A 
HETATM   22  C   UNL     1      42.955 -18.481   2.265  1.00  0.00     0.014 A 
ENDBRANCH  15  16
ENDBRANCH  11  14
ENDBRANCH   5  10
BRANCH   1  23
HETATM   23  C   UNL     1      39.298 -12.832   2.325  1.00  0.00     0.302 C 
HETATM   24  O   UNL     1      39.565 -13.961   1.922  1.00  0.00    -0.259 OA
BRANCH  23  25
HETATM   25  O   UNL     1      38.424 -11.984   1.713  1.00  0.00    -0.322 OA
HETATM   26  C   UNL     1      38.798 -11.610   0.385  1.00  0.00     0.213 C 
ENDBRANCH  23  25
ENDBRANCH   1  23
BRANCH   7  27
HETATM   27  C   UNL     1      41.639  -8.694   8.182  1.00  0.00     0.294 C 
BRANCH  27  28
HETATM   28  N   UNL     1      42.384  -9.049   9.478  1.00  0.00    -0.061 N 
HETATM   29  H   UNL     1      42.821  -9.960   9.296  1.00  0.00     0.280 HD
HETATM   30  C   UNL     1      43.527  -8.098   9.869  1.00  0.00     0.190 C 
HETATM   31  C   UNL     1      44.193  -8.665  11.140  1.00  0.00     0.033 C 
HETATM   32  C   UNL     1      43.209  -8.906  12.276  1.00  0.00     0.004 C 
HETATM   33  C   UNL     1      42.084  -9.821  11.823  1.00  0.00     0.028 C 
HETATM   34  C   UNL     1      41.386  -9.249  10.605  1.00  0.00     0.235 C 
BRANCH  30  35
HETATM   35  C   UNL     1      44.589  -8.017   8.758  1.00  0.00     0.059 C 
BRANCH  35  36
HETATM   36  C   UNL     1      45.642  -9.118   8.835  1.00  0.00     0.166 C 
BRANCH  36  37
HETATM   37  O   UNL     1      46.557  -8.905   7.770  1.00  0.00    -0.401 OA
HETATM   38  H   UNL     1      47.279  -8.343   8.107  1.00  0.00     0.209 HD
ENDBRANCH  36  37
ENDBRANCH  35  36
ENDBRANCH  30  35
ENDBRANCH  27  28
ENDBRANCH   7  27
TORSDOF 10
ENDMDL
MODEL 3
REMARK VINA RESULT:      -8.3      1.084      2.204
REMARK  10 active torsions:
REMARK  status: ('A' for Active; 'I' for Inactive)
REMARK    1  A    between atoms: O_2  and  C_3 
REMARK    2  A    between atoms: C_3  and  C_4 
REMARK    3  A    between atoms: C_8  and  N_9 
REMARK       I    between atoms: N_9  and  C_10 
REMARK    4  A    between atoms: C_10  and  C_11 
REMARK    5  A    between atoms: C_12  and  C_13 
REMARK    6  A    between atoms: C_22  and  C_23 
REMARK    7  A    between atoms: C_23  and  N_24 
REMARK    8  A    between atoms: C_26  and  C_27 
REMARK    9  A    between atoms: C_27  and  C_28 
REMARK   10  A    between atoms: C_28  and  O_29 
ROOT
HETATM    1  C   UNL     1      41.422 -11.542   4.765  1.00  0.00     0.110 C 
HETATM    2  S   UNL     1      41.295 -10.103   5.681  1.00  0.00    -0.061 SA
HETATM    3  C   UNL     1      42.690 -10.463   6.571  1.00  0.00     0.111 A 
HETATM    4  C   UNL     1      43.276 -11.668   6.204  1.00  0.00     0.028 A 
HETATM    5  C   UNL     1      42.470 -12.346   5.209  1.00  0.00     0.071 C 
HETATM    6  N   UNL     1      43.129  -9.594   7.509  1.00  0.00    -0.243 NA
HETATM    7  C   UNL     1      44.295  -9.926   8.100  1.00  0.00     0.061 A 
HETATM    8  C   UNL     1      45.019 -11.068   7.785  1.00  0.00     0.030 A 
HETATM    9  C   UNL     1      44.512 -11.949   6.831  1.00  0.00     0.019 A 
ENDROOT
BRANCH   5  10
HETATM   10  N   UNL     1      42.664 -13.618   4.649  1.00  0.00    -0.321 N 
HETATM   11  C   UNL     1      43.138 -13.884   3.385  1.00  0.00     0.245 C 
HETATM   12  O   UNL     1      43.547 -13.064   2.572  1.00  0.00    -0.268 OA
HETATM   13  H   UNL     1      42.634 -14.396   5.309  1.00  0.00     0.169 HD
BRANCH  11  14
HETATM   14  C   UNL     1      43.166 -15.344   3.095  1.00  0.00     0.075 C 
HETATM   15  C   UNL     1      43.490 -16.210   4.067  1.00  0.00     0.017 C 
BRANCH  15  16
HETATM   16  C   UNL     1      43.611 -17.652   3.835  1.00  0.00    -0.036 A 
HETATM   17  C   UNL     1      43.299 -18.158   2.565  1.00  0.00     0.014 A 
HETATM   18  C   UNL     1      43.400 -19.527   2.308  1.00  0.00     0.043 A 
HETATM   19  C   UNL     1      43.825 -20.384   3.315  1.00  0.00     0.116 A 
HETATM   20  F   UNL     1      43.920 -21.697   3.069  1.00  0.00    -0.206 F 
HETATM   21  C   UNL     1      44.157 -19.898   4.574  1.00  0.00     0.043 A 
HETATM   22  C   UNL     1      44.053 -18.530   4.835  1.00  0.00     0.014 A 
ENDBRANCH  15  16
ENDBRANCH  11  14
ENDBRANCH   5  10
BRANCH   1  23
HETATM   23  C   UNL     1      40.485 -11.854   3.695  1.00  0.00     0.302 C 
HETATM   24  O   UNL     1      40.305 -11.129   2.721  1.00  0.00    -0.259 OA
BRANCH  23  25
HETATM   25  O   UNL     1      39.823 -13.024   3.916  1.00  0.00    -0.322 OA
HETATM   26  C   UNL     1      39.433 -13.714   2.726  1.00  0.00     0.213 C 
ENDBRANCH  23  25
ENDBRANCH   1  23
BRANCH   7  27
HETATM   27  C   UNL     1      44.793  -8.993   9.187  1.00  0.00     0.294 C 
BRANCH  27  28
HETATM   28  N   UNL     1      43.960  -8.953  10.477  1.00  0.00    -0.061 N 
HETATM   29  H   UNL     1      44.560  -8.491  11.171  1.00  0.00     0.280 HD
HETATM   30  C   UNL     1      42.669  -8.120  10.408  1.00  0.00     0.190 C 
HETATM   31  C   UNL     1      42.024  -8.140  11.810  1.00  0.00     0.033 C 
HETATM   32  C   UNL     1      41.793  -9.546  12.343  1.00  0.00     0.004 C 
HETATM   33  C   UNL     1      43.093 -10.334  12.355  1.00  0.00     0.028 C 
HETATM   34  C   UNL     1      43.711 -10.367  10.970  1.00  0.00     0.235 C 
BRANCH  30  35
HETATM   35  C   UNL     1      42.968  -6.658  10.032  1.00  0.00     0.059 C 
BRANCH  35  36
HETATM   36  C   UNL     1      42.152  -6.151   8.847  1.00  0.00     0.166 C 
BRANCH  36  37
HETATM   37  O   UNL     1      42.796  -6.603   7.664  1.00  0.00    -0.401 OA
HETATM   38  H   UNL     1      42.121  -7.025   7.101  1.00  0.00     0.209 HD
ENDBRANCH  36  37
ENDBRANCH  35  36
ENDBRANCH  30  35
ENDBRANCH  27  28
ENDBRANCH   7  27
TORSDOF 10
ENDMDL
MODEL 4
REMARK VINA RESULT:      -7.8      3.572      5.305
REMARK  10 active torsions:
REMARK  status: ('A' for Active; 'I' for Inactive)
REMARK    1  A    between atoms: O_2  and  C_3 
REMARK    2  A    between atoms: C_3  and  C_4 
REMARK    3  A    between atoms: C_8  and  N_9 
REMARK       I    between atoms: N_9  and  C_10 
REMARK    4  A    between atoms: C_10  and  C_11 
REMARK    5  A    between atoms: C_12  and  C_13 
REMARK    6  A    between atoms: C_22  and  C_23 
REMARK    7  A    between atoms: C_23  and  N_24 
REMARK    8  A    between atoms: C_26  and  C_27 
REMARK    9  A    between atoms: C_27  and  C_28 
REMARK   10  A    between atoms: C_28  and  O_29 
ROOT
HETATM    1  C   UNL     1      42.480 -15.148   5.617  1.00  0.00     0.110 C 
HETATM    2  S   UNL     1      43.408 -14.735   6.993  1.00  0.00    -0.061 SA
HETATM    3  C   UNL     1      43.413 -13.092   6.583  1.00  0.00     0.111 A 
HETATM    4  C   UNL     1      42.725 -12.820   5.408  1.00  0.00     0.028 A 
HETATM    5  C   UNL     1      42.262 -14.046   4.790  1.00  0.00     0.071 C 
HETATM    6  N   UNL     1      44.030 -12.203   7.392  1.00  0.00    -0.243 NA
HETATM    7  C   UNL     1      43.904 -10.910   7.028  1.00  0.00     0.061 A 
HETATM    8  C   UNL     1      43.191 -10.492   5.913  1.00  0.00     0.030 A 
HETATM    9  C   UNL     1      42.595 -11.448   5.093  1.00  0.00     0.019 A 
ENDROOT
BRANCH   5  10
HETATM   10  N   UNL     1      41.612 -14.212   3.559  1.00  0.00    -0.321 N 
HETATM   11  C   UNL     1      42.218 -14.295   2.326  1.00  0.00     0.245 C 
HETATM   12  O   UNL     1      43.423 -14.321   2.105  1.00  0.00    -0.268 OA
HETATM   13  H   UNL     1      40.631 -14.489   3.615  1.00  0.00     0.169 HD
BRANCH  11  14
HETATM   14  C   UNL     1      41.225 -14.412   1.222  1.00  0.00     0.075 C 
HETATM   15  C   UNL     1      40.778 -13.306   0.608  1.00  0.00     0.017 C 
BRANCH  15  16
HETATM   16  C   UNL     1      39.746 -13.341  -0.432  1.00  0.00    -0.036 A 
HETATM   17  C   UNL     1      39.723 -14.424  -1.323  1.00  0.00     0.014 A 
HETATM   18  C   UNL     1      38.756 -14.489  -2.328  1.00  0.00     0.043 A 
HETATM   19  C   UNL     1      37.806 -13.480  -2.432  1.00  0.00     0.116 A 
HETATM   20  F   UNL     1      36.880 -13.541  -3.397  1.00  0.00    -0.206 F 
HETATM   21  C   UNL     1      37.801 -12.409  -1.545  1.00  0.00     0.043 A 
HETATM   22  C   UNL     1      38.771 -12.340  -0.542  1.00  0.00     0.014 A 
ENDBRANCH  15  16
ENDBRANCH  11  14
ENDBRANCH   5  10
BRANCH   1  23
HETATM   23  C   UNL     1      42.042 -16.515   5.369  1.00  0.00     0.302 C 
HETATM   24  O   UNL     1      40.861 -16.842   5.285  1.00  0.00    -0.259 OA
BRANCH  23  25
HETATM   25  O   UNL     1      43.089 -17.380   5.268  1.00  0.00    -0.322 OA
HETATM   26  C   UNL     1      43.579 -17.560   3.937  1.00  0.00     0.213 C 
ENDBRANCH  23  25
ENDBRANCH   1  23
BRANCH   7  27
HETATM   27  C   UNL     1      44.621  -9.890   7.892  1.00  0.00     0.294 C 
BRANCH  27  28
HETATM   28  N   UNL     1      43.739  -9.084   8.858  1.00  0.00    -0.061 N 
HETATM   29  H   UNL     1      42.863  -9.616   8.929  1.00  0.00     0.280 HD
HETATM   30  C   UNL     1      44.275  -8.952  10.293  1.00  0.00     0.190 C 
HETATM   31  C   UNL     1      43.220  -8.186  11.118  1.00  0.00     0.033 C 
HETATM   32  C   UNL     1      42.835  -6.848  10.504  1.00  0.00     0.004 C 
HETATM   33  C   UNL     1      42.347  -7.035   9.077  1.00  0.00     0.028 C 
HETATM   34  C   UNL     1      43.398  -7.740   8.241  1.00  0.00     0.235 C 
BRANCH  30  35
HETATM   35  C   UNL     1      44.488 -10.332  10.939  1.00  0.00     0.059 C 
BRANCH  35  36
HETATM   36  C   UNL     1      43.387 -10.729  11.917  1.00  0.00     0.166 C 
BRANCH  36  37
HETATM   37  O   UNL     1      43.599 -12.088  12.266  1.00  0.00    -0.401 OA
HETATM   38  H   UNL     1      44.049 -12.521  11.517  1.00  0.00     0.209 HD
ENDBRANCH  36  37
ENDBRANCH  35  36
ENDBRANCH  30  35
ENDBRANCH  27  28
ENDBRANCH   7  27
TORSDOF 10
ENDMDL
MODEL 5
REMARK VINA RESULT:      -7.6      6.441      8.174
REMARK  10 active torsions:
REMARK  status: ('A' for Active; 'I' for Inactive)
REMARK    1  A    between atoms: O_2  and  C_3 
REMARK    2  A    between atoms: C_3  and  C_4 
REMARK    3  A    between atoms: C_8  and  N_9 
REMARK       I    between atoms: N_9  and  C_10 
REMARK    4  A    between atoms: C_10  and  C_11 
REMARK    5  A    between atoms: C_12  and  C_13 
REMARK    6  A    between atoms: C_22  and  C_23 
REMARK    7  A    between atoms: C_23  and  N_24 
REMARK    8  A    between atoms: C_26  and  C_27 
REMARK    9  A    between atoms: C_27  and  C_28 
REMARK   10  A    between atoms: C_28  and  O_29 
ROOT
HETATM    1  C   UNL     1      39.700 -13.068  -1.477  1.00  0.00     0.110 C 
HETATM    2  S   UNL     1      39.244 -11.561  -2.145  1.00  0.00    -0.061 SA
HETATM    3  C   UNL     1      40.091 -10.700  -0.958  1.00  0.00     0.111 A 
HETATM    4  C   UNL     1      40.729 -11.521  -0.037  1.00  0.00     0.028 A 
HETATM    5  C   UNL     1      40.414 -12.913  -0.289  1.00  0.00     0.071 C 
HETATM    6  N   UNL     1      40.110  -9.349  -0.998  1.00  0.00    -0.243 NA
HETATM    7  C   UNL     1      40.884  -8.757  -0.064  1.00  0.00     0.061 A 
HETATM    8  C   UNL     1      41.624  -9.458   0.877  1.00  0.00     0.030 A 
HETATM    9  C   UNL     1      41.551 -10.850   0.896  1.00  0.00     0.019 A 
ENDROOT
BRANCH   5  10
HETATM   10  N   UNL     1      40.780 -14.040   0.461  1.00  0.00    -0.321 N 
HETATM   11  C   UNL     1      40.334 -14.353   1.725  1.00  0.00     0.245 C 
HETATM   12  O   UNL     1      39.485 -13.750   2.370  1.00  0.00    -0.268 OA
HETATM   13  H   UNL     1      41.260 -14.775  -0.059  1.00  0.00     0.169 HD
BRANCH  11  14
HETATM   14  C   UNL     1      40.969 -15.594   2.249  1.00  0.00     0.075 C 
HETATM   15  C   UNL     1      42.175 -15.529   2.833  1.00  0.00     0.017 C 
BRANCH  15  16
HETATM   16  C   UNL     1      42.893 -16.718   3.302  1.00  0.00    -0.036 A 
HETATM   17  C   UNL     1      43.305 -16.771   4.641  1.00  0.00     0.014 A 
HETATM   18  C   UNL     1      43.993 -17.887   5.122  1.00  0.00     0.043 A 
HETATM   19  C   UNL     1      44.255 -18.952   4.269  1.00  0.00     0.116 A 
HETATM   20  F   UNL     1      44.916 -20.020   4.730  1.00  0.00    -0.206 F 
HETATM   21  C   UNL     1      43.836 -18.925   2.943  1.00  0.00     0.043 A 
HETATM   22  C   UNL     1      43.152 -17.808   2.459  1.00  0.00     0.014 A 
ENDBRANCH  15  16
ENDBRANCH  11  14
ENDBRANCH   5  10
BRANCH   1  23
HETATM   23  C   UNL     1      39.316 -14.329  -2.096  1.00  0.00     0.302 C 
HETATM   24  O   UNL     1      39.128 -15.364  -1.463  1.00  0.00    -0.259 OA
BRANCH  23  25
HETATM   25  O   UNL     1      39.217 -14.228  -3.451  1.00  0.00    -0.322 OA
HETATM   26  C   UNL     1      38.002 -14.751  -3.993  1.00  0.00     0.213 C 
ENDBRANCH  23  25
ENDBRANCH   1  23
BRANCH   7  27
HETATM   27  C   UNL     1      40.893  -7.240  -0.055  1.00  0.00     0.294 C 
BRANCH  27  28
HETATM   28  N   UNL     1      42.272  -6.573  -0.159  1.00  0.00    -0.061 N 
HETATM   29  H   UNL     1      42.924  -7.232   0.282  1.00  0.00     0.280 HD
HETATM   30  C   UNL     1      42.795  -6.348  -1.588  1.00  0.00     0.190 C 
HETATM   31  C   UNL     1      44.212  -5.747  -1.479  1.00  0.00     0.033 C 
HETATM   32  C   UNL     1      44.266  -4.490  -0.624  1.00  0.00     0.004 C 
HETATM   33  C   UNL     1      43.705  -4.761   0.762  1.00  0.00     0.028 C 
HETATM   34  C   UNL     1      42.291  -5.302   0.671  1.00  0.00     0.235 C 
BRANCH  30  35
HETATM   35  C   UNL     1      42.887  -7.674  -2.363  1.00  0.00     0.059 C 
BRANCH  35  36
HETATM   36  C   UNL     1      42.180  -7.644  -3.714  1.00  0.00     0.166 C 
BRANCH  36  37
HETATM   37  O   UNL     1      40.784  -7.587  -3.461  1.00  0.00    -0.401 OA
HETATM   38  H   UNL     1      40.344  -8.202  -4.077  1.00  0.00     0.209 HD
ENDBRANCH  36  37
ENDBRANCH  35  36
ENDBRANCH  30  35
ENDBRANCH  27  28
ENDBRANCH   7  27
TORSDOF 10
ENDMDL
MODEL 6
REMARK VINA RESULT:      -7.5      4.342     10.135
REMARK  10 active torsions:
REMARK  status: ('A' for Active; 'I' for Inactive)
REMARK    1  A    between atoms: O_2  and  C_3 
REMARK    2  A    between atoms: C_3  and  C_4 
REMARK    3  A    between atoms: C_8  and  N_9 
REMARK       I    between atoms: N_9  and  C_10 
REMARK    4  A    between atoms: C_10  and  C_11 
REMARK    5  A    between atoms: C_12  and  C_13 
REMARK    6  A    between atoms: C_22  and  C_23 
REMARK    7  A    between atoms: C_23  and  N_24 
REMARK    8  A    between atoms: C_26  and  C_27 
REMARK    9  A    between atoms: C_27  and  C_28 
REMARK   10  A    between atoms: C_28  and  O_29 
ROOT
HETATM    1  C   UNL     1      42.665 -14.456   4.408  1.00  0.00     0.110 C 
HETATM    2  S   UNL     1      42.111 -14.999   2.884  1.00  0.00    -0.061 SA
HETATM    3  C   UNL     1      41.914 -13.417   2.313  1.00  0.00     0.111 A 
HETATM    4  C   UNL     1      42.255 -12.452   3.251  1.00  0.00     0.028 A 
HETATM    5  C   UNL     1      42.602 -13.067   4.516  1.00  0.00     0.071 C 
HETATM    6  N   UNL     1      41.487 -13.211   1.047  1.00  0.00    -0.243 NA
HETATM    7  C   UNL     1      41.447 -11.920   0.656  1.00  0.00     0.061 A 
HETATM    8  C   UNL     1      41.820 -10.859   1.470  1.00  0.00     0.030 A 
HETATM    9  C   UNL     1      42.228 -11.119   2.777  1.00  0.00     0.019 A 
ENDROOT
BRANCH   5  10
HETATM   10  N   UNL     1      42.914 -12.443   5.733  1.00  0.00    -0.321 N 
HETATM   11  C   UNL     1      44.008 -11.645   5.979  1.00  0.00     0.245 C 
HETATM   12  O   UNL     1      44.843 -11.280   5.161  1.00  0.00    -0.268 OA
HETATM   13  H   UNL     1      42.161 -12.427   6.422  1.00  0.00     0.169 HD
BRANCH  11  14
HETATM   14  C   UNL     1      44.061 -11.193   7.397  1.00  0.00     0.075 C 
HETATM   15  C   UNL     1      43.356 -10.117   7.778  1.00  0.00     0.017 C 
BRANCH  15  16
HETATM   16  C   UNL     1      43.420  -9.571   9.137  1.00  0.00    -0.036 A 
HETATM   17  C   UNL     1      43.846 -10.406  10.180  1.00  0.00     0.014 A 
HETATM   18  C   UNL     1      43.917  -9.921  11.488  1.00  0.00     0.043 A 
HETATM   19  C   UNL     1      43.575  -8.600  11.748  1.00  0.00     0.116 A 
HETATM   20  F   UNL     1      43.642  -8.135  13.001  1.00  0.00    -0.206 F 
HETATM   21  C   UNL     1      43.170  -7.751  10.723  1.00  0.00     0.043 A 
HETATM   22  C   UNL     1      43.094  -8.236   9.415  1.00  0.00     0.014 A 
ENDBRANCH  15  16
ENDBRANCH  11  14
ENDBRANCH   5  10
BRANCH   1  23
HETATM   23  C   UNL     1      43.091 -15.385   5.445  1.00  0.00     0.302 C 
HETATM   24  O   UNL     1      43.966 -16.230   5.277  1.00  0.00    -0.259 OA
BRANCH  23  25
HETATM   25  O   UNL     1      42.393 -15.220   6.602  1.00  0.00    -0.322 OA
HETATM   26  C   UNL     1      41.093 -15.817   6.596  1.00  0.00     0.213 C 
ENDBRANCH  23  25
ENDBRANCH   1  23
BRANCH   7  27
HETATM   27  C   UNL     1      40.931 -11.652  -0.745  1.00  0.00     0.294 C 
BRANCH  27  28
HETATM   28  N   UNL     1      39.734 -12.501  -1.197  1.00  0.00    -0.061 N 
HETATM   29  H   UNL     1      39.444 -13.024  -0.362  1.00  0.00     0.280 HD
HETATM   30  C   UNL     1      38.496 -11.713  -1.657  1.00  0.00     0.190 C 
HETATM   31  C   UNL     1      37.388 -12.733  -1.991  1.00  0.00     0.033 C 
HETATM   32  C   UNL     1      37.827 -13.786  -2.998  1.00  0.00     0.004 C 
HETATM   33  C   UNL     1      39.072 -14.508  -2.509  1.00  0.00     0.028 C 
HETATM   34  C   UNL     1      40.187 -13.520  -2.228  1.00  0.00     0.235 C 
BRANCH  30  35
HETATM   35  C   UNL     1      37.981 -10.783  -0.544  1.00  0.00     0.059 C 
BRANCH  35  36
HETATM   36  C   UNL     1      37.267 -11.517   0.586  1.00  0.00     0.166 C 
BRANCH  36  37
HETATM   37  O   UNL     1      38.260 -12.183   1.353  1.00  0.00    -0.401 OA
HETATM   38  H   UNL     1      38.361 -13.083   0.990  1.00  0.00     0.209 HD
ENDBRANCH  36  37
ENDBRANCH  35  36
ENDBRANCH  30  35
ENDBRANCH  27  28
ENDBRANCH   7  27
TORSDOF 10
ENDMDL
MODEL 7
REMARK VINA RESULT:      -7.5      4.572      8.989
REMARK  10 active torsions:
REMARK  status: ('A' for Active; 'I' for Inactive)
REMARK    1  A    between atoms: O_2  and  C_3 
REMARK    2  A    between atoms: C_3  and  C_4 
REMARK    3  A    between atoms: C_8  and  N_9 
REMARK       I    between atoms: N_9  and  C_10 
REMARK    4  A    between atoms: C_10  and  C_11 
REMARK    5  A    between atoms: C_12  and  C_13 
REMARK    6  A    between atoms: C_22  and  C_23 
REMARK    7  A    between atoms: C_23  and  N_24 
REMARK    8  A    between atoms: C_26  and  C_27 
REMARK    9  A    between atoms: C_27  and  C_28 
REMARK   10  A    between atoms: C_28  and  O_29 
ROOT
HETATM    1  C   UNL     1      39.911 -12.546   3.037  1.00  0.00     0.110 C 
HETATM    2  S   UNL     1      39.021 -11.389   2.146  1.00  0.00    -0.061 SA
HETATM    3  C   UNL     1      39.173 -12.275   0.710  1.00  0.00     0.111 A 
HETATM    4  C   UNL     1      39.894 -13.451   0.868  1.00  0.00     0.028 A 
HETATM    5  C   UNL     1      40.411 -13.557   2.217  1.00  0.00     0.071 C 
HETATM    6  N   UNL     1      38.594 -11.818  -0.423  1.00  0.00    -0.243 NA
HETATM    7  C   UNL     1      38.695 -12.635  -1.491  1.00  0.00     0.061 A 
HETATM    8  C   UNL     1      39.334 -13.868  -1.457  1.00  0.00     0.030 A 
HETATM    9  C   UNL     1      39.939 -14.285  -0.273  1.00  0.00     0.019 A 
ENDROOT
BRANCH   5  10
HETATM   10  N   UNL     1      41.258 -14.539   2.753  1.00  0.00    -0.321 N 
HETATM   11  C   UNL     1      42.629 -14.579   2.637  1.00  0.00     0.245 C 
HETATM   12  O   UNL     1      43.343 -13.728   2.123  1.00  0.00    -0.268 OA
HETATM   13  H   UNL     1      40.830 -15.156   3.445  1.00  0.00     0.169 HD
BRANCH  11  14
HETATM   14  C   UNL     1      43.207 -15.792   3.279  1.00  0.00     0.075 C 
HETATM   15  C   UNL     1      42.843 -17.010   2.850  1.00  0.00     0.017 C 
BRANCH  15  16
HETATM   16  C   UNL     1      43.312 -18.245   3.484  1.00  0.00    -0.036 A 
HETATM   17  C   UNL     1      43.606 -18.230   4.855  1.00  0.00     0.014 A 
HETATM   18  C   UNL     1      44.059 -19.388   5.492  1.00  0.00     0.043 A 
HETATM   19  C   UNL     1      44.203 -20.560   4.761  1.00  0.00     0.116 A 
HETATM   20  F   UNL     1      44.638 -21.669   5.371  1.00  0.00    -0.206 F 
HETATM   21  C   UNL     1      43.897 -20.599   3.405  1.00  0.00     0.043 A 
HETATM   22  C   UNL     1      43.449 -19.442   2.765  1.00  0.00     0.014 A 
ENDBRANCH  15  16
ENDBRANCH  11  14
ENDBRANCH   5  10
BRANCH   1  23
HETATM   23  C   UNL     1      40.126 -12.409   4.470  1.00  0.00     0.302 C 
HETATM   24  O   UNL     1      39.239 -12.563   5.306  1.00  0.00    -0.259 OA
BRANCH  23  25
HETATM   25  O   UNL     1      41.411 -12.069   4.768  1.00  0.00    -0.322 OA
HETATM   26  C   UNL     1      41.965 -12.774   5.882  1.00  0.00     0.213 C 
ENDBRANCH  23  25
ENDBRANCH   1  23
BRANCH   7  27
HETATM   27  C   UNL     1      38.093 -12.132  -2.789  1.00  0.00     0.294 C 
BRANCH  27  28
HETATM   28  N   UNL     1      37.619 -10.671  -2.791  1.00  0.00    -0.061 N 
HETATM   29  H   UNL     1      37.861 -10.308  -1.862  1.00  0.00     0.280 HD
HETATM   30  C   UNL     1      38.316  -9.748  -3.804  1.00  0.00     0.190 C 
HETATM   31  C   UNL     1      37.762  -8.323  -3.597  1.00  0.00     0.033 C 
HETATM   32  C   UNL     1      36.244  -8.252  -3.678  1.00  0.00     0.004 C 
HETATM   33  C   UNL     1      35.610  -9.208  -2.682  1.00  0.00     0.028 C 
HETATM   34  C   UNL     1      36.106 -10.624  -2.910  1.00  0.00     0.235 C 
BRANCH  30  35
HETATM   35  C   UNL     1      39.837  -9.716  -3.576  1.00  0.00     0.059 C 
BRANCH  35  36
HETATM   36  C   UNL     1      40.275  -8.734  -2.494  1.00  0.00     0.166 C 
BRANCH  36  37
HETATM   37  O   UNL     1      39.924  -9.301  -1.240  1.00  0.00    -0.401 OA
HETATM   38  H   UNL     1      39.083  -8.898  -0.956  1.00  0.00     0.209 HD
ENDBRANCH  36  37
ENDBRANCH  35  36
ENDBRANCH  30  35
ENDBRANCH  27  28
ENDBRANCH   7  27
TORSDOF 10
ENDMDL
MODEL 8
REMARK VINA RESULT:      -7.5      5.269      8.737
REMARK  10 active torsions:
REMARK  status: ('A' for Active; 'I' for Inactive)
REMARK    1  A    between atoms: O_2  and  C_3 
REMARK    2  A    between atoms: C_3  and  C_4 
REMARK    3  A    between atoms: C_8  and  N_9 
REMARK       I    between atoms: N_9  and  C_10 
REMARK    4  A    between atoms: C_10  and  C_11 
REMARK    5  A    between atoms: C_12  and  C_13 
REMARK    6  A    between atoms: C_22  and  C_23 
REMARK    7  A    between atoms: C_23  and  N_24 
REMARK    8  A    between atoms: C_26  and  C_27 
REMARK    9  A    between atoms: C_27  and  C_28 
REMARK   10  A    between atoms: C_28  and  O_29 
ROOT
HETATM    1  C   UNL     1      40.044 -11.853   1.576  1.00  0.00     0.110 C 
HETATM    2  S   UNL     1      39.763 -10.284   0.957  1.00  0.00    -0.061 SA
HETATM    3  C   UNL     1      40.323 -10.716  -0.582  1.00  0.00     0.111 A 
HETATM    4  C   UNL     1      40.735 -12.039  -0.662  1.00  0.00     0.028 A 
HETATM    5  C   UNL     1      40.662 -12.677   0.636  1.00  0.00     0.071 C 
HETATM    6  N   UNL     1      40.310  -9.803  -1.579  1.00  0.00    -0.243 NA
HETATM    7  C   UNL     1      40.691 -10.265  -2.788  1.00  0.00     0.061 A 
HETATM    8  C   UNL     1      41.067 -11.581  -3.023  1.00  0.00     0.030 A 
HETATM    9  C   UNL     1      41.091 -12.479  -1.958  1.00  0.00     0.019 A 
ENDROOT
BRANCH   5  10
HETATM   10  N   UNL     1      41.070 -13.969   0.998  1.00  0.00    -0.321 N 
HETATM   11  C   UNL     1      42.217 -14.295   1.687  1.00  0.00     0.245 C 
HETATM   12  O   UNL     1      43.026 -13.513   2.168  1.00  0.00    -0.268 OA
HETATM   13  H   UNL     1      40.357 -14.695   0.912  1.00  0.00     0.169 HD
BRANCH  11  14
HETATM   14  C   UNL     1      42.368 -15.768   1.853  1.00  0.00     0.075 C 
HETATM   15  C   UNL     1      43.111 -16.251   2.859  1.00  0.00     0.017 C 
BRANCH  15  16
HETATM   16  C   UNL     1      43.365 -17.684   3.038  1.00  0.00    -0.036 A 
HETATM   17  C   UNL     1      43.968 -18.118   4.227  1.00  0.00     0.014 A 
HETATM   18  C   UNL     1      44.228 -19.475   4.431  1.00  0.00     0.043 A 
HETATM   19  C   UNL     1      43.873 -20.395   3.453  1.00  0.00     0.116 A 
HETATM   20  F   UNL     1      44.123 -21.696   3.647  1.00  0.00    -0.206 F 
HETATM   21  C   UNL     1      43.256 -19.985   2.276  1.00  0.00     0.043 A 
HETATM   22  C   UNL     1      43.000 -18.628   2.068  1.00  0.00     0.014 A 
ENDBRANCH  15  16
ENDBRANCH  11  14
ENDBRANCH   5  10
BRANCH   1  23
HETATM   23  C   UNL     1      39.703 -12.209   2.946  1.00  0.00     0.302 C 
HETATM   24  O   UNL     1      39.081 -13.225   3.247  1.00  0.00    -0.259 OA
BRANCH  23  25
HETATM   25  O   UNL     1      40.129 -11.276   3.842  1.00  0.00    -0.322 OA
HETATM   26  C   UNL     1      39.115 -10.811   4.737  1.00  0.00     0.213 C 
ENDBRANCH  23  25
ENDBRANCH   1  23
BRANCH   7  27
HETATM   27  C   UNL     1      40.728  -9.255  -3.919  1.00  0.00     0.294 C 
BRANCH  27  28
HETATM   28  N   UNL     1      40.521  -7.787  -3.520  1.00  0.00    -0.061 N 
HETATM   29  H   UNL     1      40.295  -7.810  -2.518  1.00  0.00     0.280 HD
HETATM   30  C   UNL     1      41.756  -6.881  -3.657  1.00  0.00     0.190 C 
HETATM   31  C   UNL     1      41.369  -5.480  -3.138  1.00  0.00     0.033 C 
HETATM   32  C   UNL     1      40.136  -4.908  -3.820  1.00  0.00     0.004 C 
HETATM   33  C   UNL     1      38.959  -5.859  -3.683  1.00  0.00     0.028 C 
HETATM   34  C   UNL     1      39.308  -7.226  -4.240  1.00  0.00     0.235 C 
BRANCH  30  35
HETATM   35  C   UNL     1      42.930  -7.405  -2.813  1.00  0.00     0.059 C 
BRANCH  35  36
HETATM   36  C   UNL     1      42.779  -7.137  -1.319  1.00  0.00     0.166 C 
BRANCH  36  37
HETATM   37  O   UNL     1      42.937  -8.378  -0.647  1.00  0.00    -0.401 OA
HETATM   38  H   UNL     1      42.984  -8.195   0.309  1.00  0.00     0.209 HD
ENDBRANCH  36  37
ENDBRANCH  35  36
ENDBRANCH  30  35
ENDBRANCH  27  28
ENDBRANCH   7  27
TORSDOF 10
ENDMDL
MODEL 9
REMARK VINA RESULT:      -7.5      3.203      5.003
REMARK  10 active torsions:
REMARK  status: ('A' for Active; 'I' for Inactive)
REMARK    1  A    between atoms: O_2  and  C_3 
REMARK    2  A    between atoms: C_3  and  C_4 
REMARK    3  A    between atoms: C_8  and  N_9 
REMARK       I    between atoms: N_9  and  C_10 
REMARK    4  A    between atoms: C_10  and  C_11 
REMARK    5  A    between atoms: C_12  and  C_13 
REMARK    6  A    between atoms: C_22  and  C_23 
REMARK    7  A    between atoms: C_23  and  N_24 
REMARK    8  A    between atoms: C_26  and  C_27 
REMARK    9  A    between atoms: C_27  and  C_28 
REMARK   10  A    between atoms: C_28  and  O_29 
ROOT
HETATM    1  C   UNL     1      42.872 -13.562   5.457  1.00  0.00     0.110 C 
HETATM    2  S   UNL     1      43.919 -13.000   6.688  1.00  0.00    -0.061 SA
HETATM    3  C   UNL     1      43.220 -11.457   6.674  1.00  0.00     0.111 A 
HETATM    4  C   UNL     1      42.194 -11.331   5.747  1.00  0.00     0.028 A 
HETATM    5  C   UNL     1      42.060 -12.542   4.964  1.00  0.00     0.071 C 
HETATM    6  N   UNL     1      43.665 -10.513   7.534  1.00  0.00    -0.243 NA
HETATM    7  C   UNL     1      42.988  -9.347   7.508  1.00  0.00     0.061 A 
HETATM    8  C   UNL     1      41.903  -9.106   6.676  1.00  0.00     0.030 A 
HETATM    9  C   UNL     1      41.498 -10.100   5.787  1.00  0.00     0.019 A 
ENDROOT
BRANCH   5  10
HETATM   10  N   UNL     1      41.211 -12.787   3.875  1.00  0.00    -0.321 N 
HETATM   11  C   UNL     1      39.837 -12.871   3.919  1.00  0.00     0.245 C 
HETATM   12  O   UNL     1      39.125 -12.665   4.894  1.00  0.00    -0.268 OA
HETATM   13  H   UNL     1      41.642 -12.698   2.954  1.00  0.00     0.169 HD
BRANCH  11  14
HETATM   14  C   UNL     1      39.255 -13.199   2.588  1.00  0.00     0.075 C 
HETATM   15  C   UNL     1      40.006 -13.071   1.484  1.00  0.00     0.017 C 
BRANCH  15  16
HETATM   16  C   UNL     1      39.476 -13.302   0.137  1.00  0.00    -0.036 A 
HETATM   17  C   UNL     1      39.756 -14.521  -0.497  1.00  0.00     0.014 A 
HETATM   18  C   UNL     1      39.270 -14.775  -1.782  1.00  0.00     0.043 A 
HETATM   19  C   UNL     1      38.496 -13.817  -2.424  1.00  0.00     0.116 A 
HETATM   20  F   UNL     1      38.032 -14.060  -3.656  1.00  0.00    -0.206 F 
HETATM   21  C   UNL     1      38.192 -12.611  -1.803  1.00  0.00     0.043 A 
HETATM   22  C   UNL     1      38.680 -12.353  -0.520  1.00  0.00     0.014 A 
ENDBRANCH  15  16
ENDBRANCH  11  14
ENDBRANCH   5  10
BRANCH   1  23
HETATM   23  C   UNL     1      42.909 -14.940   4.990  1.00  0.00     0.302 C 
HETATM   24  O   UNL     1      42.752 -15.909   5.728  1.00  0.00    -0.259 OA
BRANCH  23  25
HETATM   25  O   UNL     1      43.163 -15.025   3.654  1.00  0.00    -0.322 OA
HETATM   26  C   UNL     1      42.391 -16.016   2.970  1.00  0.00     0.213 C 
ENDBRANCH  23  25
ENDBRANCH   1  23
BRANCH   7  27
HETATM   27  C   UNL     1      43.490  -8.252   8.430  1.00  0.00     0.294 C 
BRANCH  27  28
HETATM   28  N   UNL     1      42.834  -8.185   9.817  1.00  0.00    -0.061 N 
HETATM   29  H   UNL     1      42.222  -9.008   9.865  1.00  0.00     0.280 HD
HETATM   30  C   UNL     1      43.795  -8.298  11.012  1.00  0.00     0.190 C 
HETATM   31  C   UNL     1      42.945  -8.290  12.300  1.00  0.00     0.033 C 
HETATM   32  C   UNL     1      42.018  -7.087  12.397  1.00  0.00     0.004 C 
HETATM   33  C   UNL     1      41.118  -7.005  11.176  1.00  0.00     0.028 C 
HETATM   34  C   UNL     1      41.944  -6.958   9.905  1.00  0.00     0.235 C 
BRANCH  30  35
HETATM   35  C   UNL     1      44.592  -9.614  10.965  1.00  0.00     0.059 C 
BRANCH  35  36
HETATM   36  C   UNL     1      43.780 -10.838  11.377  1.00  0.00     0.166 C 
BRANCH  36  37
HETATM   37  O   UNL     1      43.643 -11.662  10.228  1.00  0.00    -0.401 OA
HETATM   38  H   UNL     1      42.929 -12.303  10.405  1.00  0.00     0.209 HD
ENDBRANCH  36  37
ENDBRANCH  35  36
ENDBRANCH  30  35
ENDBRANCH  27  28
ENDBRANCH   7  27
TORSDOF 10
ENDMDL
MODEL 10
REMARK VINA RESULT:      -7.3      4.356     10.272
REMARK  10 active torsions:
REMARK  status: ('A' for Active; 'I' for Inactive)
REMARK    1  A    between atoms: O_2  and  C_3 
REMARK    2  A    between atoms: C_3  and  C_4 
REMARK    3  A    between atoms: C_8  and  N_9 
REMARK       I    between atoms: N_9  and  C_10 
REMARK    4  A    between atoms: C_10  and  C_11 
REMARK    5  A    between atoms: C_12  and  C_13 
REMARK    6  A    between atoms: C_22  and  C_23 
REMARK    7  A    between atoms: C_23  and  N_24 
REMARK    8  A    between atoms: C_26  and  C_27 
REMARK    9  A    between atoms: C_27  and  C_28 
REMARK   10  A    between atoms: C_28  and  O_29 
ROOT
HETATM    1  C   UNL     1      41.495  -8.596   6.138  1.00  0.00     0.110 C 
HETATM    2  S   UNL     1      41.649  -9.144   4.525  1.00  0.00    -0.061 SA
HETATM    3  C   UNL     1      41.056 -10.681   4.918  1.00  0.00     0.111 A 
HETATM    4  C   UNL     1      40.735 -10.816   6.262  1.00  0.00     0.028 A 
HETATM    5  C   UNL     1      41.089  -9.618   6.995  1.00  0.00     0.071 C 
HETATM    6  N   UNL     1      40.919 -11.613   3.948  1.00  0.00    -0.243 NA
HETATM    7  C   UNL     1      40.357 -12.775   4.341  1.00  0.00     0.061 A 
HETATM    8  C   UNL     1      39.932 -13.021   5.639  1.00  0.00     0.030 A 
HETATM    9  C   UNL     1      40.119 -12.040   6.611  1.00  0.00     0.019 A 
ENDROOT
BRANCH   5  10
HETATM   10  N   UNL     1      41.012  -9.385   8.376  1.00  0.00    -0.321 N 
HETATM   11  C   UNL     1      39.860  -9.337   9.128  1.00  0.00     0.245 C 
HETATM   12  O   UNL     1      38.723  -9.570   8.736  1.00  0.00    -0.268 OA
HETATM   13  H   UNL     1      41.895  -9.456   8.883  1.00  0.00     0.169 HD
BRANCH  11  14
HETATM   14  C   UNL     1      40.137  -9.013  10.555  1.00  0.00     0.075 C 
HETATM   15  C   UNL     1      41.209  -8.271  10.872  1.00  0.00     0.017 C 
BRANCH  15  16
HETATM   16  C   UNL     1      41.586  -7.978  12.258  1.00  0.00    -0.036 A 
HETATM   17  C   UNL     1      40.618  -8.118  13.263  1.00  0.00     0.014 A 
HETATM   18  C   UNL     1      40.941  -7.845  14.595  1.00  0.00     0.043 A 
HETATM   19  C   UNL     1      42.231  -7.446  14.919  1.00  0.00     0.116 A 
HETATM   20  F   UNL     1      42.539  -7.183  16.195  1.00  0.00    -0.206 F 
HETATM   21  C   UNL     1      43.208  -7.321  13.939  1.00  0.00     0.043 A 
HETATM   22  C   UNL     1      42.887  -7.589  12.606  1.00  0.00     0.014 A 
ENDBRANCH  15  16
ENDBRANCH  11  14
ENDBRANCH   5  10
BRANCH   1  23
HETATM   23  C   UNL     1      41.813  -7.226   6.516  1.00  0.00     0.302 C 
HETATM   24  O   UNL     1      42.643  -6.936   7.374  1.00  0.00    -0.259 OA
BRANCH  23  25
HETATM   25  O   UNL     1      41.069  -6.316   5.827  1.00  0.00    -0.322 OA
HETATM   26  C   UNL     1      41.833  -5.274   5.213  1.00  0.00     0.213 C 
ENDBRANCH  23  25
ENDBRANCH   1  23
BRANCH   7  27
HETATM   27  C   UNL     1      40.229 -13.857   3.286  1.00  0.00     0.294 C 
BRANCH  27  28
HETATM   28  N   UNL     1      41.436 -14.794   3.130  1.00  0.00    -0.061 N 
HETATM   29  H   UNL     1      42.123 -14.464   3.818  1.00  0.00     0.280 HD
HETATM   30  C   UNL     1      41.176 -16.273   3.463  1.00  0.00     0.190 C 
HETATM   31  C   UNL     1      42.515 -17.026   3.323  1.00  0.00     0.033 C 
HETATM   32  C   UNL     1      43.173 -16.832   1.965  1.00  0.00     0.004 C 
HETATM   33  C   UNL     1      43.373 -15.354   1.674  1.00  0.00     0.028 C 
HETATM   34  C   UNL     1      42.054 -14.610   1.756  1.00  0.00     0.235 C 
BRANCH  30  35
HETATM   35  C   UNL     1      40.672 -16.440   4.907  1.00  0.00     0.059 C 
BRANCH  35  36
HETATM   36  C   UNL     1      41.791 -16.512   5.942  1.00  0.00     0.166 C 
BRANCH  36  37
HETATM   37  O   UNL     1      41.280 -15.981   7.156  1.00  0.00    -0.401 OA
HETATM   38  H   UNL     1      41.108 -16.729   7.758  1.00  0.00     0.209 HD
ENDBRANCH  36  37
ENDBRANCH  35  36
ENDBRANCH  30  35
ENDBRANCH  27  28
ENDBRANCH   7  27
TORSDOF 10
ENDMDL
