MODEL 1
REMARK VINA RESULT:      -6.0      0.000      0.000
REMARK  2 active torsions:
REMARK  status: ('A' for Active; 'I' for Inactive)
REMARK    1  A    between atoms: C_3  and  S_4 
REMARK    2  A    between atoms: C_9  and  N_10 
ROOT
HETATM    1  C   UNL     1      43.960 -18.457   3.617  1.00  0.00     0.050 C 
HETATM    2  C   UNL     1      43.252 -17.131   3.634  1.00  0.00    -0.039 A 
HETATM    3  C   UNL     1      43.075 -16.329   4.773  1.00  0.00     0.067 A 
HETATM    4  C   UNL     1      42.413 -15.087   4.681  1.00  0.00     0.055 A 
HETATM    5  C   UNL     1      41.876 -14.618   3.473  1.00  0.00     0.053 A 
HETATM    6  C   UNL     1      42.013 -15.457   2.347  1.00  0.00     0.061 A 
HETATM    7 CL   UNL     1      41.307 -15.036   0.820  1.00  0.00    -0.082 Cl
HETATM    8  C   UNL     1      42.687 -16.683   2.428  1.00  0.00     0.034 A 
ENDROOT
BRANCH   5   9
HETATM    9  N   UNL     1      41.235 -13.366   3.382  1.00  0.00    -0.376 N 
HETATM   10  C   UNL     1      40.228 -13.031   4.408  1.00  0.00     0.150 C 
HETATM   11  C   UNL     1      39.403 -11.812   3.940  1.00  0.00     0.252 C 
HETATM   12  N   UNL     1      40.318 -10.657   3.598  1.00  0.00    -0.072 N 
HETATM   13  H   UNL     1      40.774 -10.316   4.453  1.00  0.00     0.277 HD
HETATM   14  H   UNL     1      39.758  -9.878   3.229  1.00  0.00     0.277 HD
HETATM   15  C   UNL     1      41.376 -11.035   2.583  1.00  0.00     0.252 C 
HETATM   16  C   UNL     1      42.173 -12.261   3.070  1.00  0.00     0.150 C 
ENDBRANCH   5   9
BRANCH   3  17
HETATM   17  S   UNL     1      43.703 -16.782   6.390  1.00  0.00     0.172 S 
HETATM   18  C   UNL     1      42.918 -15.678   7.533  1.00  0.00     0.167 C 
HETATM   19  O   UNL     1      43.274 -18.141   6.649  1.00  0.00    -0.223 OA
HETATM   20  O   UNL     1      45.119 -16.448   6.393  1.00  0.00    -0.223 OA
ENDBRANCH   3  17
TORSDOF 2
ENDMDL
MODEL 2
REMARK VINA RESULT:      -5.6      3.288      5.481
REMARK  2 active torsions:
REMARK  status: ('A' for Active; 'I' for Inactive)
REMARK    1  A    between atoms: C_3  and  S_4 
REMARK    2  A    between atoms: C_9  and  N_10 
ROOT
HETATM    1  C   UNL     1      40.216 -11.283   4.124  1.00  0.00     0.050 C 
HETATM    2  C   UNL     1      40.921 -12.609   4.073  1.00  0.00    -0.039 A 
HETATM    3  C   UNL     1      42.158 -12.885   4.677  1.00  0.00     0.067 A 
HETATM    4  C   UNL     1      42.728 -14.173   4.590  1.00  0.00     0.055 A 
HETATM    5  C   UNL     1      42.113 -15.212   3.878  1.00  0.00     0.053 A 
HETATM    6  C   UNL     1      40.896 -14.908   3.231  1.00  0.00     0.061 A 
HETATM    7 CL   UNL     1      40.088 -16.078   2.237  1.00  0.00    -0.082 Cl
HETATM    8  C   UNL     1      40.316 -13.637   3.330  1.00  0.00     0.034 A 
ENDROOT
BRANCH   5   9
HETATM    9  N   UNL     1      42.676 -16.503   3.814  1.00  0.00    -0.376 N 
HETATM   10  C   UNL     1      43.221 -16.954   2.518  1.00  0.00     0.150 C 
HETATM   11  C   UNL     1      43.451 -18.480   2.561  1.00  0.00     0.252 C 
HETATM   12  N   UNL     1      44.326 -18.847   3.739  1.00  0.00    -0.072 N 
HETATM   13  H   UNL     1      45.272 -18.472   3.594  1.00  0.00     0.277 HD
HETATM   14  H   UNL     1      44.417 -19.870   3.788  1.00  0.00     0.277 HD
HETATM   15  C   UNL     1      43.778 -18.332   5.053  1.00  0.00     0.252 C 
HETATM   16  C   UNL     1      43.544 -16.810   4.975  1.00  0.00     0.150 C 
ENDBRANCH   5   9
BRANCH   3  17
HETATM   17  S   UNL     1      43.072 -11.668   5.626  1.00  0.00     0.172 S 
HETATM   18  C   UNL     1      44.287 -12.586   6.533  1.00  0.00     0.167 C 
HETATM   19  O   UNL     1      43.727 -10.793   4.678  1.00  0.00    -0.223 OA
HETATM   20  O   UNL     1      42.143 -11.125   6.604  1.00  0.00    -0.223 OA
ENDBRANCH   3  17
TORSDOF 2
ENDMDL
MODEL 3
REMARK VINA RESULT:      -5.6      5.290      6.468
REMARK  2 active torsions:
REMARK  status: ('A' for Active; 'I' for Inactive)
REMARK    1  A    between atoms: C_3  and  S_4 
REMARK    2  A    between atoms: C_9  and  N_10 
ROOT
HETATM    1  C   UNL     1      39.074 -14.985  -2.088  1.00  0.00     0.050 C 
HETATM    2  C   UNL     1      39.749 -14.405  -0.876  1.00  0.00    -0.039 A 
HETATM    3  C   UNL     1      40.346 -13.136  -0.820  1.00  0.00     0.067 A 
HETATM    4  C   UNL     1      40.937 -12.673   0.375  1.00  0.00     0.055 A 
HETATM    5  C   UNL     1      40.986 -13.460   1.534  1.00  0.00     0.053 A 
HETATM    6  C   UNL     1      40.429 -14.754   1.450  1.00  0.00     0.061 A 
HETATM    7 CL   UNL     1      40.515 -15.860   2.783  1.00  0.00    -0.082 Cl
HETATM    8  C   UNL     1      39.824 -15.212   0.272  1.00  0.00     0.034 A 
ENDROOT
BRANCH   5   9
HETATM    9  N   UNL     1      41.557 -12.984   2.731  1.00  0.00    -0.376 N 
HETATM   10  C   UNL     1      42.803 -12.197   2.636  1.00  0.00     0.150 C 
HETATM   11  C   UNL     1      43.447 -12.084   4.035  1.00  0.00     0.252 C 
HETATM   12  N   UNL     1      42.455 -11.517   5.027  1.00  0.00    -0.072 N 
HETATM   13  H   UNL     1      42.247 -10.540   4.785  1.00  0.00     0.277 HD
HETATM   14  H   UNL     1      42.880 -11.508   5.963  1.00  0.00     0.277 HD
HETATM   15  C   UNL     1      41.164 -12.307   5.073  1.00  0.00     0.252 C 
HETATM   16  C   UNL     1      40.553 -12.417   3.663  1.00  0.00     0.150 C 
ENDBRANCH   5   9
BRANCH   3  17
HETATM   17  S   UNL     1      40.367 -12.006  -2.212  1.00  0.00     0.172 S 
HETATM   18  C   UNL     1      41.324 -10.612  -1.681  1.00  0.00     0.167 C 
HETATM   19  O   UNL     1      41.046 -12.680  -3.298  1.00  0.00    -0.223 OA
HETATM   20  O   UNL     1      39.001 -11.535  -2.382  1.00  0.00    -0.223 OA
ENDBRANCH   3  17
TORSDOF 2
ENDMDL
MODEL 4
REMARK VINA RESULT:      -5.5      3.285      4.789
REMARK  2 active torsions:
REMARK  status: ('A' for Active; 'I' for Inactive)
REMARK    1  A    between atoms: C_3  and  S_4 
REMARK    2  A    between atoms: C_9  and  N_10 
ROOT
HETATM    1  C   UNL     1      40.137 -13.375   5.965  1.00  0.00     0.050 C 
HETATM    2  C   UNL     1      40.141 -13.415   4.463  1.00  0.00    -0.039 A 
HETATM    3  C   UNL     1      40.877 -14.324   3.686  1.00  0.00     0.067 A 
HETATM    4  C   UNL     1      40.797 -14.294   2.277  1.00  0.00     0.055 A 
HETATM    5  C   UNL     1      40.018 -13.348   1.597  1.00  0.00     0.053 A 
HETATM    6  C   UNL     1      39.324 -12.406   2.387  1.00  0.00     0.061 A 
HETATM    7 CL   UNL     1      38.406 -11.126   1.662  1.00  0.00    -0.082 Cl
HETATM    8  C   UNL     1      39.384 -12.443   3.786  1.00  0.00     0.034 A 
ENDROOT
BRANCH   5   9
HETATM    9  N   UNL     1      39.923 -13.338   0.190  1.00  0.00    -0.376 N 
HETATM   10  C   UNL     1      40.865 -12.482  -0.558  1.00  0.00     0.150 C 
HETATM   11  C   UNL     1      40.376 -12.332  -2.015  1.00  0.00     0.252 C 
HETATM   12  N   UNL     1      40.173 -13.692  -2.645  1.00  0.00    -0.072 N 
HETATM   13  H   UNL     1      41.081 -14.161  -2.750  1.00  0.00     0.277 HD
HETATM   14  H   UNL     1      39.788 -13.574  -3.591  1.00  0.00     0.277 HD
HETATM   15  C   UNL     1      39.245 -14.574  -1.836  1.00  0.00     0.252 C 
HETATM   16  C   UNL     1      39.748 -14.693  -0.385  1.00  0.00     0.150 C 
ENDBRANCH   5   9
BRANCH   3  17
HETATM   17  S   UNL     1      41.918 -15.596   4.401  1.00  0.00     0.172 S 
HETATM   18  C   UNL     1      42.466 -16.587   3.037  1.00  0.00     0.167 C 
HETATM   19  O   UNL     1      43.052 -14.930   5.007  1.00  0.00    -0.223 OA
HETATM   20  O   UNL     1      41.048 -16.438   5.206  1.00  0.00    -0.223 OA
ENDBRANCH   3  17
TORSDOF 2
ENDMDL
MODEL 5
REMARK VINA RESULT:      -5.5      4.060      6.102
REMARK  2 active torsions:
REMARK  status: ('A' for Active; 'I' for Inactive)
REMARK    1  A    between atoms: C_3  and  S_4 
REMARK    2  A    between atoms: C_9  and  N_10 
ROOT
HETATM    1  C   UNL     1      41.687 -10.821   2.636  1.00  0.00     0.050 C 
HETATM    2  C   UNL     1      42.012 -12.162   3.234  1.00  0.00    -0.039 A 
HETATM    3  C   UNL     1      41.530 -13.392   2.757  1.00  0.00     0.067 A 
HETATM    4  C   UNL     1      41.912 -14.601   3.376  1.00  0.00     0.055 A 
HETATM    5  C   UNL     1      42.749 -14.628   4.500  1.00  0.00     0.053 A 
HETATM    6  C   UNL     1      43.184 -13.383   5.002  1.00  0.00     0.061 A 
HETATM    7 CL   UNL     1      44.142 -13.279   6.445  1.00  0.00    -0.082 Cl
HETATM    8  C   UNL     1      42.824 -12.180   4.380  1.00  0.00     0.034 A 
ENDROOT
BRANCH   5   9
HETATM    9  N   UNL     1      43.145 -15.841   5.101  1.00  0.00    -0.376 N 
HETATM   10  C   UNL     1      42.362 -16.329   6.253  1.00  0.00     0.150 C 
HETATM   11  C   UNL     1      43.150 -17.443   6.975  1.00  0.00     0.252 C 
HETATM   12  N   UNL     1      43.527 -18.537   6.001  1.00  0.00    -0.072 N 
HETATM   13  H   UNL     1      42.678 -19.020   5.681  1.00  0.00     0.277 HD
HETATM   14  H   UNL     1      44.104 -19.238   6.484  1.00  0.00     0.277 HD
HETATM   15  C   UNL     1      44.285 -18.010   4.801  1.00  0.00     0.252 C 
HETATM   16  C   UNL     1      43.483 -16.890   4.110  1.00  0.00     0.150 C 
ENDBRANCH   5   9
BRANCH   3  17
HETATM   17  S   UNL     1      40.454 -13.529   1.329  1.00  0.00     0.172 S 
HETATM   18  C   UNL     1      40.181 -15.265   1.104  1.00  0.00     0.167 C 
HETATM   19  O   UNL     1      39.207 -12.878   1.671  1.00  0.00    -0.223 OA
HETATM   20  O   UNL     1      41.228 -13.076   0.184  1.00  0.00    -0.223 OA
ENDBRANCH   3  17
TORSDOF 2
ENDMDL
MODEL 6
REMARK VINA RESULT:      -5.5      9.530     11.060
REMARK  2 active torsions:
REMARK  status: ('A' for Active; 'I' for Inactive)
REMARK    1  A    between atoms: C_3  and  S_4 
REMARK    2  A    between atoms: C_9  and  N_10 
ROOT
HETATM    1  C   UNL     1      44.835  -9.925  10.582  1.00  0.00     0.050 C 
HETATM    2  C   UNL     1      43.653  -9.112  11.030  1.00  0.00    -0.039 A 
HETATM    3  C   UNL     1      42.973  -8.176  10.235  1.00  0.00     0.067 A 
HETATM    4  C   UNL     1      41.858  -7.477  10.743  1.00  0.00     0.055 A 
HETATM    5  C   UNL     1      41.403  -7.657  12.057  1.00  0.00     0.053 A 
HETATM    6  C   UNL     1      42.126  -8.562  12.864  1.00  0.00     0.061 A 
HETATM    7 CL   UNL     1      41.725  -8.798  14.534  1.00  0.00    -0.082 Cl
HETATM    8  C   UNL     1      43.223  -9.273  12.359  1.00  0.00     0.034 A 
ENDROOT
BRANCH   5   9
HETATM    9  N   UNL     1      40.274  -6.974  12.552  1.00  0.00    -0.376 N 
HETATM   10  C   UNL     1      40.200  -5.516  12.335  1.00  0.00     0.150 C 
HETATM   11  C   UNL     1      39.104  -4.916  13.241  1.00  0.00     0.252 C 
HETATM   12  N   UNL     1      37.786  -5.623  13.013  1.00  0.00    -0.072 N 
HETATM   13  H   UNL     1      37.446  -5.416  12.065  1.00  0.00     0.277 HD
HETATM   14  H   UNL     1      37.085  -5.254  13.668  1.00  0.00     0.277 HD
HETATM   15  C   UNL     1      37.894  -7.123  13.190  1.00  0.00     0.252 C 
HETATM   16  C   UNL     1      39.004  -7.691  12.285  1.00  0.00     0.150 C 
ENDBRANCH   5   9
BRANCH   3  17
HETATM   17  S   UNL     1      43.426  -7.831   8.535  1.00  0.00     0.172 S 
HETATM   18  C   UNL     1      42.282  -6.597   7.978  1.00  0.00     0.167 C 
HETATM   19  O   UNL     1      44.766  -7.282   8.553  1.00  0.00    -0.223 OA
HETATM   20  O   UNL     1      43.139  -9.039   7.778  1.00  0.00    -0.223 OA
ENDBRANCH   3  17
TORSDOF 2
ENDMDL
MODEL 7
REMARK VINA RESULT:      -5.5      4.109      6.231
REMARK  2 active torsions:
REMARK  status: ('A' for Active; 'I' for Inactive)
REMARK    1  A    between atoms: C_3  and  S_4 
REMARK    2  A    between atoms: C_9  and  N_10 
ROOT
HETATM    1  C   UNL     1      39.435 -11.904   5.189  1.00  0.00     0.050 C 
HETATM    2  C   UNL     1      40.182 -13.138   4.768  1.00  0.00    -0.039 A 
HETATM    3  C   UNL     1      40.556 -13.440   3.448  1.00  0.00     0.067 A 
HETATM    4  C   UNL     1      41.277 -14.618   3.158  1.00  0.00     0.055 A 
HETATM    5  C   UNL     1      41.618 -15.545   4.152  1.00  0.00     0.053 A 
HETATM    6  C   UNL     1      41.192 -15.257   5.466  1.00  0.00     0.061 A 
HETATM    7 CL   UNL     1      41.466 -16.371   6.767  1.00  0.00    -0.082 Cl
HETATM    8  C   UNL     1      40.492 -14.080   5.764  1.00  0.00     0.034 A 
ENDROOT
BRANCH   5   9
HETATM    9  N   UNL     1      42.359 -16.708   3.860  1.00  0.00    -0.376 N 
HETATM   10  C   UNL     1      42.343 -17.204   2.470  1.00  0.00     0.150 C 
HETATM   11  C   UNL     1      42.896 -18.646   2.432  1.00  0.00     0.252 C 
HETATM   12  N   UNL     1      44.265 -18.702   3.073  1.00  0.00    -0.072 N 
HETATM   13  H   UNL     1      44.935 -18.179   2.496  1.00  0.00     0.277 HD
HETATM   14  H   UNL     1      44.589 -19.677   3.096  1.00  0.00     0.277 HD
HETATM   15  C   UNL     1      44.271 -18.141   4.480  1.00  0.00     0.252 C 
HETATM   16  C   UNL     1      43.701 -16.709   4.488  1.00  0.00     0.150 C 
ENDBRANCH   5   9
BRANCH   3  17
HETATM   17  S   UNL     1      40.198 -12.360   2.063  1.00  0.00     0.172 S 
HETATM   18  C   UNL     1      40.893 -13.159   0.643  1.00  0.00     0.167 C 
HETATM   19  O   UNL     1      38.757 -12.296   1.932  1.00  0.00    -0.223 OA
HETATM   20  O   UNL     1      40.968 -11.145   2.277  1.00  0.00    -0.223 OA
ENDBRANCH   3  17
TORSDOF 2
ENDMDL
MODEL 8
REMARK VINA RESULT:      -5.5     15.628     16.554
REMARK  2 active torsions:
REMARK  status: ('A' for Active; 'I' for Inactive)
REMARK    1  A    between atoms: C_3  and  S_4 
REMARK    2  A    between atoms: C_9  and  N_10 
ROOT
HETATM    1  C   UNL     1      47.641 -27.926  -1.510  1.00  0.00     0.050 C 
HETATM    2  C   UNL     1      46.465 -28.618  -0.881  1.00  0.00    -0.039 A 
HETATM    3  C   UNL     1      45.336 -29.078  -1.579  1.00  0.00     0.067 A 
HETATM    4  C   UNL     1      44.291 -29.737  -0.899  1.00  0.00     0.055 A 
HETATM    5  C   UNL     1      44.312 -29.930   0.490  1.00  0.00     0.053 A 
HETATM    6  C   UNL     1      45.427 -29.417   1.187  1.00  0.00     0.061 A 
HETATM    7 CL   UNL     1      45.524 -29.504   2.917  1.00  0.00    -0.082 Cl
HETATM    8  C   UNL     1      46.477 -28.779   0.515  1.00  0.00     0.034 A 
ENDROOT
BRANCH   5   9
HETATM    9  N   UNL     1      43.275 -30.609   1.160  1.00  0.00    -0.376 N 
HETATM   10  C   UNL     1      42.130 -29.814   1.645  1.00  0.00     0.150 C 
HETATM   11  C   UNL     1      41.305 -30.656   2.642  1.00  0.00     0.252 C 
HETATM   12  N   UNL     1      40.898 -31.970   2.011  1.00  0.00    -0.072 N 
HETATM   13  H   UNL     1      40.233 -31.793   1.248  1.00  0.00     0.277 HD
HETATM   14  H   UNL     1      40.405 -32.543   2.708  1.00  0.00     0.277 HD
HETATM   15  C   UNL     1      42.081 -32.748   1.474  1.00  0.00     0.252 C 
HETATM   16  C   UNL     1      42.894 -31.878   0.495  1.00  0.00     0.150 C 
ENDBRANCH   5   9
BRANCH   3  17
HETATM   17  S   UNL     1      45.155 -28.911  -3.355  1.00  0.00     0.172 S 
HETATM   18  C   UNL     1      43.541 -29.539  -3.731  1.00  0.00     0.167 C 
HETATM   19  O   UNL     1      45.213 -27.497  -3.660  1.00  0.00    -0.223 OA
HETATM   20  O   UNL     1      46.111 -29.829  -3.955  1.00  0.00    -0.223 OA
ENDBRANCH   3  17
TORSDOF 2
ENDMDL
MODEL 9
REMARK VINA RESULT:      -5.4      5.524      7.336
REMARK  2 active torsions:
REMARK  status: ('A' for Active; 'I' for Inactive)
REMARK    1  A    between atoms: C_3  and  S_4 
REMARK    2  A    between atoms: C_9  and  N_10 
ROOT
HETATM    1  C   UNL     1      38.099 -11.097  -1.244  1.00  0.00     0.050 C 
HETATM    2  C   UNL     1      38.847 -12.116  -0.430  1.00  0.00    -0.039 A 
HETATM    3  C   UNL     1      39.218 -13.392  -0.884  1.00  0.00     0.067 A 
HETATM    4  C   UNL     1      39.939 -14.270  -0.048  1.00  0.00     0.055 A 
HETATM    5  C   UNL     1      40.283 -13.929   1.268  1.00  0.00     0.053 A 
HETATM    6  C   UNL     1      39.858 -12.665   1.730  1.00  0.00     0.061 A 
HETATM    7 CL   UNL     1      40.135 -12.167   3.368  1.00  0.00    -0.082 Cl
HETATM    8  C   UNL     1      39.159 -11.781   0.898  1.00  0.00     0.034 A 
ENDROOT
BRANCH   5   9
HETATM    9  N   UNL     1      41.023 -14.802   2.091  1.00  0.00    -0.376 N 
HETATM   10  C   UNL     1      40.275 -15.722   2.969  1.00  0.00     0.150 C 
HETATM   11  C   UNL     1      41.232 -16.318   4.024  1.00  0.00     0.252 C 
HETATM   12  N   UNL     1      42.421 -16.967   3.350  1.00  0.00    -0.072 N 
HETATM   13  H   UNL     1      42.108 -17.793   2.824  1.00  0.00     0.277 HD
HETATM   14  H   UNL     1      43.077 -17.301   4.067  1.00  0.00     0.277 HD
HETATM   15  C   UNL     1      43.145 -16.022   2.414  1.00  0.00     0.252 C 
HETATM   16  C   UNL     1      42.163 -15.432   1.383  1.00  0.00     0.150 C 
ENDBRANCH   5   9
BRANCH   3  17
HETATM   17  S   UNL     1      38.857 -13.979  -2.540  1.00  0.00     0.172 S 
HETATM   18  C   UNL     1      37.169 -13.534  -2.846  1.00  0.00     0.167 C 
HETATM   19  O   UNL     1      39.725 -13.258  -3.447  1.00  0.00    -0.223 OA
HETATM   20  O   UNL     1      38.902 -15.432  -2.481  1.00  0.00    -0.223 OA
ENDBRANCH   3  17
TORSDOF 2
ENDMDL
MODEL 10
REMARK VINA RESULT:      -5.4      4.472      5.379
REMARK  2 active torsions:
REMARK  status: ('A' for Active; 'I' for Inactive)
REMARK    1  A    between atoms: C_3  and  S_4 
REMARK    2  A    between atoms: C_9  and  N_10 
ROOT
HETATM    1  C   UNL     1      41.058 -15.918   2.413  1.00  0.00     0.050 C 
HETATM    2  C   UNL     1      40.782 -14.844   1.399  1.00  0.00    -0.039 A 
HETATM    3  C   UNL     1      41.162 -13.499   1.530  1.00  0.00     0.067 A 
HETATM    4  C   UNL     1      40.874 -12.569   0.509  1.00  0.00     0.055 A 
HETATM    5  C   UNL     1      40.176 -12.931  -0.652  1.00  0.00     0.053 A 
HETATM    6  C   UNL     1      39.754 -14.274  -0.749  1.00  0.00     0.061 A 
HETATM    7 CL   UNL     1      38.798 -14.823  -2.088  1.00  0.00    -0.082 Cl
HETATM    8  C   UNL     1      40.053 -15.206   0.253  1.00  0.00     0.034 A 
ENDROOT
BRANCH   5   9
HETATM    9  N   UNL     1      39.912 -12.003  -1.679  1.00  0.00    -0.376 N 
HETATM   10  C   UNL     1      38.732 -11.128  -1.532  1.00  0.00     0.150 C 
HETATM   11  C   UNL     1      38.416 -10.459  -2.887  1.00  0.00     0.252 C 
HETATM   12  N   UNL     1      39.636  -9.736  -3.415  1.00  0.00    -0.072 N 
HETATM   13  H   UNL     1      39.852  -8.938  -2.805  1.00  0.00     0.277 HD
HETATM   14  H   UNL     1      39.426  -9.351  -4.345  1.00  0.00     0.277 HD
HETATM   15  C   UNL     1      40.849 -10.636  -3.510  1.00  0.00     0.252 C 
HETATM   16  C   UNL     1      41.131 -11.301  -2.149  1.00  0.00     0.150 C 
ENDBRANCH   5   9
BRANCH   3  17
HETATM   17  S   UNL     1      42.062 -12.875   2.950  1.00  0.00     0.172 S 
HETATM   18  C   UNL     1      42.327 -11.152   2.627  1.00  0.00     0.167 C 
HETATM   19  O   UNL     1      41.200 -13.029   4.103  1.00  0.00    -0.223 OA
HETATM   20  O   UNL     1      43.369 -13.511   2.922  1.00  0.00    -0.223 OA
ENDBRANCH   3  17
TORSDOF 2
ENDMDL
