MODEL 1
REMARK VINA RESULT:      -9.5      0.000      0.000
REMARK  4 active torsions:
REMARK  status: ('A' for Active; 'I' for Inactive)
REMARK    1  A    between atoms: C_3  and  C_4 
REMARK    2  A    between atoms: C_5  and  C_6 
REMARK       I    between atoms: C_6  and  N_7 
REMARK    3  A    between atoms: N_7  and  C_8 
REMARK    4  A    between atoms: C_15  and  C_16 
REMARK       I    between atoms: C_16  and  N_17 
ROOT
HETATM    1  C   UNL     1      40.464 -13.714   0.578  1.00  0.00     0.035 A 
HETATM    2  C   UNL     1      39.905 -14.262  -0.585  1.00  0.00     0.046 A 
HETATM    3  C   UNL     1      38.880 -13.568  -1.263  1.00  0.00     0.030 A 
HETATM    4  C   UNL     1      38.448 -12.348  -0.757  1.00  0.00     0.063 A 
HETATM    5  N   UNL     1      37.476 -11.922  -1.619  1.00  0.00    -0.277 N 
HETATM    6  H   UNL     1      36.941 -11.064  -1.564  1.00  0.00     0.189 HD
HETATM    7  N   UNL     1      37.229 -12.761  -2.638  1.00  0.00    -0.168 NA
HETATM    8  C   UNL     1      38.090 -13.785  -2.432  1.00  0.00     0.156 A 
HETATM    9  C   UNL     1      38.976 -11.775   0.401  1.00  0.00     0.034 A 
HETATM   10  C   UNL     1      39.989 -12.486   1.058  1.00  0.00     0.032 A 
ENDROOT
BRANCH   1  11
HETATM   11  N   UNL     1      41.514 -14.320   1.301  1.00  0.00    -0.327 N 
HETATM   12  C   UNL     1      41.424 -15.400   2.148  1.00  0.00     0.227 C 
HETATM   13  O   UNL     1      40.412 -15.984   2.507  1.00  0.00    -0.273 OA
HETATM   14  H   UNL     1      42.438 -13.946   1.144  1.00  0.00     0.169 HD
BRANCH  12  15
HETATM   15  C   UNL     1      42.723 -15.913   2.662  1.00  0.00     0.087 A 
HETATM   16  C   UNL     1      43.086 -17.335   2.237  1.00  0.00     0.034 A 
HETATM   17  C   UNL     1      43.978 -16.174   1.878  1.00  0.00     0.025 A 
BRANCH  16  18
HETATM   18  C   UNL     1      43.441 -18.351   3.300  1.00  0.00    -0.031 A 
HETATM   19  C   UNL     1      43.513 -17.943   4.647  1.00  0.00     0.009 A 
HETATM   20  C   UNL     1      43.783 -18.845   5.679  1.00  0.00     0.001 A 
HETATM   21  C   UNL     1      43.982 -20.190   5.390  1.00  0.00     0.002 A 
HETATM   22  C   UNL     1      43.906 -20.629   4.071  1.00  0.00     0.024 A 
HETATM   23  C   UNL     1      43.632 -19.722   3.040  1.00  0.00     0.040 A 
HETATM   24 CL   UNL     1      43.502 -20.355   1.435  1.00  0.00    -0.084 Cl
ENDBRANCH  16  18
ENDBRANCH  12  15
ENDBRANCH   1  11
BRANCH   8  25
HETATM   25  C   UNL     1      38.137 -14.936  -3.345  1.00  0.00     0.270 C 
HETATM   26  N   UNL     1      38.218 -16.147  -2.716  1.00  0.00    -0.365 N 
HETATM   27  H   UNL     1      38.243 -16.168  -1.703  1.00  0.00     0.159 HD
HETATM   28  H   UNL     1      38.259 -16.992  -3.264  1.00  0.00     0.159 HD
HETATM   29  O   UNL     1      38.109 -14.860  -4.569  1.00  0.00    -0.266 OA
ENDBRANCH   8  25
TORSDOF 4
ENDMDL
MODEL 2
REMARK VINA RESULT:      -9.4      1.988      2.354
REMARK  4 active torsions:
REMARK  status: ('A' for Active; 'I' for Inactive)
REMARK    1  A    between atoms: C_3  and  C_4 
REMARK    2  A    between atoms: C_5  and  C_6 
REMARK       I    between atoms: C_6  and  N_7 
REMARK    3  A    between atoms: N_7  and  C_8 
REMARK    4  A    between atoms: C_15  and  C_16 
REMARK       I    between atoms: C_16  and  N_17 
ROOT
HETATM    1  C   UNL     1      40.254 -14.206   2.157  1.00  0.00     0.035 A 
HETATM    2  C   UNL     1      40.432 -14.151   0.768  1.00  0.00     0.046 A 
HETATM    3  C   UNL     1      39.838 -13.105   0.028  1.00  0.00     0.030 A 
HETATM    4  C   UNL     1      39.087 -12.150   0.702  1.00  0.00     0.063 A 
HETATM    5  N   UNL     1      38.661 -11.279  -0.262  1.00  0.00    -0.277 N 
HETATM    6  H   UNL     1      38.091 -10.452  -0.132  1.00  0.00     0.189 HD
HETATM    7  N   UNL     1      39.059 -11.587  -1.507  1.00  0.00    -0.168 NA
HETATM    8  C   UNL     1      39.789 -12.715  -1.344  1.00  0.00     0.156 A 
HETATM    9  C   UNL     1      38.882 -12.178   2.082  1.00  0.00     0.034 A 
HETATM   10  C   UNL     1      39.478 -13.227   2.793  1.00  0.00     0.032 A 
ENDROOT
BRANCH   1  11
HETATM   11  N   UNL     1      40.837 -15.194   2.980  1.00  0.00    -0.327 N 
HETATM   12  C   UNL     1      41.689 -14.993   4.041  1.00  0.00     0.227 C 
HETATM   13  O   UNL     1      42.176 -13.938   4.417  1.00  0.00    -0.273 OA
HETATM   14  H   UNL     1      40.561 -16.148   2.797  1.00  0.00     0.169 HD
BRANCH  12  15
HETATM   15  C   UNL     1      42.033 -16.216   4.818  1.00  0.00     0.087 A 
HETATM   16  C   UNL     1      43.457 -16.737   4.633  1.00  0.00     0.034 A 
HETATM   17  C   UNL     1      42.961 -16.321   5.994  1.00  0.00     0.025 A 
BRANCH  16  18
HETATM   18  C   UNL     1      43.665 -18.181   4.235  1.00  0.00    -0.031 A 
HETATM   19  C   UNL     1      43.964 -19.134   5.231  1.00  0.00     0.009 A 
HETATM   20  C   UNL     1      44.114 -20.491   4.933  1.00  0.00     0.001 A 
HETATM   21  C   UNL     1      43.961 -20.935   3.625  1.00  0.00     0.002 A 
HETATM   22  C   UNL     1      43.653 -20.022   2.620  1.00  0.00     0.024 A 
HETATM   23  C   UNL     1      43.501 -18.664   2.923  1.00  0.00     0.040 A 
HETATM   24 CL   UNL     1      43.066 -17.602   1.627  1.00  0.00    -0.084 Cl
ENDBRANCH  16  18
ENDBRANCH  12  15
ENDBRANCH   1  11
BRANCH   8  25
HETATM   25  C   UNL     1      40.415 -13.389  -2.491  1.00  0.00     0.270 C 
HETATM   26  N   UNL     1      41.569 -12.797  -2.926  1.00  0.00    -0.365 N 
HETATM   27  H   UNL     1      41.898 -11.965  -2.450  1.00  0.00     0.159 HD
HETATM   28  H   UNL     1      42.064 -13.188  -3.712  1.00  0.00     0.159 HD
HETATM   29  O   UNL     1      39.975 -14.394  -3.039  1.00  0.00    -0.266 OA
ENDBRANCH   8  25
TORSDOF 4
ENDMDL
MODEL 3
REMARK VINA RESULT:      -9.2      4.736      6.396
REMARK  4 active torsions:
REMARK  status: ('A' for Active; 'I' for Inactive)
REMARK    1  A    between atoms: C_3  and  C_4 
REMARK    2  A    between atoms: C_5  and  C_6 
REMARK       I    between atoms: C_6  and  N_7 
REMARK    3  A    between atoms: N_7  and  C_8 
REMARK    4  A    between atoms: C_15  and  C_16 
REMARK       I    between atoms: C_16  and  N_17 
ROOT
HETATM    1  C   UNL     1      40.487 -13.627   4.969  1.00  0.00     0.035 A 
HETATM    2  C   UNL     1      40.156 -12.756   6.016  1.00  0.00     0.046 A 
HETATM    3  C   UNL     1      39.414 -11.586   5.744  1.00  0.00     0.030 A 
HETATM    4  C   UNL     1      39.027 -11.326   4.435  1.00  0.00     0.063 A 
HETATM    5  N   UNL     1      38.328 -10.153   4.490  1.00  0.00    -0.277 N 
HETATM    6  H   UNL     1      37.891  -9.663   3.719  1.00  0.00     0.189 HD
HETATM    7  N   UNL     1      38.232  -9.619   5.719  1.00  0.00    -0.168 NA
HETATM    8  C   UNL     1      38.900 -10.494   6.506  1.00  0.00     0.156 A 
HETATM    9  C   UNL     1      39.345 -12.167   3.367  1.00  0.00     0.034 A 
HETATM   10  C   UNL     1      40.085 -13.319   3.662  1.00  0.00     0.032 A 
ENDROOT
BRANCH   1  11
HETATM   11  N   UNL     1      41.195 -14.835   5.151  1.00  0.00    -0.327 N 
HETATM   12  C   UNL     1      42.494 -14.979   5.580  1.00  0.00     0.227 C 
HETATM   13  O   UNL     1      43.310 -14.096   5.796  1.00  0.00    -0.273 OA
HETATM   14  H   UNL     1      40.675 -15.686   4.993  1.00  0.00     0.169 HD
BRANCH  12  15
HETATM   15  C   UNL     1      42.932 -16.382   5.817  1.00  0.00     0.087 A 
HETATM   16  C   UNL     1      44.098 -16.864   4.955  1.00  0.00     0.034 A 
HETATM   17  C   UNL     1      44.208 -16.846   6.458  1.00  0.00     0.025 A 
BRANCH  16  18
HETATM   18  C   UNL     1      43.942 -18.138   4.154  1.00  0.00    -0.031 A 
HETATM   19  C   UNL     1      44.186 -19.378   4.777  1.00  0.00     0.009 A 
HETATM   20  C   UNL     1      44.008 -20.590   4.106  1.00  0.00     0.001 A 
HETATM   21  C   UNL     1      43.569 -20.594   2.787  1.00  0.00     0.002 A 
HETATM   22  C   UNL     1      43.305 -19.386   2.146  1.00  0.00     0.024 A 
HETATM   23  C   UNL     1      43.483 -18.174   2.823  1.00  0.00     0.040 A 
HETATM   24 CL   UNL     1      43.084 -16.720   1.974  1.00  0.00    -0.084 Cl
ENDBRANCH  16  18
ENDBRANCH  12  15
ENDBRANCH   1  11
BRANCH   8  25
HETATM   25  C   UNL     1      39.032 -10.269   7.953  1.00  0.00     0.270 C 
HETATM   26  N   UNL     1      39.822  -9.204   8.285  1.00  0.00    -0.365 N 
HETATM   27  H   UNL     1      40.250  -8.666   7.540  1.00  0.00     0.159 HD
HETATM   28  H   UNL     1      39.973  -8.978   9.255  1.00  0.00     0.159 HD
HETATM   29  O   UNL     1      38.497 -10.954   8.819  1.00  0.00    -0.266 OA
ENDBRANCH   8  25
TORSDOF 4
ENDMDL
MODEL 4
REMARK VINA RESULT:      -9.1      6.648      9.453
REMARK  4 active torsions:
REMARK  status: ('A' for Active; 'I' for Inactive)
REMARK    1  A    between atoms: C_3  and  C_4 
REMARK    2  A    between atoms: C_5  and  C_6 
REMARK       I    between atoms: C_6  and  N_7 
REMARK    3  A    between atoms: N_7  and  C_8 
REMARK    4  A    between atoms: C_15  and  C_16 
REMARK       I    between atoms: C_16  and  N_17 
ROOT
HETATM    1  C   UNL     1      44.325 -12.136   6.738  1.00  0.00     0.035 A 
HETATM    2  C   UNL     1      43.826 -11.807   8.006  1.00  0.00     0.046 A 
HETATM    3  C   UNL     1      44.506 -10.860   8.802  1.00  0.00     0.030 A 
HETATM    4  C   UNL     1      45.662 -10.272   8.304  1.00  0.00     0.063 A 
HETATM    5  N   UNL     1      46.077  -9.409   9.278  1.00  0.00    -0.277 N 
HETATM    6  H   UNL     1      46.889  -8.803   9.256  1.00  0.00     0.189 HD
HETATM    7  N   UNL     1      45.299  -9.387  10.373  1.00  0.00    -0.168 NA
HETATM    8  C   UNL     1      44.322 -10.282  10.093  1.00  0.00     0.156 A 
HETATM    9  C   UNL     1      46.192 -10.580   7.050  1.00  0.00     0.034 A 
HETATM   10  C   UNL     1      45.502 -11.526   6.281  1.00  0.00     0.032 A 
ENDROOT
BRANCH   1  11
HETATM   11  N   UNL     1      43.695 -13.045   5.861  1.00  0.00    -0.327 N 
HETATM   12  C   UNL     1      42.507 -12.863   5.190  1.00  0.00     0.227 C 
HETATM   13  O   UNL     1      41.728 -11.928   5.292  1.00  0.00    -0.273 OA
HETATM   14  H   UNL     1      44.193 -13.902   5.672  1.00  0.00     0.169 HD
BRANCH  12  15
HETATM   15  C   UNL     1      42.157 -13.936   4.219  1.00  0.00     0.087 A 
HETATM   16  C   UNL     1      41.885 -15.312   4.826  1.00  0.00     0.034 A 
HETATM   17  C   UNL     1      40.823 -14.598   4.030  1.00  0.00     0.025 A 
BRANCH  16  18
HETATM   18  C   UNL     1      42.645 -16.510   4.302  1.00  0.00    -0.031 A 
HETATM   19  C   UNL     1      42.315 -17.036   3.037  1.00  0.00     0.009 A 
HETATM   20  C   UNL     1      43.016 -18.107   2.476  1.00  0.00     0.001 A 
HETATM   21  C   UNL     1      44.078 -18.679   3.167  1.00  0.00     0.002 A 
HETATM   22  C   UNL     1      44.438 -18.174   4.414  1.00  0.00     0.024 A 
HETATM   23  C   UNL     1      43.735 -17.099   4.971  1.00  0.00     0.040 A 
HETATM   24 CL   UNL     1      44.279 -16.497   6.500  1.00  0.00    -0.084 Cl
ENDBRANCH  16  18
ENDBRANCH  12  15
ENDBRANCH   1  11
BRANCH   8  25
HETATM   25  C   UNL     1      43.247 -10.560  11.057  1.00  0.00     0.270 C 
HETATM   26  N   UNL     1      43.557 -11.521  11.979  1.00  0.00    -0.365 N 
HETATM   27  H   UNL     1      44.469 -11.960  11.935  1.00  0.00     0.159 HD
HETATM   28  H   UNL     1      42.877 -11.780  12.677  1.00  0.00     0.159 HD
HETATM   29  O   UNL     1      42.154 -10.003  11.066  1.00  0.00    -0.266 OA
ENDBRANCH   8  25
TORSDOF 4
ENDMDL
MODEL 5
REMARK VINA RESULT:      -9.0      2.699      3.792
REMARK  4 active torsions:
REMARK  status: ('A' for Active; 'I' for Inactive)
REMARK    1  A    between atoms: C_3  and  C_4 
REMARK    2  A    between atoms: C_5  and  C_6 
REMARK       I    between atoms: C_6  and  N_7 
REMARK    3  A    between atoms: N_7  and  C_8 
REMARK    4  A    between atoms: C_15  and  C_16 
REMARK       I    between atoms: C_16  and  N_17 
ROOT
HETATM    1  C   UNL     1      42.402 -13.393   3.564  1.00  0.00     0.035 A 
HETATM    2  C   UNL     1      41.806 -13.338   2.297  1.00  0.00     0.046 A 
HETATM    3  C   UNL     1      41.637 -12.091   1.656  1.00  0.00     0.030 A 
HETATM    4  C   UNL     1      42.072 -10.941   2.304  1.00  0.00     0.063 A 
HETATM    5  N   UNL     1      41.789  -9.915   1.446  1.00  0.00    -0.277 N 
HETATM    6  H   UNL     1      41.975  -8.929   1.588  1.00  0.00     0.189 HD
HETATM    7  N   UNL     1      41.200 -10.292   0.300  1.00  0.00    -0.168 NA
HETATM    8  C   UNL     1      41.098 -11.637   0.415  1.00  0.00     0.156 A 
HETATM    9  C   UNL     1      42.664 -10.957   3.568  1.00  0.00     0.034 A 
HETATM   10  C   UNL     1      42.815 -12.206   4.184  1.00  0.00     0.032 A 
ENDROOT
BRANCH   1  11
HETATM   11  N   UNL     1      42.641 -14.596   4.264  1.00  0.00    -0.327 N 
HETATM   12  C   UNL     1      41.811 -15.205   5.176  1.00  0.00     0.227 C 
HETATM   13  O   UNL     1      40.756 -14.781   5.623  1.00  0.00    -0.273 OA
HETATM   14  H   UNL     1      43.495 -15.084   4.034  1.00  0.00     0.169 HD
BRANCH  12  15
HETATM   15  C   UNL     1      42.261 -16.543   5.648  1.00  0.00     0.087 A 
HETATM   16  C   UNL     1      43.628 -16.997   5.139  1.00  0.00     0.034 A 
HETATM   17  C   UNL     1      43.369 -16.846   6.616  1.00  0.00     0.025 A 
BRANCH  16  18
HETATM   18  C   UNL     1      43.748 -18.340   4.454  1.00  0.00    -0.031 A 
HETATM   19  C   UNL     1      43.983 -19.492   5.232  1.00  0.00     0.009 A 
HETATM   20  C   UNL     1      44.051 -20.766   4.664  1.00  0.00     0.001 A 
HETATM   21  C   UNL     1      43.875 -20.926   3.295  1.00  0.00     0.002 A 
HETATM   22  C   UNL     1      43.628 -19.810   2.498  1.00  0.00     0.024 A 
HETATM   23  C   UNL     1      43.559 -18.535   3.072  1.00  0.00     0.040 A 
HETATM   24 CL   UNL     1      43.196 -17.207   2.023  1.00  0.00    -0.084 Cl
ENDBRANCH  16  18
ENDBRANCH  12  15
ENDBRANCH   1  11
BRANCH   8  25
HETATM   25  C   UNL     1      40.494 -12.449  -0.651  1.00  0.00     0.270 C 
HETATM   26  N   UNL     1      41.246 -12.525  -1.791  1.00  0.00    -0.365 N 
HETATM   27  H   UNL     1      42.132 -12.034  -1.822  1.00  0.00     0.159 HD
HETATM   28  H   UNL     1      40.908 -13.058  -2.576  1.00  0.00     0.159 HD
HETATM   29  O   UNL     1      39.413 -13.022  -0.567  1.00  0.00    -0.266 OA
ENDBRANCH   8  25
TORSDOF 4
ENDMDL
MODEL 6
REMARK VINA RESULT:      -8.9      2.660      3.628
REMARK  4 active torsions:
REMARK  status: ('A' for Active; 'I' for Inactive)
REMARK    1  A    between atoms: C_3  and  C_4 
REMARK    2  A    between atoms: C_5  and  C_6 
REMARK       I    between atoms: C_6  and  N_7 
REMARK    3  A    between atoms: N_7  and  C_8 
REMARK    4  A    between atoms: C_15  and  C_16 
REMARK       I    between atoms: C_16  and  N_17 
ROOT
HETATM    1  C   UNL     1      40.415 -13.837   4.105  1.00  0.00     0.035 A 
HETATM    2  C   UNL     1      40.135 -13.545   2.763  1.00  0.00     0.046 A 
HETATM    3  C   UNL     1      39.453 -12.354   2.434  1.00  0.00     0.030 A 
HETATM    4  C   UNL     1      39.075 -11.493   3.457  1.00  0.00     0.063 A 
HETATM    5  N   UNL     1      38.457 -10.443   2.836  1.00  0.00    -0.277 N 
HETATM    6  H   UNL     1      38.057  -9.622   3.274  1.00  0.00     0.189 HD
HETATM    7  N   UNL     1      38.391 -10.546   1.499  1.00  0.00    -0.168 NA
HETATM    8  C   UNL     1      39.003 -11.725   1.234  1.00  0.00     0.156 A 
HETATM    9  C   UNL     1      39.330 -11.754   4.804  1.00  0.00     0.034 A 
HETATM   10  C   UNL     1      40.004 -12.945   5.105  1.00  0.00     0.032 A 
ENDROOT
BRANCH   1  11
HETATM   11  N   UNL     1      41.121 -14.986   4.525  1.00  0.00    -0.327 N 
HETATM   12  C   UNL     1      42.326 -15.024   5.187  1.00  0.00     0.227 C 
HETATM   13  O   UNL     1      43.058 -14.085   5.458  1.00  0.00    -0.273 OA
HETATM   14  H   UNL     1      40.668 -15.873   4.359  1.00  0.00     0.169 HD
BRANCH  12  15
HETATM   15  C   UNL     1      42.762 -16.377   5.631  1.00  0.00     0.087 A 
HETATM   16  C   UNL     1      44.013 -16.924   4.946  1.00  0.00     0.034 A 
HETATM   17  C   UNL     1      43.979 -16.725   6.440  1.00  0.00     0.025 A 
BRANCH  16  18
HETATM   18  C   UNL     1      43.956 -18.287   4.293  1.00  0.00    -0.031 A 
HETATM   19  C   UNL     1      44.165 -19.438   5.080  1.00  0.00     0.009 A 
HETATM   20  C   UNL     1      44.072 -20.725   4.546  1.00  0.00     0.001 A 
HETATM   21  C   UNL     1      43.757 -20.898   3.203  1.00  0.00     0.002 A 
HETATM   22  C   UNL     1      43.533 -19.783   2.400  1.00  0.00     0.024 A 
HETATM   23  C   UNL     1      43.624 -18.494   2.940  1.00  0.00     0.040 A 
HETATM   24 CL   UNL     1      43.278 -17.163   1.890  1.00  0.00    -0.084 Cl
ENDBRANCH  16  18
ENDBRANCH  12  15
ENDBRANCH   1  11
BRANCH   8  25
HETATM   25  C   UNL     1      39.142 -12.218  -0.144  1.00  0.00     0.270 C 
HETATM   26  N   UNL     1      37.972 -12.652  -0.703  1.00  0.00    -0.365 N 
HETATM   27  H   UNL     1      37.124 -12.609  -0.150  1.00  0.00     0.159 HD
HETATM   28  H   UNL     1      37.973 -13.011  -1.645  1.00  0.00     0.159 HD
HETATM   29  O   UNL     1      40.195 -12.254  -0.771  1.00  0.00    -0.266 OA
ENDBRANCH   8  25
TORSDOF 4
ENDMDL
MODEL 7
REMARK VINA RESULT:      -8.9      3.790      8.820
REMARK  4 active torsions:
REMARK  status: ('A' for Active; 'I' for Inactive)
REMARK    1  A    between atoms: C_3  and  C_4 
REMARK    2  A    between atoms: C_5  and  C_6 
REMARK       I    between atoms: C_6  and  N_7 
REMARK    3  A    between atoms: N_7  and  C_8 
REMARK    4  A    between atoms: C_15  and  C_16 
REMARK       I    between atoms: C_16  and  N_17 
ROOT
HETATM    1  C   UNL     1      42.281 -15.916   2.465  1.00  0.00     0.035 A 
HETATM    2  C   UNL     1      42.123 -15.826   3.855  1.00  0.00     0.046 A 
HETATM    3  C   UNL     1      42.732 -16.787   4.691  1.00  0.00     0.030 A 
HETATM    4  C   UNL     1      43.478 -17.805   4.109  1.00  0.00     0.063 A 
HETATM    5  N   UNL     1      43.941 -18.556   5.154  1.00  0.00    -0.277 N 
HETATM    6  H   UNL     1      44.527 -19.381   5.103  1.00  0.00     0.189 HD
HETATM    7  N   UNL     1      43.555 -18.124   6.365  1.00  0.00    -0.168 NA
HETATM    8  C   UNL     1      42.805 -17.029   6.095  1.00  0.00     0.156 A 
HETATM    9  C   UNL     1      43.650 -17.929   2.730  1.00  0.00     0.034 A 
HETATM   10  C   UNL     1      43.033 -16.966   1.922  1.00  0.00     0.032 A 
ENDROOT
BRANCH   1  11
HETATM   11  N   UNL     1      41.738 -14.982   1.555  1.00  0.00    -0.327 N 
HETATM   12  C   UNL     1      41.772 -13.610   1.653  1.00  0.00     0.227 C 
HETATM   13  O   UNL     1      42.194 -12.939   2.583  1.00  0.00    -0.273 OA
HETATM   14  H   UNL     1      41.318 -15.364   0.720  1.00  0.00     0.169 HD
BRANCH  12  15
HETATM   15  C   UNL     1      41.243 -12.877   0.471  1.00  0.00     0.087 A 
HETATM   16  C   UNL     1      39.720 -12.819   0.358  1.00  0.00     0.034 A 
HETATM   17  C   UNL     1      40.533 -11.553   0.459  1.00  0.00     0.025 A 
BRANCH  16  18
HETATM   18  C   UNL     1      39.061 -13.277  -0.924  1.00  0.00    -0.031 A 
HETATM   19  C   UNL     1      39.472 -14.489  -1.516  1.00  0.00     0.009 A 
HETATM   20  C   UNL     1      38.865 -14.991  -2.669  1.00  0.00     0.001 A 
HETATM   21  C   UNL     1      37.819 -14.294  -3.262  1.00  0.00     0.002 A 
HETATM   22  C   UNL     1      37.379 -13.100  -2.696  1.00  0.00     0.024 A 
HETATM   23  C   UNL     1      37.989 -12.602  -1.538  1.00  0.00     0.040 A 
HETATM   24 CL   UNL     1      37.350 -11.140  -0.868  1.00  0.00    -0.084 Cl
ENDBRANCH  16  18
ENDBRANCH  12  15
ENDBRANCH   1  11
BRANCH   8  25
HETATM   25  C   UNL     1      42.182 -16.249   7.174  1.00  0.00     0.270 C 
HETATM   26  N   UNL     1      43.036 -15.913   8.187  1.00  0.00    -0.365 N 
HETATM   27  H   UNL     1      44.001 -16.216   8.130  1.00  0.00     0.159 HD
HETATM   28  H   UNL     1      42.694 -15.381   8.972  1.00  0.00     0.159 HD
HETATM   29  O   UNL     1      41.004 -15.909   7.201  1.00  0.00    -0.266 OA
ENDBRANCH   8  25
TORSDOF 4
ENDMDL
MODEL 8
REMARK VINA RESULT:      -8.7      1.961      2.967
REMARK  4 active torsions:
REMARK  status: ('A' for Active; 'I' for Inactive)
REMARK    1  A    between atoms: C_3  and  C_4 
REMARK    2  A    between atoms: C_5  and  C_6 
REMARK       I    between atoms: C_6  and  N_7 
REMARK    3  A    between atoms: N_7  and  C_8 
REMARK    4  A    between atoms: C_15  and  C_16 
REMARK       I    between atoms: C_16  and  N_17 
ROOT
HETATM    1  C   UNL     1      39.988 -13.881  -0.718  1.00  0.00     0.035 A 
HETATM    2  C   UNL     1      39.310 -12.654  -0.702  1.00  0.00     0.046 A 
HETATM    3  C   UNL     1      38.251 -12.429  -1.608  1.00  0.00     0.030 A 
HETATM    4  C   UNL     1      37.905 -13.437  -2.499  1.00  0.00     0.063 A 
HETATM    5  N   UNL     1      36.860 -12.936  -3.224  1.00  0.00    -0.277 N 
HETATM    6  H   UNL     1      36.349 -13.401  -3.965  1.00  0.00     0.189 HD
HETATM    7  N   UNL     1      36.498 -11.687  -2.890  1.00  0.00    -0.168 NA
HETATM    8  C   UNL     1      37.351 -11.358  -1.891  1.00  0.00     0.156 A 
HETATM    9  C   UNL     1      38.563 -14.667  -2.549  1.00  0.00     0.034 A 
HETATM   10  C   UNL     1      39.612 -14.864  -1.643  1.00  0.00     0.032 A 
ENDROOT
BRANCH   1  11
HETATM   11  N   UNL     1      41.035 -14.207   0.172  1.00  0.00    -0.327 N 
HETATM   12  C   UNL     1      40.921 -14.822   1.397  1.00  0.00     0.227 C 
HETATM   13  O   UNL     1      39.896 -15.121   1.989  1.00  0.00    -0.273 OA
HETATM   14  H   UNL     1      41.971 -14.006  -0.147  1.00  0.00     0.169 HD
BRANCH  12  15
HETATM   15  C   UNL     1      42.212 -15.170   2.053  1.00  0.00     0.087 A 
HETATM   16  C   UNL     1      42.418 -16.654   2.356  1.00  0.00     0.034 A 
HETATM   17  C   UNL     1      43.371 -15.913   1.453  1.00  0.00     0.025 A 
BRANCH  16  18
HETATM   18  C   UNL     1      42.773 -17.073   3.765  1.00  0.00    -0.031 A 
HETATM   19  C   UNL     1      42.192 -16.392   4.854  1.00  0.00     0.009 A 
HETATM   20  C   UNL     1      42.439 -16.767   6.177  1.00  0.00     0.001 A 
HETATM   21  C   UNL     1      43.274 -17.845   6.448  1.00  0.00     0.002 A 
HETATM   22  C   UNL     1      43.855 -18.547   5.395  1.00  0.00     0.024 A 
HETATM   23  C   UNL     1      43.602 -18.170   4.071  1.00  0.00     0.040 A 
HETATM   24 CL   UNL     1      44.319 -19.126   2.819  1.00  0.00    -0.084 Cl
ENDBRANCH  16  18
ENDBRANCH  12  15
ENDBRANCH   1  11
BRANCH   8  25
HETATM   25  C   UNL     1      37.287 -10.043  -1.238  1.00  0.00     0.270 C 
HETATM   26  N   UNL     1      38.230  -9.154  -1.675  1.00  0.00    -0.365 N 
HETATM   27  H   UNL     1      38.885  -9.453  -2.388  1.00  0.00     0.159 HD
HETATM   28  H   UNL     1      38.264  -8.228  -1.278  1.00  0.00     0.159 HD
HETATM   29  O   UNL     1      36.476  -9.730  -0.373  1.00  0.00    -0.266 OA
ENDBRANCH   8  25
TORSDOF 4
ENDMDL
MODEL 9
REMARK VINA RESULT:      -8.6      6.699      9.889
REMARK  4 active torsions:
REMARK  status: ('A' for Active; 'I' for Inactive)
REMARK    1  A    between atoms: C_3  and  C_4 
REMARK    2  A    between atoms: C_5  and  C_6 
REMARK       I    between atoms: C_6  and  N_7 
REMARK    3  A    between atoms: N_7  and  C_8 
REMARK    4  A    between atoms: C_15  and  C_16 
REMARK       I    between atoms: C_16  and  N_17 
ROOT
HETATM    1  C   UNL     1      44.007 -12.263   6.879  1.00  0.00     0.035 A 
HETATM    2  C   UNL     1      43.627 -11.862   8.168  1.00  0.00     0.046 A 
HETATM    3  C   UNL     1      44.388 -10.887   8.849  1.00  0.00     0.030 A 
HETATM    4  C   UNL     1      45.502 -10.345   8.220  1.00  0.00     0.063 A 
HETATM    5  N   UNL     1      46.014  -9.440   9.107  1.00  0.00    -0.277 N 
HETATM    6  H   UNL     1      46.828  -8.851   8.980  1.00  0.00     0.189 HD
HETATM    7  N   UNL     1      45.338  -9.349  10.264  1.00  0.00    -0.168 NA
HETATM    8  C   UNL     1      44.328 -10.240  10.120  1.00  0.00     0.156 A 
HETATM    9  C   UNL     1      45.913 -10.726   6.942  1.00  0.00     0.034 A 
HETATM   10  C   UNL     1      45.145 -11.697   6.288  1.00  0.00     0.032 A 
ENDROOT
BRANCH   1  11
HETATM   11  N   UNL     1      43.289 -13.205   6.110  1.00  0.00    -0.327 N 
HETATM   12  C   UNL     1      43.466 -14.569   6.091  1.00  0.00     0.227 C 
HETATM   13  O   UNL     1      44.332 -15.217   6.659  1.00  0.00    -0.273 OA
HETATM   14  H   UNL     1      42.534 -12.840   5.549  1.00  0.00     0.169 HD
BRANCH  12  15
HETATM   15  C   UNL     1      42.466 -15.327   5.290  1.00  0.00     0.087 A 
HETATM   16  C   UNL     1      42.885 -15.665   3.860  1.00  0.00     0.034 A 
HETATM   17  C   UNL     1      42.548 -16.758   4.842  1.00  0.00     0.025 A 
BRANCH  16  18
HETATM   18  C   UNL     1      41.976 -15.274   2.716  1.00  0.00    -0.031 A 
HETATM   19  C   UNL     1      40.986 -16.178   2.281  1.00  0.00     0.009 A 
HETATM   20  C   UNL     1      40.083 -15.853   1.266  1.00  0.00     0.001 A 
HETATM   21  C   UNL     1      40.141 -14.603   0.660  1.00  0.00     0.002 A 
HETATM   22  C   UNL     1      41.099 -13.681   1.074  1.00  0.00     0.024 A 
HETATM   23  C   UNL     1      42.001 -14.010   2.094  1.00  0.00     0.040 A 
HETATM   24 CL   UNL     1      43.125 -12.791   2.587  1.00  0.00    -0.084 Cl
ENDBRANCH  16  18
ENDBRANCH  12  15
ENDBRANCH   1  11
BRANCH   8  25
HETATM   25  C   UNL     1      43.341 -10.451  11.188  1.00  0.00     0.270 C 
HETATM   26  N   UNL     1      43.630 -11.498  12.019  1.00  0.00    -0.365 N 
HETATM   27  H   UNL     1      44.469 -12.039  11.846  1.00  0.00     0.159 HD
HETATM   28  H   UNL     1      43.005 -11.719  12.778  1.00  0.00     0.159 HD
HETATM   29  O   UNL     1      42.334  -9.771  11.355  1.00  0.00    -0.266 OA
ENDBRANCH   8  25
TORSDOF 4
ENDMDL
MODEL 10
REMARK VINA RESULT:      -8.2      7.605      9.441
REMARK  4 active torsions:
REMARK  status: ('A' for Active; 'I' for Inactive)
REMARK    1  A    between atoms: C_3  and  C_4 
REMARK    2  A    between atoms: C_5  and  C_6 
REMARK       I    between atoms: C_6  and  N_7 
REMARK    3  A    between atoms: N_7  and  C_8 
REMARK    4  A    between atoms: C_15  and  C_16 
REMARK       I    between atoms: C_16  and  N_17 
ROOT
HETATM    1  C   UNL     1      42.806 -13.015   6.488  1.00  0.00     0.035 A 
HETATM    2  C   UNL     1      42.026 -13.050   5.324  1.00  0.00     0.046 A 
HETATM    3  C   UNL     1      41.583 -14.290   4.816  1.00  0.00     0.030 A 
HETATM    4  C   UNL     1      41.933 -15.454   5.490  1.00  0.00     0.063 A 
HETATM    5  N   UNL     1      41.359 -16.470   4.778  1.00  0.00    -0.277 N 
HETATM    6  H   UNL     1      41.401 -17.462   4.982  1.00  0.00     0.189 HD
HETATM    7  N   UNL     1      40.673 -16.074   3.694  1.00  0.00    -0.168 NA
HETATM    8  C   UNL     1      40.803 -14.726   3.703  1.00  0.00     0.156 A 
HETATM    9  C   UNL     1      42.714 -15.458   6.646  1.00  0.00     0.034 A 
HETATM   10  C   UNL     1      43.145 -14.215   7.128  1.00  0.00     0.032 A 
ENDROOT
BRANCH   1  11
HETATM   11  N   UNL     1      43.265 -11.820   7.086  1.00  0.00    -0.327 N 
HETATM   12  C   UNL     1      44.551 -11.332   7.084  1.00  0.00     0.227 C 
HETATM   13  O   UNL     1      45.554 -11.875   6.648  1.00  0.00    -0.273 OA
HETATM   14  H   UNL     1      42.563 -11.242   7.523  1.00  0.00     0.169 HD
BRANCH  12  15
HETATM   15  C   UNL     1      44.713  -9.974   7.672  1.00  0.00     0.087 A 
HETATM   16  C   UNL     1      45.009  -9.934   9.170  1.00  0.00     0.034 A 
HETATM   17  C   UNL     1      45.978  -9.343   8.179  1.00  0.00     0.025 A 
BRANCH  16  18
HETATM   18  C   UNL     1      44.131  -9.094  10.070  1.00  0.00    -0.031 A 
HETATM   19  C   UNL     1      43.785  -7.787   9.670  1.00  0.00     0.009 A 
HETATM   20  C   UNL     1      42.935  -6.982  10.433  1.00  0.00     0.001 A 
HETATM   21  C   UNL     1      42.399  -7.468  11.620  1.00  0.00     0.002 A 
HETATM   22  C   UNL     1      42.711  -8.759  12.038  1.00  0.00     0.024 A 
HETATM   23  C   UNL     1      43.561  -9.564  11.269  1.00  0.00     0.040 A 
HETATM   24 CL   UNL     1      43.857 -11.174  11.830  1.00  0.00    -0.084 Cl
ENDBRANCH  16  18
ENDBRANCH  12  15
ENDBRANCH   1  11
BRANCH   8  25
HETATM   25  C   UNL     1      40.185 -13.895   2.660  1.00  0.00     0.270 C 
HETATM   26  N   UNL     1      38.826 -13.787   2.762  1.00  0.00    -0.365 N 
HETATM   27  H   UNL     1      38.355 -14.271   3.517  1.00  0.00     0.159 HD
HETATM   28  H   UNL     1      38.317 -13.240   2.086  1.00  0.00     0.159 HD
HETATM   29  O   UNL     1      40.799 -13.331   1.760  1.00  0.00    -0.266 OA
ENDBRANCH   8  25
TORSDOF 4
ENDMDL
