MODEL 1
REMARK VINA RESULT:      -7.9      0.000      0.000
REMARK  8 active torsions:
REMARK  status: ('A' for Active; 'I' for Inactive)
REMARK    1  A    between atoms: N_2  and  C_3 
REMARK    2  A    between atoms: C_6  and  N_7 
REMARK       I    between atoms: N_7  and  C_8 
REMARK    3  A    between atoms: C_8  and  C_9 
REMARK    4  A    between atoms: C_9  and  O_10 
REMARK    5  A    between atoms: O_10  and  C_11 
REMARK    6  A    between atoms: C_11  and  C_12 
REMARK    7  A    between atoms: C_13  and  N_14 
REMARK       I    between atoms: N_14  and  C_15 
REMARK    8  A    between atoms: C_15  and  C_16 
ROOT
HETATM    1  C   UNL     1      41.268 -10.521   6.541  1.00  0.00     0.296 C 
HETATM    2  O   UNL     1      40.687  -9.993   7.478  1.00  0.00    -0.259 OA
ENDROOT
BRANCH   1   3
HETATM    3  O   UNL     1      40.690 -11.051   5.437  1.00  0.00    -0.308 OA
BRANCH   3   4
HETATM    4  C   UNL     1      39.689 -12.033   5.696  1.00  0.00     0.282 C 
BRANCH   4   5
HETATM    5  C   UNL     1      40.208 -13.477   5.717  1.00  0.00     0.246 C 
HETATM    6  N   UNL     1      41.112 -13.740   4.703  1.00  0.00    -0.325 N 
HETATM    7  H   UNL     1      41.241 -12.992   4.018  1.00  0.00     0.169 HD
HETATM    8  O   UNL     1      39.833 -14.266   6.581  1.00  0.00    -0.271 OA
BRANCH   6   9
HETATM    9  C   UNL     1      41.832 -14.926   4.468  1.00  0.00     0.034 A 
HETATM   10  C   UNL     1      43.013 -15.269   5.119  1.00  0.00     0.032 A 
HETATM   11  C   UNL     1      43.681 -16.465   4.806  1.00  0.00     0.031 A 
HETATM   12  C   UNL     1      43.191 -17.365   3.848  1.00  0.00     0.029 A 
HETATM   13  C   UNL     1      42.004 -16.991   3.197  1.00  0.00     0.031 A 
HETATM   14  C   UNL     1      41.333 -15.798   3.501  1.00  0.00     0.032 A 
BRANCH  12  15
HETATM   15  N   UNL     1      43.852 -18.552   3.496  1.00  0.00    -0.390 N 
HETATM   16  C   UNL     1      43.368 -19.199   2.272  1.00  0.00     0.149 C 
HETATM   17  C   UNL     1      44.217 -19.484   4.563  1.00  0.00     0.149 C 
ENDBRANCH  12  15
ENDBRANCH   6   9
ENDBRANCH   4   5
ENDBRANCH   3   4
ENDBRANCH   1   3
BRANCH   1  18
HETATM   18  C   UNL     1      42.730 -10.726   6.481  1.00  0.00     0.066 A 
HETATM   19  C   UNL     1      43.529 -10.808   7.635  1.00  0.00     0.051 A 
HETATM   20  C   UNL     1      44.845 -11.282   7.505  1.00  0.00     0.030 A 
HETATM   21  C   UNL     1      45.381 -11.591   6.252  1.00  0.00     0.002 A 
HETATM   22  C   UNL     1      44.602 -11.452   5.108  1.00  0.00     0.001 A 
HETATM   23  C   UNL     1      43.276 -11.037   5.221  1.00  0.00     0.020 A 
BRANCH  19  24
HETATM   24  N   UNL     1      43.146 -10.440   8.944  1.00  0.00    -0.320 N 
HETATM   25  C   UNL     1      43.379  -9.225   9.568  1.00  0.00     0.279 C 
HETATM   26  O   UNL     1      43.978  -8.282   9.060  1.00  0.00    -0.265 OA
HETATM   27  H   UNL     1      42.874 -11.183   9.581  1.00  0.00     0.169 HD
BRANCH  25  28
HETATM   28  C   UNL     1      42.922  -9.204  10.945  1.00  0.00     0.142 A 
HETATM   29  O   UNL     1      41.782  -9.891  11.289  1.00  0.00    -0.317 OA
HETATM   30  C   UNL     1      41.599  -9.717  12.623  1.00  0.00     0.143 A 
HETATM   31  C   UNL     1      42.601  -8.939  13.152  1.00  0.00     0.027 A 
HETATM   32  C   UNL     1      43.453  -8.606  12.072  1.00  0.00     0.045 A 
ENDBRANCH  25  28
ENDBRANCH  19  24
ENDBRANCH   1  18
TORSDOF 8
ENDMDL
MODEL 2
REMARK VINA RESULT:      -7.9      4.185      8.263
REMARK  8 active torsions:
REMARK  status: ('A' for Active; 'I' for Inactive)
REMARK    1  A    between atoms: N_2  and  C_3 
REMARK    2  A    between atoms: C_6  and  N_7 
REMARK       I    between atoms: N_7  and  C_8 
REMARK    3  A    between atoms: C_8  and  C_9 
REMARK    4  A    between atoms: C_9  and  O_10 
REMARK    5  A    between atoms: O_10  and  C_11 
REMARK    6  A    between atoms: C_11  and  C_12 
REMARK    7  A    between atoms: C_13  and  N_14 
REMARK       I    between atoms: N_14  and  C_15 
REMARK    8  A    between atoms: C_15  and  C_16 
ROOT
HETATM    1  C   UNL     1      44.136 -17.413   5.581  1.00  0.00     0.296 C 
HETATM    2  O   UNL     1      44.944 -16.508   5.426  1.00  0.00    -0.259 OA
ENDROOT
BRANCH   1   3
HETATM    3  O   UNL     1      43.490 -17.721   6.731  1.00  0.00    -0.308 OA
BRANCH   3   4
HETATM    4  C   UNL     1      43.213 -16.609   7.581  1.00  0.00     0.282 C 
BRANCH   4   5
HETATM    5  C   UNL     1      42.071 -15.708   7.095  1.00  0.00     0.246 C 
HETATM    6  N   UNL     1      42.512 -14.485   6.623  1.00  0.00    -0.325 N 
HETATM    7  H   UNL     1      43.508 -14.294   6.749  1.00  0.00     0.169 HD
HETATM    8  O   UNL     1      40.906 -16.098   7.133  1.00  0.00    -0.271 OA
BRANCH   6   9
HETATM    9  C   UNL     1      41.751 -13.454   6.041  1.00  0.00     0.034 A 
HETATM   10  C   UNL     1      42.269 -12.225   5.644  1.00  0.00     0.032 A 
HETATM   11  C   UNL     1      41.431 -11.241   5.093  1.00  0.00     0.031 A 
HETATM   12  C   UNL     1      40.057 -11.450   4.905  1.00  0.00     0.029 A 
HETATM   13  C   UNL     1      39.556 -12.693   5.323  1.00  0.00     0.031 A 
HETATM   14  C   UNL     1      40.384 -13.680   5.879  1.00  0.00     0.032 A 
BRANCH  12  15
HETATM   15  N   UNL     1      39.193 -10.475   4.382  1.00  0.00    -0.390 N 
HETATM   16  C   UNL     1      39.751  -9.660   3.298  1.00  0.00     0.149 C 
HETATM   17  C   UNL     1      38.341  -9.734   5.312  1.00  0.00     0.149 C 
ENDBRANCH  12  15
ENDBRANCH   6   9
ENDBRANCH   4   5
ENDBRANCH   3   4
ENDBRANCH   1   3
BRANCH   1  18
HETATM   18  C   UNL     1      43.762 -18.381   4.529  1.00  0.00     0.066 A 
HETATM   19  C   UNL     1      43.331 -17.980   3.252  1.00  0.00     0.051 A 
HETATM   20  C   UNL     1      43.270 -18.945   2.233  1.00  0.00     0.030 A 
HETATM   21  C   UNL     1      43.550 -20.289   2.494  1.00  0.00     0.002 A 
HETATM   22  C   UNL     1      43.920 -20.687   3.774  1.00  0.00     0.001 A 
HETATM   23  C   UNL     1      44.041 -19.737   4.785  1.00  0.00     0.020 A 
BRANCH  19  24
HETATM   24  N   UNL     1      42.928 -16.679   2.877  1.00  0.00    -0.320 N 
HETATM   25  C   UNL     1      41.730 -16.056   3.190  1.00  0.00     0.279 C 
HETATM   26  O   UNL     1      40.825 -16.570   3.841  1.00  0.00    -0.265 OA
HETATM   27  H   UNL     1      43.444 -16.223   2.130  1.00  0.00     0.169 HD
BRANCH  25  28
HETATM   28  C   UNL     1      41.602 -14.746   2.581  1.00  0.00     0.142 A 
HETATM   29  O   UNL     1      40.360 -14.295   2.203  1.00  0.00    -0.317 OA
HETATM   30  C   UNL     1      40.528 -13.051   1.684  1.00  0.00     0.143 A 
HETATM   31  C   UNL     1      41.852 -12.684   1.725  1.00  0.00     0.027 A 
HETATM   32  C   UNL     1      42.546 -13.775   2.301  1.00  0.00     0.045 A 
ENDBRANCH  25  28
ENDBRANCH  19  24
ENDBRANCH   1  18
TORSDOF 8
ENDMDL
MODEL 3
REMARK VINA RESULT:      -7.8      3.326      7.577
REMARK  8 active torsions:
REMARK  status: ('A' for Active; 'I' for Inactive)
REMARK    1  A    between atoms: N_2  and  C_3 
REMARK    2  A    between atoms: C_6  and  N_7 
REMARK       I    between atoms: N_7  and  C_8 
REMARK    3  A    between atoms: C_8  and  C_9 
REMARK    4  A    between atoms: C_9  and  O_10 
REMARK    5  A    between atoms: O_10  and  C_11 
REMARK    6  A    between atoms: C_11  and  C_12 
REMARK    7  A    between atoms: C_13  and  N_14 
REMARK       I    between atoms: N_14  and  C_15 
REMARK    8  A    between atoms: C_15  and  C_16 
ROOT
HETATM    1  C   UNL     1      42.684 -16.838   2.060  1.00  0.00     0.296 C 
HETATM    2  O   UNL     1      43.236 -16.271   1.128  1.00  0.00    -0.259 OA
ENDROOT
BRANCH   1   3
HETATM    3  O   UNL     1      41.406 -16.652   2.467  1.00  0.00    -0.308 OA
BRANCH   3   4
HETATM    4  C   UNL     1      40.688 -15.649   1.752  1.00  0.00     0.282 C 
BRANCH   4   5
HETATM    5  C   UNL     1      40.775 -14.246   2.366  1.00  0.00     0.246 C 
HETATM    6  N   UNL     1      39.812 -14.019   3.332  1.00  0.00    -0.325 N 
HETATM    7  H   UNL     1      39.111 -14.755   3.441  1.00  0.00     0.169 HD
HETATM    8  O   UNL     1      41.645 -13.457   2.005  1.00  0.00    -0.271 OA
BRANCH   6   9
HETATM    9  C   UNL     1      39.645 -12.879   4.141  1.00  0.00     0.034 A 
HETATM   10  C   UNL     1      39.719 -12.886   5.530  1.00  0.00     0.032 A 
HETATM   11  C   UNL     1      39.515 -11.704   6.262  1.00  0.00     0.031 A 
HETATM   12  C   UNL     1      39.249 -10.476   5.639  1.00  0.00     0.029 A 
HETATM   13  C   UNL     1      39.169 -10.497   4.237  1.00  0.00     0.031 A 
HETATM   14  C   UNL     1      39.366 -11.673   3.498  1.00  0.00     0.032 A 
BRANCH  12  15
HETATM   15  N   UNL     1      39.015  -9.286   6.347  1.00  0.00    -0.390 N 
HETATM   16  C   UNL     1      38.384  -8.212   5.574  1.00  0.00     0.149 C 
HETATM   17  C   UNL     1      40.037  -8.829   7.289  1.00  0.00     0.149 C 
ENDBRANCH  12  15
ENDBRANCH   6   9
ENDBRANCH   4   5
ENDBRANCH   3   4
ENDBRANCH   1   3
BRANCH   1  18
HETATM   18  C   UNL     1      43.353 -17.804   2.957  1.00  0.00     0.066 A 
HETATM   19  C   UNL     1      43.731 -17.477   4.272  1.00  0.00     0.051 A 
HETATM   20  C   UNL     1      44.095 -18.517   5.141  1.00  0.00     0.030 A 
HETATM   21  C   UNL     1      44.162 -19.840   4.697  1.00  0.00     0.002 A 
HETATM   22  C   UNL     1      43.842 -20.149   3.378  1.00  0.00     0.001 A 
HETATM   23  C   UNL     1      43.423 -19.138   2.515  1.00  0.00     0.020 A 
BRANCH  19  24
HETATM   24  N   UNL     1      43.799 -16.177   4.822  1.00  0.00    -0.320 N 
HETATM   25  C   UNL     1      42.755 -15.452   5.373  1.00  0.00     0.279 C 
HETATM   26  O   UNL     1      41.594 -15.844   5.447  1.00  0.00    -0.265 OA
HETATM   27  H   UNL     1      44.619 -15.618   4.608  1.00  0.00     0.169 HD
BRANCH  25  28
HETATM   28  C   UNL     1      43.151 -14.116   5.777  1.00  0.00     0.142 A 
HETATM   29  O   UNL     1      43.463 -13.872   7.092  1.00  0.00    -0.317 OA
HETATM   30  C   UNL     1      43.810 -12.562   7.185  1.00  0.00     0.143 A 
HETATM   31  C   UNL     1      43.737 -11.955   5.954  1.00  0.00     0.027 A 
HETATM   32  C   UNL     1      43.311 -12.953   5.046  1.00  0.00     0.045 A 
ENDBRANCH  25  28
ENDBRANCH  19  24
ENDBRANCH   1  18
TORSDOF 8
ENDMDL
MODEL 4
REMARK VINA RESULT:      -7.8      4.526      7.952
REMARK  8 active torsions:
REMARK  status: ('A' for Active; 'I' for Inactive)
REMARK    1  A    between atoms: N_2  and  C_3 
REMARK    2  A    between atoms: C_6  and  N_7 
REMARK       I    between atoms: N_7  and  C_8 
REMARK    3  A    between atoms: C_8  and  C_9 
REMARK    4  A    between atoms: C_9  and  O_10 
REMARK    5  A    between atoms: O_10  and  C_11 
REMARK    6  A    between atoms: C_11  and  C_12 
REMARK    7  A    between atoms: C_13  and  N_14 
REMARK       I    between atoms: N_14  and  C_15 
REMARK    8  A    between atoms: C_15  and  C_16 
ROOT
HETATM    1  C   UNL     1      42.834 -16.895   1.980  1.00  0.00     0.296 C 
HETATM    2  O   UNL     1      43.479 -16.014   1.430  1.00  0.00    -0.259 OA
ENDROOT
BRANCH   1   3
HETATM    3  O   UNL     1      41.490 -17.056   1.924  1.00  0.00    -0.308 OA
BRANCH   3   4
HETATM    4  C   UNL     1      40.742 -16.155   2.737  1.00  0.00     0.282 C 
BRANCH   4   5
HETATM    5  C   UNL     1      40.188 -14.936   1.989  1.00  0.00     0.246 C 
HETATM    6  N   UNL     1      40.617 -14.868   0.676  1.00  0.00    -0.325 N 
HETATM    7  H   UNL     1      41.317 -15.561   0.401  1.00  0.00     0.169 HD
HETATM    8  O   UNL     1      39.431 -14.147   2.550  1.00  0.00    -0.271 OA
BRANCH   6   9
HETATM    9  C   UNL     1      40.251 -13.932  -0.310  1.00  0.00     0.034 A 
HETATM   10  C   UNL     1      39.291 -14.159  -1.290  1.00  0.00     0.032 A 
HETATM   11  C   UNL     1      39.004 -13.176  -2.252  1.00  0.00     0.031 A 
HETATM   12  C   UNL     1      39.650 -11.931  -2.262  1.00  0.00     0.029 A 
HETATM   13  C   UNL     1      40.622 -11.729  -1.270  1.00  0.00     0.031 A 
HETATM   14  C   UNL     1      40.918 -12.707  -0.308  1.00  0.00     0.032 A 
BRANCH  12  15
HETATM   15  N   UNL     1      39.402 -10.942  -3.227  1.00  0.00    -0.390 N 
HETATM   16  C   UNL     1      40.532 -10.053  -3.516  1.00  0.00     0.149 C 
HETATM   17  C   UNL     1      38.100 -10.274  -3.216  1.00  0.00     0.149 C 
ENDBRANCH  12  15
ENDBRANCH   6   9
ENDBRANCH   4   5
ENDBRANCH   3   4
ENDBRANCH   1   3
BRANCH   1  18
HETATM   18  C   UNL     1      43.418 -17.922   2.867  1.00  0.00     0.066 A 
HETATM   19  C   UNL     1      43.739 -17.665   4.212  1.00  0.00     0.051 A 
HETATM   20  C   UNL     1      44.018 -18.754   5.053  1.00  0.00     0.030 A 
HETATM   21  C   UNL     1      44.059 -20.059   4.555  1.00  0.00     0.002 A 
HETATM   22  C   UNL     1      43.798 -20.300   3.210  1.00  0.00     0.001 A 
HETATM   23  C   UNL     1      43.462 -19.239   2.371  1.00  0.00     0.020 A 
BRANCH  19  24
HETATM   24  N   UNL     1      43.826 -16.393   4.821  1.00  0.00    -0.320 N 
HETATM   25  C   UNL     1      42.889 -15.805   5.655  1.00  0.00     0.279 C 
HETATM   26  O   UNL     1      41.819 -16.315   5.975  1.00  0.00    -0.265 OA
HETATM   27  H   UNL     1      44.518 -15.744   4.458  1.00  0.00     0.169 HD
BRANCH  25  28
HETATM   28  C   UNL     1      43.254 -14.456   6.047  1.00  0.00     0.142 A 
HETATM   29  O   UNL     1      43.275 -13.460   5.100  1.00  0.00    -0.317 OA
HETATM   30  C   UNL     1      43.628 -12.313   5.735  1.00  0.00     0.143 A 
HETATM   31  C   UNL     1      43.828 -12.544   7.075  1.00  0.00     0.027 A 
HETATM   32  C   UNL     1      43.588 -13.924   7.278  1.00  0.00     0.045 A 
ENDBRANCH  25  28
ENDBRANCH  19  24
ENDBRANCH   1  18
TORSDOF 8
ENDMDL
MODEL 5
REMARK VINA RESULT:      -7.6      4.600      8.554
REMARK  8 active torsions:
REMARK  status: ('A' for Active; 'I' for Inactive)
REMARK    1  A    between atoms: N_2  and  C_3 
REMARK    2  A    between atoms: C_6  and  N_7 
REMARK       I    between atoms: N_7  and  C_8 
REMARK    3  A    between atoms: C_8  and  C_9 
REMARK    4  A    between atoms: C_9  and  O_10 
REMARK    5  A    between atoms: O_10  and  C_11 
REMARK    6  A    between atoms: C_11  and  C_12 
REMARK    7  A    between atoms: C_13  and  N_14 
REMARK       I    between atoms: N_14  and  C_15 
REMARK    8  A    between atoms: C_15  and  C_16 
ROOT
HETATM    1  C   UNL     1      42.888 -16.008   5.324  1.00  0.00     0.296 C 
HETATM    2  O   UNL     1      43.471 -14.966   5.063  1.00  0.00    -0.259 OA
ENDROOT
BRANCH   1   3
HETATM    3  O   UNL     1      42.011 -16.202   6.338  1.00  0.00    -0.308 OA
BRANCH   3   4
HETATM    4  C   UNL     1      40.646 -15.959   6.005  1.00  0.00     0.282 C 
BRANCH   4   5
HETATM    5  C   UNL     1      40.299 -14.482   5.783  1.00  0.00     0.246 C 
HETATM    6  N   UNL     1      40.623 -14.037   4.513  1.00  0.00    -0.325 N 
HETATM    7  H   UNL     1      41.137 -14.700   3.929  1.00  0.00     0.169 HD
HETATM    8  O   UNL     1      39.774 -13.819   6.675  1.00  0.00    -0.271 OA
BRANCH   6   9
HETATM    9  C   UNL     1      40.382 -12.770   3.950  1.00  0.00     0.034 A 
HETATM   10  C   UNL     1      41.324 -11.749   3.881  1.00  0.00     0.032 A 
HETATM   11  C   UNL     1      40.991 -10.504   3.322  1.00  0.00     0.031 A 
HETATM   12  C   UNL     1      39.716 -10.238   2.799  1.00  0.00     0.029 A 
HETATM   13  C   UNL     1      38.780 -11.280   2.889  1.00  0.00     0.031 A 
HETATM   14  C   UNL     1      39.103 -12.525   3.450  1.00  0.00     0.032 A 
BRANCH  12  15
HETATM   15  N   UNL     1      39.348  -8.996   2.260  1.00  0.00    -0.390 N 
HETATM   16  C   UNL     1      38.111  -8.421   2.798  1.00  0.00     0.149 C 
HETATM   17  C   UNL     1      39.535  -8.781   0.824  1.00  0.00     0.149 C 
ENDBRANCH  12  15
ENDBRANCH   6   9
ENDBRANCH   4   5
ENDBRANCH   3   4
ENDBRANCH   1   3
BRANCH   1  18
HETATM   18  C   UNL     1      43.091 -17.278   4.597  1.00  0.00     0.066 A 
HETATM   19  C   UNL     1      42.816 -17.415   3.225  1.00  0.00     0.051 A 
HETATM   20  C   UNL     1      43.298 -18.552   2.556  1.00  0.00     0.030 A 
HETATM   21  C   UNL     1      43.967 -19.567   3.246  1.00  0.00     0.002 A 
HETATM   22  C   UNL     1      44.185 -19.451   4.615  1.00  0.00     0.001 A 
HETATM   23  C   UNL     1      43.764 -18.305   5.287  1.00  0.00     0.020 A 
BRANCH  19  24
HETATM   24  N   UNL     1      42.074 -16.515   2.428  1.00  0.00    -0.320 N 
HETATM   25  C   UNL     1      42.575 -15.472   1.666  1.00  0.00     0.279 C 
HETATM   26  O   UNL     1      43.762 -15.171   1.588  1.00  0.00    -0.265 OA
HETATM   27  H   UNL     1      41.071 -16.465   2.584  1.00  0.00     0.169 HD
BRANCH  25  28
HETATM   28  C   UNL     1      41.532 -14.690   1.029  1.00  0.00     0.142 A 
HETATM   29  O   UNL     1      41.746 -13.356   0.776  1.00  0.00    -0.317 OA
HETATM   30  C   UNL     1      40.629 -12.880   0.169  1.00  0.00     0.143 A 
HETATM   31  C   UNL     1      39.699 -13.880   0.015  1.00  0.00     0.027 A 
HETATM   32  C   UNL     1      40.277 -15.046   0.570  1.00  0.00     0.045 A 
ENDBRANCH  25  28
ENDBRANCH  19  24
ENDBRANCH   1  18
TORSDOF 8
ENDMDL
MODEL 6
REMARK VINA RESULT:      -7.5      2.337      3.509
REMARK  8 active torsions:
REMARK  status: ('A' for Active; 'I' for Inactive)
REMARK    1  A    between atoms: N_2  and  C_3 
REMARK    2  A    between atoms: C_6  and  N_7 
REMARK       I    between atoms: N_7  and  C_8 
REMARK    3  A    between atoms: C_8  and  C_9 
REMARK    4  A    between atoms: C_9  and  O_10 
REMARK    5  A    between atoms: O_10  and  C_11 
REMARK    6  A    between atoms: C_11  and  C_12 
REMARK    7  A    between atoms: C_13  and  N_14 
REMARK       I    between atoms: N_14  and  C_15 
REMARK    8  A    between atoms: C_15  and  C_16 
ROOT
HETATM    1  C   UNL     1      40.555 -11.738   4.812  1.00  0.00     0.296 C 
HETATM    2  O   UNL     1      40.559 -10.594   5.242  1.00  0.00    -0.259 OA
ENDROOT
BRANCH   1   3
HETATM    3  O   UNL     1      39.741 -12.742   5.217  1.00  0.00    -0.308 OA
BRANCH   3   4
HETATM    4  C   UNL     1      40.146 -13.398   6.416  1.00  0.00     0.282 C 
BRANCH   4   5
HETATM    5  C   UNL     1      40.493 -14.882   6.240  1.00  0.00     0.246 C 
HETATM    6  N   UNL     1      41.647 -15.083   5.505  1.00  0.00    -0.325 N 
HETATM    7  H   UNL     1      42.060 -14.246   5.089  1.00  0.00     0.169 HD
HETATM    8  O   UNL     1      39.786 -15.755   6.740  1.00  0.00    -0.271 OA
BRANCH   6   9
HETATM    9  C   UNL     1      42.290 -16.301   5.214  1.00  0.00     0.034 A 
HETATM   10  C   UNL     1      42.860 -17.135   6.170  1.00  0.00     0.032 A 
HETATM   11  C   UNL     1      43.505 -18.324   5.789  1.00  0.00     0.031 A 
HETATM   12  C   UNL     1      43.591 -18.731   4.449  1.00  0.00     0.029 A 
HETATM   13  C   UNL     1      43.017 -17.867   3.502  1.00  0.00     0.031 A 
HETATM   14  C   UNL     1      42.376 -16.676   3.873  1.00  0.00     0.032 A 
BRANCH  12  15
HETATM   15  N   UNL     1      44.252 -19.899   4.039  1.00  0.00    -0.390 N 
HETATM   16  C   UNL     1      43.920 -20.364   2.688  1.00  0.00     0.149 C 
HETATM   17  C   UNL     1      44.433 -20.972   5.016  1.00  0.00     0.149 C 
ENDBRANCH  12  15
ENDBRANCH   6   9
ENDBRANCH   4   5
ENDBRANCH   3   4
ENDBRANCH   1   3
BRANCH   1  18
HETATM   18  C   UNL     1      41.499 -12.247   3.796  1.00  0.00     0.066 A 
HETATM   19  C   UNL     1      42.882 -12.350   4.033  1.00  0.00     0.051 A 
HETATM   20  C   UNL     1      43.660 -13.099   3.136  1.00  0.00     0.030 A 
HETATM   21  C   UNL     1      43.098 -13.663   1.988  1.00  0.00     0.002 A 
HETATM   22  C   UNL     1      41.740 -13.507   1.730  1.00  0.00     0.001 A 
HETATM   23  C   UNL     1      40.939 -12.817   2.637  1.00  0.00     0.020 A 
BRANCH  19  24
HETATM   24  N   UNL     1      43.592 -11.753   5.098  1.00  0.00    -0.320 N 
HETATM   25  C   UNL     1      43.978 -12.360   6.283  1.00  0.00     0.279 C 
HETATM   26  O   UNL     1      43.735 -13.525   6.584  1.00  0.00    -0.265 OA
HETATM   27  H   UNL     1      43.643 -10.739   5.121  1.00  0.00     0.169 HD
BRANCH  25  28
HETATM   28  C   UNL     1      44.626 -11.440   7.200  1.00  0.00     0.142 A 
HETATM   29  O   UNL     1      44.186 -11.359   8.499  1.00  0.00    -0.317 OA
HETATM   30  C   UNL     1      44.970 -10.446   9.130  1.00  0.00     0.143 A 
HETATM   31  C   UNL     1      45.914  -9.942   8.267  1.00  0.00     0.027 A 
HETATM   32  C   UNL     1      45.694 -10.580   7.024  1.00  0.00     0.045 A 
ENDBRANCH  25  28
ENDBRANCH  19  24
ENDBRANCH   1  18
TORSDOF 8
ENDMDL
MODEL 7
REMARK VINA RESULT:      -7.5      3.378      5.769
REMARK  8 active torsions:
REMARK  status: ('A' for Active; 'I' for Inactive)
REMARK    1  A    between atoms: N_2  and  C_3 
REMARK    2  A    between atoms: C_6  and  N_7 
REMARK       I    between atoms: N_7  and  C_8 
REMARK    3  A    between atoms: C_8  and  C_9 
REMARK    4  A    between atoms: C_9  and  O_10 
REMARK    5  A    between atoms: O_10  and  C_11 
REMARK    6  A    between atoms: C_11  and  C_12 
REMARK    7  A    between atoms: C_13  and  N_14 
REMARK       I    between atoms: N_14  and  C_15 
REMARK    8  A    between atoms: C_15  and  C_16 
ROOT
HETATM    1  C   UNL     1      40.460 -14.708   6.381  1.00  0.00     0.296 C 
HETATM    2  O   UNL     1      39.754 -15.412   7.088  1.00  0.00    -0.259 OA
ENDROOT
BRANCH   1   3
HETATM    3  O   UNL     1      40.490 -13.353   6.378  1.00  0.00    -0.308 OA
BRANCH   3   4
HETATM    4  C   UNL     1      39.451 -12.731   5.625  1.00  0.00     0.282 C 
BRANCH   4   5
HETATM    5  C   UNL     1      39.823 -12.418   4.170  1.00  0.00     0.246 C 
HETATM    6  N   UNL     1      39.354 -13.365   3.277  1.00  0.00    -0.325 N 
HETATM    7  H   UNL     1      38.920 -14.191   3.695  1.00  0.00     0.169 HD
HETATM    8  O   UNL     1      40.459 -11.404   3.890  1.00  0.00    -0.271 OA
BRANCH   6   9
HETATM    9  C   UNL     1      39.449 -13.357   1.873  1.00  0.00     0.034 A 
HETATM   10  C   UNL     1      39.006 -12.317   1.063  1.00  0.00     0.032 A 
HETATM   11  C   UNL     1      39.119 -12.402  -0.335  1.00  0.00     0.031 A 
HETATM   12  C   UNL     1      39.688 -13.514  -0.972  1.00  0.00     0.029 A 
HETATM   13  C   UNL     1      40.118 -14.555  -0.133  1.00  0.00     0.031 A 
HETATM   14  C   UNL     1      40.006 -14.481   1.263  1.00  0.00     0.032 A 
BRANCH  12  15
HETATM   15  N   UNL     1      39.789 -13.637  -2.367  1.00  0.00    -0.390 N 
HETATM   16  C   UNL     1      40.082 -12.392  -3.085  1.00  0.00     0.149 C 
HETATM   17  C   UNL     1      38.846 -14.519  -3.054  1.00  0.00     0.149 C 
ENDBRANCH  12  15
ENDBRANCH   6   9
ENDBRANCH   4   5
ENDBRANCH   3   4
ENDBRANCH   1   3
BRANCH   1  18
HETATM   18  C   UNL     1      41.378 -15.226   5.346  1.00  0.00     0.066 A 
HETATM   19  C   UNL     1      42.752 -14.922   5.335  1.00  0.00     0.051 A 
HETATM   20  C   UNL     1      43.595 -15.672   4.499  1.00  0.00     0.030 A 
HETATM   21  C   UNL     1      43.080 -16.643   3.636  1.00  0.00     0.002 A 
HETATM   22  C   UNL     1      41.713 -16.897   3.611  1.00  0.00     0.001 A 
HETATM   23  C   UNL     1      40.865 -16.204   4.474  1.00  0.00     0.020 A 
BRANCH  19  24
HETATM   24  N   UNL     1      43.388 -13.907   6.083  1.00  0.00    -0.320 N 
HETATM   25  C   UNL     1      43.721 -12.635   5.644  1.00  0.00     0.279 C 
HETATM   26  O   UNL     1      43.516 -12.211   4.511  1.00  0.00    -0.265 OA
HETATM   27  H   UNL     1      43.853 -14.178   6.945  1.00  0.00     0.169 HD
BRANCH  25  28
HETATM   28  C   UNL     1      44.440 -11.867   6.644  1.00  0.00     0.142 A 
HETATM   29  O   UNL     1      45.743 -11.502   6.406  1.00  0.00    -0.317 OA
HETATM   30  C   UNL     1      46.160 -10.787   7.483  1.00  0.00     0.143 A 
HETATM   31  C   UNL     1      45.150 -10.673   8.408  1.00  0.00     0.027 A 
HETATM   32  C   UNL     1      44.042 -11.369   7.870  1.00  0.00     0.045 A 
ENDBRANCH  25  28
ENDBRANCH  19  24
ENDBRANCH   1  18
TORSDOF 8
ENDMDL
MODEL 8
REMARK VINA RESULT:      -7.4      2.323      9.048
REMARK  8 active torsions:
REMARK  status: ('A' for Active; 'I' for Inactive)
REMARK    1  A    between atoms: N_2  and  C_3 
REMARK    2  A    between atoms: C_6  and  N_7 
REMARK       I    between atoms: N_7  and  C_8 
REMARK    3  A    between atoms: C_8  and  C_9 
REMARK    4  A    between atoms: C_9  and  O_10 
REMARK    5  A    between atoms: O_10  and  C_11 
REMARK    6  A    between atoms: C_11  and  C_12 
REMARK    7  A    between atoms: C_13  and  N_14 
REMARK       I    between atoms: N_14  and  C_15 
REMARK    8  A    between atoms: C_15  and  C_16 
ROOT
HETATM    1  C   UNL     1      44.191 -11.615   5.277  1.00  0.00     0.296 C 
HETATM    2  O   UNL     1      44.760 -11.275   4.249  1.00  0.00    -0.259 OA
ENDROOT
BRANCH   1   3
HETATM    3  O   UNL     1      44.786 -12.048   6.414  1.00  0.00    -0.308 OA
BRANCH   3   4
HETATM    4  C   UNL     1      45.850 -11.225   6.887  1.00  0.00     0.282 C 
BRANCH   4   5
HETATM    5  C   UNL     1      45.414 -10.124   7.863  1.00  0.00     0.246 C 
HETATM    6  N   UNL     1      44.327 -10.490   8.638  1.00  0.00    -0.325 N 
HETATM    7  H   UNL     1      43.892 -11.384   8.399  1.00  0.00     0.169 HD
HETATM    8  O   UNL     1      46.018  -9.056   7.914  1.00  0.00    -0.271 OA
BRANCH   6   9
HETATM    9  C   UNL     1      43.716  -9.760   9.675  1.00  0.00     0.034 A 
HETATM   10  C   UNL     1      44.322  -9.467  10.891  1.00  0.00     0.032 A 
HETATM   11  C   UNL     1      43.629  -8.752  11.882  1.00  0.00     0.031 A 
HETATM   12  C   UNL     1      42.317  -8.292  11.691  1.00  0.00     0.029 A 
HETATM   13  C   UNL     1      41.723  -8.610  10.460  1.00  0.00     0.031 A 
HETATM   14  C   UNL     1      42.406  -9.327   9.467  1.00  0.00     0.032 A 
BRANCH  12  15
HETATM   15  N   UNL     1      41.592  -7.600  12.673  1.00  0.00    -0.390 N 
HETATM   16  C   UNL     1      41.139  -8.413  13.807  1.00  0.00     0.149 C 
HETATM   17  C   UNL     1      40.630  -6.586  12.239  1.00  0.00     0.149 C 
ENDBRANCH  12  15
ENDBRANCH   6   9
ENDBRANCH   4   5
ENDBRANCH   3   4
ENDBRANCH   1   3
BRANCH   1  18
HETATM   18  C   UNL     1      42.724 -11.666   5.436  1.00  0.00     0.066 A 
HETATM   19  C   UNL     1      42.003 -12.874   5.413  1.00  0.00     0.051 A 
HETATM   20  C   UNL     1      40.669 -12.865   5.851  1.00  0.00     0.030 A 
HETATM   21  C   UNL     1      40.039 -11.675   6.225  1.00  0.00     0.002 A 
HETATM   22  C   UNL     1      40.742 -10.474   6.190  1.00  0.00     0.001 A 
HETATM   23  C   UNL     1      42.083 -10.470   5.813  1.00  0.00     0.020 A 
BRANCH  19  24
HETATM   24  N   UNL     1      42.486 -14.126   4.972  1.00  0.00    -0.320 N 
HETATM   25  C   UNL     1      42.749 -14.501   3.664  1.00  0.00     0.279 C 
HETATM   26  O   UNL     1      42.580 -13.783   2.683  1.00  0.00    -0.265 OA
HETATM   27  H   UNL     1      42.433 -14.906   5.620  1.00  0.00     0.169 HD
BRANCH  25  28
HETATM   28  C   UNL     1      43.161 -15.888   3.550  1.00  0.00     0.142 A 
HETATM   29  O   UNL     1      43.630 -16.547   4.661  1.00  0.00    -0.317 OA
HETATM   30  C   UNL     1      43.923 -17.816   4.278  1.00  0.00     0.143 A 
HETATM   31  C   UNL     1      43.645 -17.995   2.944  1.00  0.00     0.027 A 
HETATM   32  C   UNL     1      43.155 -16.754   2.473  1.00  0.00     0.045 A 
ENDBRANCH  25  28
ENDBRANCH  19  24
ENDBRANCH   1  18
TORSDOF 8
ENDMDL
MODEL 9
REMARK VINA RESULT:      -7.4      3.225      9.815
REMARK  8 active torsions:
REMARK  status: ('A' for Active; 'I' for Inactive)
REMARK    1  A    between atoms: N_2  and  C_3 
REMARK    2  A    between atoms: C_6  and  N_7 
REMARK       I    between atoms: N_7  and  C_8 
REMARK    3  A    between atoms: C_8  and  C_9 
REMARK    4  A    between atoms: C_9  and  O_10 
REMARK    5  A    between atoms: O_10  and  C_11 
REMARK    6  A    between atoms: C_11  and  C_12 
REMARK    7  A    between atoms: C_13  and  N_14 
REMARK       I    between atoms: N_14  and  C_15 
REMARK    8  A    between atoms: C_15  and  C_16 
ROOT
HETATM    1  C   UNL     1      42.808 -13.726   3.768  1.00  0.00     0.296 C 
HETATM    2  O   UNL     1      42.610 -12.860   2.928  1.00  0.00    -0.259 OA
ENDROOT
BRANCH   1   3
HETATM    3  O   UNL     1      43.054 -13.523   5.084  1.00  0.00    -0.308 OA
BRANCH   3   4
HETATM    4  C   UNL     1      43.624 -12.256   5.401  1.00  0.00     0.282 C 
BRANCH   4   5
HETATM    5  C   UNL     1      43.703 -11.952   6.902  1.00  0.00     0.246 C 
HETATM    6  N   UNL     1      43.551 -10.607   7.189  1.00  0.00    -0.325 N 
HETATM    7  H   UNL     1      43.511  -9.982   6.381  1.00  0.00     0.169 HD
HETATM    8  O   UNL     1      43.870 -12.857   7.717  1.00  0.00    -0.271 OA
BRANCH   6   9
HETATM    9  C   UNL     1      43.499  -9.990   8.453  1.00  0.00     0.034 A 
HETATM   10  C   UNL     1      44.545  -9.992   9.371  1.00  0.00     0.032 A 
HETATM   11  C   UNL     1      44.399  -9.370  10.622  1.00  0.00     0.031 A 
HETATM   12  C   UNL     1      43.217  -8.714  10.997  1.00  0.00     0.029 A 
HETATM   13  C   UNL     1      42.172  -8.736  10.059  1.00  0.00     0.031 A 
HETATM   14  C   UNL     1      42.307  -9.358   8.809  1.00  0.00     0.032 A 
BRANCH  12  15
HETATM   15  N   UNL     1      43.034  -8.109  12.250  1.00  0.00    -0.390 N 
HETATM   16  C   UNL     1      42.570  -9.003  13.316  1.00  0.00     0.149 C 
HETATM   17  C   UNL     1      42.450  -6.769  12.294  1.00  0.00     0.149 C 
ENDBRANCH  12  15
ENDBRANCH   6   9
ENDBRANCH   4   5
ENDBRANCH   3   4
ENDBRANCH   1   3
BRANCH   1  18
HETATM   18  C   UNL     1      42.872 -15.172   3.470  1.00  0.00     0.066 A 
HETATM   19  C   UNL     1      42.576 -15.695   2.198  1.00  0.00     0.051 A 
HETATM   20  C   UNL     1      42.932 -17.025   1.923  1.00  0.00     0.030 A 
HETATM   21  C   UNL     1      43.492 -17.842   2.908  1.00  0.00     0.002 A 
HETATM   22  C   UNL     1      43.729 -17.334   4.181  1.00  0.00     0.001 A 
HETATM   23  C   UNL     1      43.436 -16.000   4.459  1.00  0.00     0.020 A 
BRANCH  19  24
HETATM   24  N   UNL     1      41.929 -15.011   1.144  1.00  0.00    -0.320 N 
HETATM   25  C   UNL     1      40.573 -15.015   0.860  1.00  0.00     0.279 C 
HETATM   26  O   UNL     1      39.728 -15.641   1.493  1.00  0.00    -0.265 OA
HETATM   27  H   UNL     1      42.507 -14.662   0.385  1.00  0.00     0.169 HD
BRANCH  25  28
HETATM   28  C   UNL     1      40.249 -14.270  -0.343  1.00  0.00     0.142 A 
HETATM   29  O   UNL     1      40.808 -13.031  -0.540  1.00  0.00    -0.317 OA
HETATM   30  C   UNL     1      40.353 -12.574  -1.735  1.00  0.00     0.143 A 
HETATM   31  C   UNL     1      39.518 -13.496  -2.320  1.00  0.00     0.027 A 
HETATM   32  C   UNL     1      39.449 -14.589  -1.424  1.00  0.00     0.045 A 
ENDBRANCH  25  28
ENDBRANCH  19  24
ENDBRANCH   1  18
TORSDOF 8
ENDMDL
MODEL 10
REMARK VINA RESULT:      -7.4     17.687     19.977
REMARK  8 active torsions:
REMARK  status: ('A' for Active; 'I' for Inactive)
REMARK    1  A    between atoms: N_2  and  C_3 
REMARK    2  A    between atoms: C_6  and  N_7 
REMARK       I    between atoms: N_7  and  C_8 
REMARK    3  A    between atoms: C_8  and  C_9 
REMARK    4  A    between atoms: C_9  and  O_10 
REMARK    5  A    between atoms: O_10  and  C_11 
REMARK    6  A    between atoms: C_11  and  C_12 
REMARK    7  A    between atoms: C_13  and  N_14 
REMARK       I    between atoms: N_14  and  C_15 
REMARK    8  A    between atoms: C_15  and  C_16 
ROOT
HETATM    1  C   UNL     1      45.902 -28.656   1.871  1.00  0.00     0.296 C 
HETATM    2  O   UNL     1      45.145 -29.013   2.762  1.00  0.00    -0.259 OA
ENDROOT
BRANCH   1   3
HETATM    3  O   UNL     1      47.088 -28.022   2.035  1.00  0.00    -0.308 OA
BRANCH   3   4
HETATM    4  C   UNL     1      48.060 -28.752   2.780  1.00  0.00     0.282 C 
BRANCH   4   5
HETATM    5  C   UNL     1      48.668 -29.946   2.033  1.00  0.00     0.246 C 
HETATM    6  N   UNL     1      49.565 -29.567   1.050  1.00  0.00    -0.325 N 
HETATM    7  H   UNL     1      49.632 -28.563   0.874  1.00  0.00     0.169 HD
HETATM    8  O   UNL     1      48.361 -31.097   2.336  1.00  0.00    -0.271 OA
BRANCH   6   9
HETATM    9  C   UNL     1      50.352 -30.395   0.228  1.00  0.00     0.034 A 
HETATM   10  C   UNL     1      51.202 -31.390   0.701  1.00  0.00     0.032 A 
HETATM   11  C   UNL     1      51.972 -32.155  -0.191  1.00  0.00     0.031 A 
HETATM   12  C   UNL     1      51.911 -31.969  -1.580  1.00  0.00     0.029 A 
HETATM   13  C   UNL     1      51.054 -30.953  -2.032  1.00  0.00     0.031 A 
HETATM   14  C   UNL     1      50.285 -30.181  -1.148  1.00  0.00     0.032 A 
BRANCH  12  15
HETATM   15  N   UNL     1      52.688 -32.701  -2.491  1.00  0.00    -0.390 N 
HETATM   16  C   UNL     1      53.810 -33.441  -1.905  1.00  0.00     0.149 C 
HETATM   17  C   UNL     1      52.980 -32.100  -3.793  1.00  0.00     0.149 C 
ENDBRANCH  12  15
ENDBRANCH   6   9
ENDBRANCH   4   5
ENDBRANCH   3   4
ENDBRANCH   1   3
BRANCH   1  18
HETATM   18  C   UNL     1      45.617 -28.806   0.429  1.00  0.00     0.066 A 
HETATM   19  C   UNL     1      44.426 -29.382  -0.049  1.00  0.00     0.051 A 
HETATM   20  C   UNL     1      44.109 -29.230  -1.409  1.00  0.00     0.030 A 
HETATM   21  C   UNL     1      44.988 -28.593  -2.289  1.00  0.00     0.002 A 
HETATM   22  C   UNL     1      46.191 -28.076  -1.819  1.00  0.00     0.001 A 
HETATM   23  C   UNL     1      46.499 -28.166  -0.463  1.00  0.00     0.020 A 
BRANCH  19  24
HETATM   24  N   UNL     1      43.497 -30.129   0.708  1.00  0.00    -0.320 N 
HETATM   25  C   UNL     1      42.303 -29.674   1.242  1.00  0.00     0.279 C 
HETATM   26  O   UNL     1      41.884 -28.525   1.141  1.00  0.00    -0.265 OA
HETATM   27  H   UNL     1      43.811 -31.014   1.098  1.00  0.00     0.169 HD
BRANCH  25  28
HETATM   28  C   UNL     1      41.622 -30.682   2.035  1.00  0.00     0.142 A 
HETATM   29  O   UNL     1      41.981 -30.863   3.349  1.00  0.00    -0.317 OA
HETATM   30  C   UNL     1      41.184 -31.842   3.849  1.00  0.00     0.143 A 
HETATM   31  C   UNL     1      40.310 -32.292   2.889  1.00  0.00     0.027 A 
HETATM   32  C   UNL     1      40.591 -31.547   1.719  1.00  0.00     0.045 A 
ENDBRANCH  25  28
ENDBRANCH  19  24
ENDBRANCH   1  18
TORSDOF 8
ENDMDL
