MODEL 1
REMARK VINA RESULT:      -9.1      0.000      0.000
REMARK  7 active torsions:
REMARK  status: ('A' for Active; 'I' for Inactive)
REMARK    1  A    between atoms: C_3  and  N_4 
REMARK       I    between atoms: N_4  and  C_5 
REMARK    2  A    between atoms: C_5  and  C_6 
REMARK    3  A    between atoms: C_7  and  C_8 
REMARK    4  A    between atoms: C_19  and  C_20 
REMARK    5  A    between atoms: C_20  and  C_21 
REMARK    6  A    between atoms: C_21  and  C_22 
REMARK    7  A    between atoms: C_22  and  O_23 
ROOT
HETATM    1  C   UNL     1      41.087 -12.168   2.320  1.00  0.00     0.062 C 
HETATM    2  C   UNL     1      41.490 -13.055   3.504  1.00  0.00     0.202 C 
HETATM    3  N   UNL     1      42.393 -12.336   4.413  1.00  0.00    -0.083 N 
HETATM    4  C   UNL     1      43.037 -11.176   4.082  1.00  0.00     0.726 A 
HETATM    5  N   UNL     1      42.750 -10.573   2.914  1.00  0.00    -0.192 N 
HETATM    6  N   UNL     1      42.777 -12.785   5.626  1.00  0.00    -0.140 NA
HETATM    7  C   UNL     1      43.709 -11.876   5.945  1.00  0.00     0.166 A 
HETATM    8  N   UNL     1      43.891 -10.867   5.024  1.00  0.00    -0.046 NA
HETATM    9  C   UNL     1      41.762 -11.020   2.045  1.00  0.00     0.037 C 
HETATM   10  C   UNL     1      41.566 -10.174   0.810  1.00  0.00     0.070 C 
HETATM   11  H   UNL     1      43.234  -9.709   2.682  1.00  0.00     0.184 HD
ENDROOT
BRANCH   1  12
HETATM   12  C   UNL     1      39.937 -12.691   1.518  1.00  0.00     0.256 C 
HETATM   13  N   UNL     1      40.060 -12.489   0.164  1.00  0.00    -0.323 N 
HETATM   14  H   UNL     1      40.716 -11.773  -0.119  1.00  0.00     0.169 HD
HETATM   15  O   UNL     1      38.941 -13.112   2.091  1.00  0.00    -0.267 OA
BRANCH  13  16
HETATM   16  C   UNL     1      39.276 -13.036  -0.880  1.00  0.00     0.041 A 
HETATM   17  C   UNL     1      38.097 -12.484  -1.417  1.00  0.00    -0.035 A 
HETATM   18  C   UNL     1      37.430 -11.226  -0.931  1.00  0.00     0.050 C 
HETATM   19  C   UNL     1      37.446 -13.164  -2.468  1.00  0.00     0.009 A 
HETATM   20  C   UNL     1      37.909 -14.391  -2.940  1.00  0.00     0.001 A 
HETATM   21  C   UNL     1      39.037 -14.962  -2.369  1.00  0.00     0.002 A 
HETATM   22  C   UNL     1      39.710 -14.292  -1.347  1.00  0.00     0.030 A 
ENDBRANCH  13  16
ENDBRANCH   1  12
BRANCH   2  23
HETATM   23  C   UNL     1      42.165 -14.364   3.087  1.00  0.00    -0.025 A 
HETATM   24  C   UNL     1      42.083 -15.521   3.880  1.00  0.00     0.052 A 
HETATM   25  C   UNL     1      42.700 -16.698   3.465  1.00  0.00     0.117 A 
HETATM   26  F   UNL     1      42.612 -17.791   4.234  1.00  0.00    -0.206 F 
HETATM   27  C   UNL     1      43.403 -16.757   2.270  1.00  0.00     0.042 A 
HETATM   28  C   UNL     1      43.490 -15.620   1.470  1.00  0.00     0.004 A 
HETATM   29  C   UNL     1      42.875 -14.431   1.874  1.00  0.00     0.010 A 
ENDBRANCH   2  23
BRANCH   7  30
HETATM   30  C   UNL     1      44.585 -11.999   7.136  1.00  0.00     0.085 C 
BRANCH  30  31
HETATM   31  C   UNL     1      45.860 -11.157   7.021  1.00  0.00     0.034 C 
BRANCH  31  32
HETATM   32  C   UNL     1      45.907  -9.934   7.934  1.00  0.00     0.164 C 
BRANCH  32  33
HETATM   33  O   UNL     1      46.881  -8.998   7.496  1.00  0.00    -0.401 OA
HETATM   34  H   UNL     1      47.450  -8.808   8.270  1.00  0.00     0.209 HD
ENDBRANCH  32  33
ENDBRANCH  31  32
ENDBRANCH  30  31
ENDBRANCH   7  30
TORSDOF 7
ENDMDL
MODEL 2
REMARK VINA RESULT:      -9.0      3.360      6.269
REMARK  7 active torsions:
REMARK  status: ('A' for Active; 'I' for Inactive)
REMARK    1  A    between atoms: C_3  and  N_4 
REMARK       I    between atoms: N_4  and  C_5 
REMARK    2  A    between atoms: C_5  and  C_6 
REMARK    3  A    between atoms: C_7  and  C_8 
REMARK    4  A    between atoms: C_19  and  C_20 
REMARK    5  A    between atoms: C_20  and  C_21 
REMARK    6  A    between atoms: C_21  and  C_22 
REMARK    7  A    between atoms: C_22  and  O_23 
ROOT
HETATM    1  C   UNL     1      40.294 -14.417   3.153  1.00  0.00     0.062 C 
HETATM    2  C   UNL     1      40.294 -13.302   4.206  1.00  0.00     0.202 C 
HETATM    3  N   UNL     1      39.482 -12.162   3.759  1.00  0.00    -0.083 N 
HETATM    4  C   UNL     1      39.066 -11.985   2.468  1.00  0.00     0.726 A 
HETATM    5  N   UNL     1      39.294 -12.955   1.565  1.00  0.00    -0.192 N 
HETATM    6  N   UNL     1      39.147 -11.110   4.534  1.00  0.00    -0.140 NA
HETATM    7  C   UNL     1      38.585 -10.300   3.627  1.00  0.00     0.166 A 
HETATM    8  N   UNL     1      38.510 -10.807   2.346  1.00  0.00    -0.046 NA
HETATM    9  C   UNL     1      39.861 -14.183   1.885  1.00  0.00     0.037 C 
HETATM   10  C   UNL     1      39.986 -15.150   0.733  1.00  0.00     0.070 C 
HETATM   11  H   UNL     1      38.976 -12.812   0.609  1.00  0.00     0.184 HD
ENDROOT
BRANCH   1  12
HETATM   12  C   UNL     1      40.823 -15.729   3.641  1.00  0.00     0.256 C 
HETATM   13  N   UNL     1      41.957 -16.154   2.989  1.00  0.00    -0.323 N 
HETATM   14  H   UNL     1      42.135 -15.729   2.089  1.00  0.00     0.169 HD
HETATM   15  O   UNL     1      40.172 -16.384   4.443  1.00  0.00    -0.267 OA
BRANCH  13  16
HETATM   16  C   UNL     1      42.822 -17.219   3.337  1.00  0.00     0.041 A 
HETATM   17  C   UNL     1      43.663 -17.277   4.465  1.00  0.00    -0.035 A 
HETATM   18  C   UNL     1      43.828 -16.180   5.481  1.00  0.00     0.050 C 
HETATM   19  C   UNL     1      44.456 -18.428   4.662  1.00  0.00     0.009 A 
HETATM   20  C   UNL     1      44.468 -19.471   3.739  1.00  0.00     0.001 A 
HETATM   21  C   UNL     1      43.683 -19.385   2.599  1.00  0.00     0.002 A 
HETATM   22  C   UNL     1      42.872 -18.268   2.399  1.00  0.00     0.030 A 
ENDBRANCH  13  16
ENDBRANCH   1  12
BRANCH   2  23
HETATM   23  C   UNL     1      41.693 -12.792   4.557  1.00  0.00    -0.025 A 
HETATM   24  C   UNL     1      42.199 -12.871   5.867  1.00  0.00     0.052 A 
HETATM   25  C   UNL     1      43.480 -12.408   6.149  1.00  0.00     0.117 A 
HETATM   26  F   UNL     1      43.946 -12.491   7.402  1.00  0.00    -0.206 F 
HETATM   27  C   UNL     1      44.282 -11.862   5.156  1.00  0.00     0.042 A 
HETATM   28  C   UNL     1      43.797 -11.780   3.853  1.00  0.00     0.004 A 
HETATM   29  C   UNL     1      42.512 -12.243   3.554  1.00  0.00     0.010 A 
ENDBRANCH   2  23
BRANCH   7  30
HETATM   30  C   UNL     1      38.182  -8.903   3.925  1.00  0.00     0.085 C 
BRANCH  30  31
HETATM   31  C   UNL     1      39.236  -8.145   4.740  1.00  0.00     0.034 C 
BRANCH  31  32
HETATM   32  C   UNL     1      38.850  -7.874   6.193  1.00  0.00     0.164 C 
BRANCH  32  33
HETATM   33  O   UNL     1      38.675  -9.083   6.917  1.00  0.00    -0.401 OA
HETATM   34  H   UNL     1      39.478  -9.620   6.757  1.00  0.00     0.209 HD
ENDBRANCH  32  33
ENDBRANCH  31  32
ENDBRANCH  30  31
ENDBRANCH   7  30
TORSDOF 7
ENDMDL
MODEL 3
REMARK VINA RESULT:      -8.6      3.313      6.778
REMARK  7 active torsions:
REMARK  status: ('A' for Active; 'I' for Inactive)
REMARK    1  A    between atoms: C_3  and  N_4 
REMARK       I    between atoms: N_4  and  C_5 
REMARK    2  A    between atoms: C_5  and  C_6 
REMARK    3  A    between atoms: C_7  and  C_8 
REMARK    4  A    between atoms: C_19  and  C_20 
REMARK    5  A    between atoms: C_20  and  C_21 
REMARK    6  A    between atoms: C_21  and  C_22 
REMARK    7  A    between atoms: C_22  and  O_23 
ROOT
HETATM    1  C   UNL     1      40.890 -12.437   1.872  1.00  0.00     0.062 C 
HETATM    2  C   UNL     1      41.134 -12.143   0.386  1.00  0.00     0.202 C 
HETATM    3  N   UNL     1      41.344 -10.706   0.166  1.00  0.00    -0.083 N 
HETATM    4  C   UNL     1      41.039  -9.743   1.088  1.00  0.00     0.726 A 
HETATM    5  N   UNL     1      40.640 -10.113   2.318  1.00  0.00    -0.192 N 
HETATM    6  N   UNL     1      41.753 -10.161  -0.999  1.00  0.00    -0.140 NA
HETATM    7  C   UNL     1      41.608  -8.856  -0.729  1.00  0.00     0.166 A 
HETATM    8  N   UNL     1      41.178  -8.560   0.548  1.00  0.00    -0.046 NA
HETATM    9  C   UNL     1      40.598 -11.436   2.744  1.00  0.00     0.037 C 
HETATM   10  C   UNL     1      40.167 -11.634   4.177  1.00  0.00     0.070 C 
HETATM   11  H   UNL     1      40.419  -9.387   2.996  1.00  0.00     0.184 HD
ENDROOT
BRANCH   1  12
HETATM   12  C   UNL     1      40.980 -13.885   2.238  1.00  0.00     0.256 C 
HETATM   13  N   UNL     1      42.267 -14.359   2.342  1.00  0.00    -0.323 N 
HETATM   14  H   UNL     1      42.979 -13.808   1.882  1.00  0.00     0.169 HD
HETATM   15  O   UNL     1      39.963 -14.564   2.277  1.00  0.00    -0.267 OA
BRANCH  13  16
HETATM   16  C   UNL     1      42.707 -15.596   2.870  1.00  0.00     0.041 A 
HETATM   17  C   UNL     1      43.046 -15.857   4.212  1.00  0.00    -0.035 A 
HETATM   18  C   UNL     1      43.050 -14.839   5.319  1.00  0.00     0.050 C 
HETATM   19  C   UNL     1      43.459 -17.160   4.567  1.00  0.00     0.009 A 
HETATM   20  C   UNL     1      43.592 -18.167   3.613  1.00  0.00     0.001 A 
HETATM   21  C   UNL     1      43.314 -17.891   2.283  1.00  0.00     0.002 A 
HETATM   22  C   UNL     1      42.880 -16.616   1.917  1.00  0.00     0.030 A 
ENDBRANCH  13  16
ENDBRANCH   1  12
BRANCH   2  23
HETATM   23  C   UNL     1      39.998 -12.612  -0.525  1.00  0.00    -0.025 A 
HETATM   24  C   UNL     1      40.126 -13.754  -1.336  1.00  0.00     0.052 A 
HETATM   25  C   UNL     1      39.069 -14.158  -2.145  1.00  0.00     0.117 A 
HETATM   26  F   UNL     1      39.209 -15.248  -2.910  1.00  0.00    -0.206 F 
HETATM   27  C   UNL     1      37.873 -13.453  -2.170  1.00  0.00     0.042 A 
HETATM   28  C   UNL     1      37.728 -12.322  -1.370  1.00  0.00     0.004 A 
HETATM   29  C   UNL     1      38.782 -11.904  -0.552  1.00  0.00     0.010 A 
ENDBRANCH   2  23
BRANCH   7  30
HETATM   30  C   UNL     1      41.767  -7.794  -1.753  1.00  0.00     0.085 C 
BRANCH  30  31
HETATM   31  C   UNL     1      43.229  -7.388  -1.962  1.00  0.00     0.034 C 
BRANCH  31  32
HETATM   32  C   UNL     1      43.515  -5.899  -1.775  1.00  0.00     0.164 C 
BRANCH  32  33
HETATM   33  O   UNL     1      44.907  -5.627  -1.840  1.00  0.00    -0.401 OA
HETATM   34  H   UNL     1      45.307  -6.354  -2.360  1.00  0.00     0.209 HD
ENDBRANCH  32  33
ENDBRANCH  31  32
ENDBRANCH  30  31
ENDBRANCH   7  30
TORSDOF 7
ENDMDL
MODEL 4
REMARK VINA RESULT:      -8.6      3.395      6.081
REMARK  7 active torsions:
REMARK  status: ('A' for Active; 'I' for Inactive)
REMARK    1  A    between atoms: C_3  and  N_4 
REMARK       I    between atoms: N_4  and  C_5 
REMARK    2  A    between atoms: C_5  and  C_6 
REMARK    3  A    between atoms: C_7  and  C_8 
REMARK    4  A    between atoms: C_19  and  C_20 
REMARK    5  A    between atoms: C_20  and  C_21 
REMARK    6  A    between atoms: C_21  and  C_22 
REMARK    7  A    between atoms: C_22  and  O_23 
ROOT
HETATM    1  C   UNL     1      41.732 -13.757   5.868  1.00  0.00     0.062 C 
HETATM    2  C   UNL     1      41.398 -15.120   5.248  1.00  0.00     0.202 C 
HETATM    3  N   UNL     1      42.356 -16.143   5.688  1.00  0.00    -0.083 N 
HETATM    4  C   UNL     1      43.552 -15.856   6.286  1.00  0.00     0.726 A 
HETATM    5  N   UNL     1      43.835 -14.583   6.615  1.00  0.00    -0.192 N 
HETATM    6  N   UNL     1      42.225 -17.465   5.456  1.00  0.00    -0.140 NA
HETATM    7  C   UNL     1      43.413 -17.913   5.884  1.00  0.00     0.166 A 
HETATM    8  N   UNL     1      44.253 -16.954   6.409  1.00  0.00    -0.046 NA
HETATM    9  C   UNL     1      42.937 -13.533   6.457  1.00  0.00     0.037 C 
HETATM   10  C   UNL     1      43.433 -12.190   6.933  1.00  0.00     0.070 C 
HETATM   11  H   UNL     1      44.726 -14.384   7.064  1.00  0.00     0.184 HD
ENDROOT
BRANCH   1  12
HETATM   12  C   UNL     1      40.647 -12.735   5.737  1.00  0.00     0.256 C 
HETATM   13  N   UNL     1      40.873 -11.800   4.754  1.00  0.00    -0.323 N 
HETATM   14  H   UNL     1      41.831 -11.705   4.446  1.00  0.00     0.169 HD
HETATM   15  O   UNL     1      39.744 -12.701   6.561  1.00  0.00    -0.267 OA
BRANCH  13  16
HETATM   16  C   UNL     1      39.972 -10.844   4.229  1.00  0.00     0.041 A 
HETATM   17  C   UNL     1      39.099 -11.029   3.139  1.00  0.00    -0.035 A 
HETATM   18  C   UNL     1      39.011 -12.275   2.301  1.00  0.00     0.050 C 
HETATM   19  C   UNL     1      38.257  -9.963   2.755  1.00  0.00     0.009 A 
HETATM   20  C   UNL     1      38.315  -8.723   3.389  1.00  0.00     0.001 A 
HETATM   21  C   UNL     1      39.218  -8.525   4.422  1.00  0.00     0.002 A 
HETATM   22  C   UNL     1      40.040  -9.575   4.834  1.00  0.00     0.030 A 
ENDBRANCH  13  16
ENDBRANCH   1  12
BRANCH   2  23
HETATM   23  C   UNL     1      41.370 -15.107   3.719  1.00  0.00    -0.025 A 
HETATM   24  C   UNL     1      40.352 -15.750   2.994  1.00  0.00     0.052 A 
HETATM   25  C   UNL     1      40.352 -15.709   1.603  1.00  0.00     0.117 A 
HETATM   26  F   UNL     1      39.374 -16.328   0.929  1.00  0.00    -0.206 F 
HETATM   27  C   UNL     1      41.346 -15.038   0.904  1.00  0.00     0.042 A 
HETATM   28  C   UNL     1      42.360 -14.392   1.607  1.00  0.00     0.004 A 
HETATM   29  C   UNL     1      42.372 -14.424   3.004  1.00  0.00     0.010 A 
ENDBRANCH   2  23
BRANCH   7  30
HETATM   30  C   UNL     1      43.867 -19.314   5.697  1.00  0.00     0.085 C 
BRANCH  30  31
HETATM   31  C   UNL     1      44.622 -19.521   4.381  1.00  0.00     0.034 C 
BRANCH  31  32
HETATM   32  C   UNL     1      43.735 -19.786   3.166  1.00  0.00     0.164 C 
BRANCH  32  33
HETATM   33  O   UNL     1      43.922 -21.102   2.667  1.00  0.00    -0.401 OA
HETATM   34  H   UNL     1      44.757 -21.430   3.057  1.00  0.00     0.209 HD
ENDBRANCH  32  33
ENDBRANCH  31  32
ENDBRANCH  30  31
ENDBRANCH   7  30
TORSDOF 7
ENDMDL
MODEL 5
REMARK VINA RESULT:      -8.4      2.779      4.534
REMARK  7 active torsions:
REMARK  status: ('A' for Active; 'I' for Inactive)
REMARK    1  A    between atoms: C_3  and  N_4 
REMARK       I    between atoms: N_4  and  C_5 
REMARK    2  A    between atoms: C_5  and  C_6 
REMARK    3  A    between atoms: C_7  and  C_8 
REMARK    4  A    between atoms: C_19  and  C_20 
REMARK    5  A    between atoms: C_20  and  C_21 
REMARK    6  A    between atoms: C_21  and  C_22 
REMARK    7  A    between atoms: C_22  and  O_23 
ROOT
HETATM    1  C   UNL     1      42.940 -13.557   4.256  1.00  0.00     0.062 C 
HETATM    2  C   UNL     1      43.132 -12.064   4.546  1.00  0.00     0.202 C 
HETATM    3  N   UNL     1      43.691 -11.861   5.890  1.00  0.00    -0.083 N 
HETATM    4  C   UNL     1      43.721 -12.829   6.854  1.00  0.00     0.726 A 
HETATM    5  N   UNL     1      43.339 -14.081   6.543  1.00  0.00    -0.192 N 
HETATM    6  N   UNL     1      44.133 -10.677   6.364  1.00  0.00    -0.140 NA
HETATM    7  C   UNL     1      44.355 -10.991   7.648  1.00  0.00     0.166 A 
HETATM    8  N   UNL     1      44.120 -12.307   7.986  1.00  0.00    -0.046 NA
HETATM    9  C   UNL     1      42.988 -14.477   5.257  1.00  0.00     0.037 C 
HETATM   10  C   UNL     1      42.636 -15.937   5.111  1.00  0.00     0.070 C 
HETATM   11  H   UNL     1      43.370 -14.793   7.268  1.00  0.00     0.184 HD
ENDROOT
BRANCH   1  12
HETATM   12  C   UNL     1      42.678 -13.879   2.819  1.00  0.00     0.256 C 
HETATM   13  N   UNL     1      41.369 -13.705   2.434  1.00  0.00    -0.323 N 
HETATM   14  H   UNL     1      40.688 -13.684   3.181  1.00  0.00     0.169 HD
HETATM   15  O   UNL     1      43.559 -14.391   2.142  1.00  0.00    -0.267 OA
BRANCH  13  16
HETATM   16  C   UNL     1      40.831 -13.711   1.125  1.00  0.00     0.041 A 
HETATM   17  C   UNL     1      40.134 -14.771   0.513  1.00  0.00    -0.035 A 
HETATM   18  C   UNL     1      39.884 -16.117   1.136  1.00  0.00     0.050 C 
HETATM   19  C   UNL     1      39.656 -14.599  -0.803  1.00  0.00     0.009 A 
HETATM   20  C   UNL     1      39.910 -13.434  -1.524  1.00  0.00     0.001 A 
HETATM   21  C   UNL     1      40.647 -12.415  -0.941  1.00  0.00     0.002 A 
HETATM   22  C   UNL     1      41.106 -12.555   0.369  1.00  0.00     0.030 A 
ENDBRANCH  13  16
ENDBRANCH   1  12
BRANCH   2  23
HETATM   23  C   UNL     1      41.844 -11.246   4.428  1.00  0.00    -0.025 A 
HETATM   24  C   UNL     1      40.738 -11.488   5.262  1.00  0.00     0.052 A 
HETATM   25  C   UNL     1      39.586 -10.718   5.134  1.00  0.00     0.117 A 
HETATM   26  F   UNL     1      38.541 -10.963   5.936  1.00  0.00    -0.206 F 
HETATM   27  C   UNL     1      39.502  -9.701   4.192  1.00  0.00     0.042 A 
HETATM   28  C   UNL     1      40.591  -9.446   3.362  1.00  0.00     0.004 A 
HETATM   29  C   UNL     1      41.755 -10.211   3.479  1.00  0.00     0.010 A 
ENDBRANCH   2  23
BRANCH   7  30
HETATM   30  C   UNL     1      44.703  -9.983   8.680  1.00  0.00     0.085 C 
BRANCH  30  31
HETATM   31  C   UNL     1      43.586  -9.778   9.708  1.00  0.00     0.034 C 
BRANCH  31  32
HETATM   32  C   UNL     1      43.865 -10.373  11.087  1.00  0.00     0.164 C 
BRANCH  32  33
HETATM   33  O   UNL     1      43.664 -11.779  11.095  1.00  0.00    -0.401 OA
HETATM   34  H   UNL     1      44.191 -12.138  10.352  1.00  0.00     0.209 HD
ENDBRANCH  32  33
ENDBRANCH  31  32
ENDBRANCH  30  31
ENDBRANCH   7  30
TORSDOF 7
ENDMDL
MODEL 6
REMARK VINA RESULT:      -8.4      2.473      4.051
REMARK  7 active torsions:
REMARK  status: ('A' for Active; 'I' for Inactive)
REMARK    1  A    between atoms: C_3  and  N_4 
REMARK       I    between atoms: N_4  and  C_5 
REMARK    2  A    between atoms: C_5  and  C_6 
REMARK    3  A    between atoms: C_7  and  C_8 
REMARK    4  A    between atoms: C_19  and  C_20 
REMARK    5  A    between atoms: C_20  and  C_21 
REMARK    6  A    between atoms: C_21  and  C_22 
REMARK    7  A    between atoms: C_22  and  O_23 
ROOT
HETATM    1  C   UNL     1      41.304 -13.431   3.618  1.00  0.00     0.062 C 
HETATM    2  C   UNL     1      41.900 -12.088   4.055  1.00  0.00     0.202 C 
HETATM    3  N   UNL     1      42.998 -12.289   5.010  1.00  0.00    -0.083 N 
HETATM    4  C   UNL     1      43.230 -13.469   5.662  1.00  0.00     0.726 A 
HETATM    5  N   UNL     1      42.506 -14.554   5.336  1.00  0.00    -0.192 N 
HETATM    6  N   UNL     1      43.829 -11.317   5.438  1.00  0.00    -0.140 NA
HETATM    7  C   UNL     1      44.498 -11.966   6.401  1.00  0.00     0.166 A 
HETATM    8  N   UNL     1      44.163 -13.294   6.563  1.00  0.00    -0.046 NA
HETATM    9  C   UNL     1      41.577 -14.574   4.302  1.00  0.00     0.037 C 
HETATM   10  C   UNL     1      40.906 -15.906   4.069  1.00  0.00     0.070 C 
HETATM   11  H   UNL     1      42.692 -15.426   5.826  1.00  0.00     0.184 HD
ENDROOT
BRANCH   1  12
HETATM   12  C   UNL     1      40.405 -13.350   2.424  1.00  0.00     0.256 C 
HETATM   13  N   UNL     1      41.073 -13.269   1.224  1.00  0.00    -0.323 N 
HETATM   14  H   UNL     1      42.038 -12.971   1.274  1.00  0.00     0.169 HD
HETATM   15  O   UNL     1      39.199 -13.218   2.581  1.00  0.00    -0.267 OA
BRANCH  13  16
HETATM   16  C   UNL     1      40.546 -13.394  -0.083  1.00  0.00     0.041 A 
HETATM   17  C   UNL     1      40.568 -12.409  -1.090  1.00  0.00    -0.035 A 
HETATM   18  C   UNL     1      41.117 -11.017  -0.929  1.00  0.00     0.050 C 
HETATM   19  C   UNL     1      40.001 -12.710  -2.347  1.00  0.00     0.009 A 
HETATM   20  C   UNL     1      39.372 -13.929  -2.590  1.00  0.00     0.001 A 
HETATM   21  C   UNL     1      39.299 -14.875  -1.578  1.00  0.00     0.002 A 
HETATM   22  C   UNL     1      39.877 -14.606  -0.337  1.00  0.00     0.030 A 
ENDBRANCH  13  16
ENDBRANCH   1  12
BRANCH   2  23
HETATM   23  C   UNL     1      40.877 -11.140   4.685  1.00  0.00    -0.025 A 
HETATM   24  C   UNL     1      40.210 -11.463   5.879  1.00  0.00     0.052 A 
HETATM   25  C   UNL     1      39.293 -10.573   6.430  1.00  0.00     0.117 A 
HETATM   26  F   UNL     1      38.666 -10.898   7.568  1.00  0.00    -0.206 F 
HETATM   27  C   UNL     1      39.019  -9.355   5.822  1.00  0.00     0.042 A 
HETATM   28  C   UNL     1      39.676  -9.018   4.640  1.00  0.00     0.004 A 
HETATM   29  C   UNL     1      40.599  -9.902   4.076  1.00  0.00     0.010 A 
ENDBRANCH   2  23
BRANCH   7  30
HETATM   30  C   UNL     1      45.443 -11.293   7.326  1.00  0.00     0.085 C 
BRANCH  30  31
HETATM   31  C   UNL     1      44.800 -10.128   8.085  1.00  0.00     0.034 C 
BRANCH  31  32
HETATM   32  C   UNL     1      45.726  -8.942   8.346  1.00  0.00     0.164 C 
BRANCH  32  33
HETATM   33  O   UNL     1      46.869  -8.983   7.504  1.00  0.00    -0.401 OA
HETATM   34  H   UNL     1      46.540  -9.176   6.601  1.00  0.00     0.209 HD
ENDBRANCH  32  33
ENDBRANCH  31  32
ENDBRANCH  30  31
ENDBRANCH   7  30
TORSDOF 7
ENDMDL
MODEL 7
REMARK VINA RESULT:      -8.4      3.319      7.299
REMARK  7 active torsions:
REMARK  status: ('A' for Active; 'I' for Inactive)
REMARK    1  A    between atoms: C_3  and  N_4 
REMARK       I    between atoms: N_4  and  C_5 
REMARK    2  A    between atoms: C_5  and  C_6 
REMARK    3  A    between atoms: C_7  and  C_8 
REMARK    4  A    between atoms: C_19  and  C_20 
REMARK    5  A    between atoms: C_20  and  C_21 
REMARK    6  A    between atoms: C_21  and  C_22 
REMARK    7  A    between atoms: C_22  and  O_23 
ROOT
HETATM    1  C   UNL     1      40.907 -12.287   1.528  1.00  0.00     0.062 C 
HETATM    2  C   UNL     1      41.106 -12.119   0.017  1.00  0.00     0.202 C 
HETATM    3  N   UNL     1      41.331 -10.709  -0.326  1.00  0.00    -0.083 N 
HETATM    4  C   UNL     1      41.071  -9.669   0.524  1.00  0.00     0.726 A 
HETATM    5  N   UNL     1      40.708  -9.931   1.792  1.00  0.00    -0.192 N 
HETATM    6  N   UNL     1      41.709 -10.268  -1.544  1.00  0.00    -0.140 NA
HETATM    7  C   UNL     1      41.594  -8.943  -1.377  1.00  0.00     0.166 A 
HETATM    8  N   UNL     1      41.211  -8.537  -0.116  1.00  0.00    -0.046 NA
HETATM    9  C   UNL     1      40.659 -11.214   2.325  1.00  0.00     0.037 C 
HETATM   10  C   UNL     1      40.273 -11.287   3.783  1.00  0.00     0.070 C 
HETATM   11  H   UNL     1      40.521  -9.149   2.415  1.00  0.00     0.184 HD
ENDROOT
BRANCH   1  12
HETATM   12  C   UNL     1      40.986 -13.702   2.009  1.00  0.00     0.256 C 
HETATM   13  N   UNL     1      42.269 -14.186   2.121  1.00  0.00    -0.323 N 
HETATM   14  H   UNL     1      42.978 -13.685   1.602  1.00  0.00     0.169 HD
HETATM   15  O   UNL     1      39.962 -14.361   2.126  1.00  0.00    -0.267 OA
BRANCH  13  16
HETATM   16  C   UNL     1      42.705 -15.383   2.737  1.00  0.00     0.041 A 
HETATM   17  C   UNL     1      43.006 -15.558   4.102  1.00  0.00    -0.035 A 
HETATM   18  C   UNL     1      42.967 -14.473   5.144  1.00  0.00     0.050 C 
HETATM   19  C   UNL     1      43.420 -16.831   4.548  1.00  0.00     0.009 A 
HETATM   20  C   UNL     1      43.593 -17.893   3.663  1.00  0.00     0.001 A 
HETATM   21  C   UNL     1      43.352 -17.703   2.311  1.00  0.00     0.002 A 
HETATM   22  C   UNL     1      42.917 -16.458   1.854  1.00  0.00     0.030 A 
ENDBRANCH  13  16
ENDBRANCH   1  12
BRANCH   2  23
HETATM   23  C   UNL     1      39.933 -12.640  -0.816  1.00  0.00    -0.025 A 
HETATM   24  C   UNL     1      40.027 -13.829  -1.560  1.00  0.00     0.052 A 
HETATM   25  C   UNL     1      38.937 -14.279  -2.299  1.00  0.00     0.117 A 
HETATM   26  F   UNL     1      39.045 -15.414  -3.001  1.00  0.00    -0.206 F 
HETATM   27  C   UNL     1      37.742 -13.573  -2.319  1.00  0.00     0.042 A 
HETATM   28  C   UNL     1      37.631 -12.395  -1.584  1.00  0.00     0.004 A 
HETATM   29  C   UNL     1      38.718 -11.931  -0.837  1.00  0.00     0.010 A 
ENDBRANCH   2  23
BRANCH   7  30
HETATM   30  C   UNL     1      41.735  -7.970  -2.488  1.00  0.00     0.085 C 
BRANCH  30  31
HETATM   31  C   UNL     1      41.382  -8.574  -3.851  1.00  0.00     0.034 C 
BRANCH  31  32
HETATM   32  C   UNL     1      39.885  -8.702  -4.128  1.00  0.00     0.164 C 
BRANCH  32  33
HETATM   33  O   UNL     1      39.394  -9.976  -3.738  1.00  0.00    -0.401 OA
HETATM   34  H   UNL     1      38.900  -9.839  -2.903  1.00  0.00     0.209 HD
ENDBRANCH  32  33
ENDBRANCH  31  32
ENDBRANCH  30  31
ENDBRANCH   7  30
TORSDOF 7
ENDMDL
MODEL 8
REMARK VINA RESULT:      -8.3      2.242      8.091
REMARK  7 active torsions:
REMARK  status: ('A' for Active; 'I' for Inactive)
REMARK    1  A    between atoms: C_3  and  N_4 
REMARK       I    between atoms: N_4  and  C_5 
REMARK    2  A    between atoms: C_5  and  C_6 
REMARK    3  A    between atoms: C_7  and  C_8 
REMARK    4  A    between atoms: C_19  and  C_20 
REMARK    5  A    between atoms: C_20  and  C_21 
REMARK    6  A    between atoms: C_21  and  C_22 
REMARK    7  A    between atoms: C_22  and  O_23 
ROOT
HETATM    1  C   UNL     1      41.195 -12.102   4.897  1.00  0.00     0.062 C 
HETATM    2  C   UNL     1      41.634 -12.754   3.580  1.00  0.00     0.202 C 
HETATM    3  N   UNL     1      40.667 -12.473   2.510  1.00  0.00    -0.083 N 
HETATM    4  C   UNL     1      39.408 -11.990   2.733  1.00  0.00     0.726 A 
HETATM    5  N   UNL     1      39.053 -11.626   3.978  1.00  0.00    -0.192 N 
HETATM    6  N   UNL     1      40.863 -12.759   1.206  1.00  0.00    -0.140 NA
HETATM    7  C   UNL     1      39.651 -12.483   0.705  1.00  0.00     0.166 A 
HETATM    8  N   UNL     1      38.731 -12.000   1.613  1.00  0.00    -0.046 NA
HETATM    9  C   UNL     1      39.929 -11.633   5.057  1.00  0.00     0.037 C 
HETATM   10  C   UNL     1      39.345 -11.143   6.360  1.00  0.00     0.070 C 
HETATM   11  H   UNL     1      38.114 -11.265   4.129  1.00  0.00     0.184 HD
ENDROOT
BRANCH   1  12
HETATM   12  C   UNL     1      42.256 -12.064   5.951  1.00  0.00     0.256 C 
HETATM   13  N   UNL     1      42.812 -10.821   6.142  1.00  0.00    -0.323 N 
HETATM   14  H   UNL     1      42.690 -10.161   5.386  1.00  0.00     0.169 HD
HETATM   15  O   UNL     1      42.650 -13.108   6.453  1.00  0.00    -0.267 OA
BRANCH  13  16
HETATM   16  C   UNL     1      43.669 -10.393   7.184  1.00  0.00     0.041 A 
HETATM   17  C   UNL     1      45.056 -10.625   7.274  1.00  0.00    -0.035 A 
HETATM   18  C   UNL     1      45.866 -11.423   6.288  1.00  0.00     0.050 C 
HETATM   19  C   UNL     1      45.759 -10.115   8.386  1.00  0.00     0.009 A 
HETATM   20  C   UNL     1      45.104  -9.444   9.417  1.00  0.00     0.001 A 
HETATM   21  C   UNL     1      43.730  -9.269   9.356  1.00  0.00     0.002 A 
HETATM   22  C   UNL     1      43.021  -9.744   8.252  1.00  0.00     0.030 A 
ENDBRANCH  13  16
ENDBRANCH   1  12
BRANCH   2  23
HETATM   23  C   UNL     1      41.821 -14.269   3.678  1.00  0.00    -0.025 A 
HETATM   24  C   UNL     1      42.923 -14.916   3.092  1.00  0.00     0.052 A 
HETATM   25  C   UNL     1      43.067 -16.296   3.210  1.00  0.00     0.117 A 
HETATM   26  F   UNL     1      44.123 -16.895   2.645  1.00  0.00    -0.206 F 
HETATM   27  C   UNL     1      42.137 -17.058   3.904  1.00  0.00     0.042 A 
HETATM   28  C   UNL     1      41.042 -16.432   4.494  1.00  0.00     0.004 A 
HETATM   29  C   UNL     1      40.884 -15.047   4.384  1.00  0.00     0.010 A 
ENDBRANCH   2  23
BRANCH   7  30
HETATM   30  C   UNL     1      39.263 -12.790  -0.693  1.00  0.00     0.085 C 
BRANCH  30  31
HETATM   31  C   UNL     1      39.518 -14.252  -1.071  1.00  0.00     0.034 C 
BRANCH  31  32
HETATM   32  C   UNL     1      39.090 -14.634  -2.487  1.00  0.00     0.164 C 
BRANCH  32  33
HETATM   33  O   UNL     1      38.380 -15.864  -2.499  1.00  0.00    -0.401 OA
HETATM   34  H   UNL     1      38.135 -16.033  -3.432  1.00  0.00     0.209 HD
ENDBRANCH  32  33
ENDBRANCH  31  32
ENDBRANCH  30  31
ENDBRANCH   7  30
TORSDOF 7
ENDMDL
MODEL 9
REMARK VINA RESULT:      -8.0     17.046     19.924
REMARK  7 active torsions:
REMARK  status: ('A' for Active; 'I' for Inactive)
REMARK    1  A    between atoms: C_3  and  N_4 
REMARK       I    between atoms: N_4  and  C_5 
REMARK    2  A    between atoms: C_5  and  C_6 
REMARK    3  A    between atoms: C_7  and  C_8 
REMARK    4  A    between atoms: C_19  and  C_20 
REMARK    5  A    between atoms: C_20  and  C_21 
REMARK    6  A    between atoms: C_21  and  C_22 
REMARK    7  A    between atoms: C_22  and  O_23 
ROOT
HETATM    1  C   UNL     1      46.857 -29.438   1.591  1.00  0.00     0.062 C 
HETATM    2  C   UNL     1      47.451 -29.051   0.231  1.00  0.00     0.202 C 
HETATM    3  N   UNL     1      46.388 -28.755  -0.738  1.00  0.00    -0.083 N 
HETATM    4  C   UNL     1      45.076 -29.095  -0.554  1.00  0.00     0.726 A 
HETATM    5  N   UNL     1      44.691 -29.617   0.624  1.00  0.00    -0.192 N 
HETATM    6  N   UNL     1      46.592 -28.220  -1.960  1.00  0.00    -0.140 NA
HETATM    7  C   UNL     1      45.365 -28.326  -2.488  1.00  0.00     0.166 A 
HETATM    8  N   UNL     1      44.404 -28.852  -1.650  1.00  0.00    -0.046 NA
HETATM    9  C   UNL     1      45.542 -29.759   1.714  1.00  0.00     0.037 C 
HETATM   10  C   UNL     1      44.900 -30.323   2.958  1.00  0.00     0.070 C 
HETATM   11  H   UNL     1      43.712 -29.862   0.749  1.00  0.00     0.184 HD
ENDROOT
BRANCH   1  12
HETATM   12  C   UNL     1      47.844 -29.449   2.716  1.00  0.00     0.256 C 
HETATM   13  N   UNL     1      48.191 -30.709   3.145  1.00  0.00    -0.323 N 
HETATM   14  H   UNL     1      47.553 -31.453   2.894  1.00  0.00     0.169 HD
HETATM   15  O   UNL     1      48.156 -28.399   3.259  1.00  0.00    -0.267 OA
BRANCH  13  16
HETATM   16  C   UNL     1      49.236 -31.080   4.024  1.00  0.00     0.041 A 
HETATM   17  C   UNL     1      50.603 -30.775   3.871  1.00  0.00    -0.035 A 
HETATM   18  C   UNL     1      51.202 -30.037   2.704  1.00  0.00     0.050 C 
HETATM   19  C   UNL     1      51.512 -31.219   4.855  1.00  0.00     0.009 A 
HETATM   20  C   UNL     1      51.096 -31.998   5.933  1.00  0.00     0.001 A 
HETATM   21  C   UNL     1      49.759 -32.347   6.050  1.00  0.00     0.002 A 
HETATM   22  C   UNL     1      48.841 -31.895   5.101  1.00  0.00     0.030 A 
ENDBRANCH  13  16
ENDBRANCH   1  12
BRANCH   2  23
HETATM   23  C   UNL     1      48.366 -30.123  -0.365  1.00  0.00    -0.025 A 
HETATM   24  C   UNL     1      49.682 -29.831  -0.764  1.00  0.00     0.052 A 
HETATM   25  C   UNL     1      50.490 -30.833  -1.293  1.00  0.00     0.117 A 
HETATM   26  F   UNL     1      51.741 -30.537  -1.668  1.00  0.00    -0.206 F 
HETATM   27  C   UNL     1      50.022 -32.132  -1.437  1.00  0.00     0.042 A 
HETATM   28  C   UNL     1      48.722 -32.439  -1.043  1.00  0.00     0.004 A 
HETATM   29  C   UNL     1      47.899 -31.443  -0.509  1.00  0.00     0.010 A 
ENDBRANCH   2  23
BRANCH   7  30
HETATM   30  C   UNL     1      45.066 -28.028  -3.910  1.00  0.00     0.085 C 
BRANCH  30  31
HETATM   31  C   UNL     1      44.480 -29.231  -4.656  1.00  0.00     0.034 C 
BRANCH  31  32
HETATM   32  C   UNL     1      45.418 -30.430  -4.777  1.00  0.00     0.164 C 
BRANCH  32  33
HETATM   33  O   UNL     1      45.441 -30.937  -6.104  1.00  0.00    -0.401 OA
HETATM   34  H   UNL     1      45.159 -30.202  -6.686  1.00  0.00     0.209 HD
ENDBRANCH  32  33
ENDBRANCH  31  32
ENDBRANCH  30  31
ENDBRANCH   7  30
TORSDOF 7
ENDMDL
MODEL 10
REMARK VINA RESULT:      -8.0     17.091     19.311
REMARK  7 active torsions:
REMARK  status: ('A' for Active; 'I' for Inactive)
REMARK    1  A    between atoms: C_3  and  N_4 
REMARK       I    between atoms: N_4  and  C_5 
REMARK    2  A    between atoms: C_5  and  C_6 
REMARK    3  A    between atoms: C_7  and  C_8 
REMARK    4  A    between atoms: C_19  and  C_20 
REMARK    5  A    between atoms: C_20  and  C_21 
REMARK    6  A    between atoms: C_21  and  C_22 
REMARK    7  A    between atoms: C_22  and  O_23 
ROOT
HETATM    1  C   UNL     1      46.107 -30.236  -0.277  1.00  0.00     0.062 C 
HETATM    2  C   UNL     1      45.709 -30.857   1.067  1.00  0.00     0.202 C 
HETATM    3  N   UNL     1      44.375 -30.401   1.479  1.00  0.00    -0.083 N 
HETATM    4  C   UNL     1      43.730 -29.334   0.918  1.00  0.00     0.726 A 
HETATM    5  N   UNL     1      44.271 -28.728  -0.154  1.00  0.00    -0.192 N 
HETATM    6  N   UNL     1      43.682 -30.904   2.522  1.00  0.00    -0.140 NA
HETATM    7  C   UNL     1      42.653 -30.047   2.574  1.00  0.00     0.166 A 
HETATM    8  N   UNL     1      42.645 -29.072   1.599  1.00  0.00    -0.046 NA
HETATM    9  C   UNL     1      45.423 -29.178  -0.790  1.00  0.00     0.037 C 
HETATM   10  C   UNL     1      45.836 -28.384  -2.004  1.00  0.00     0.070 C 
HETATM   11  H   UNL     1      43.779 -27.937  -0.564  1.00  0.00     0.184 HD
ENDROOT
BRANCH   1  12
HETATM   12  C   UNL     1      47.294 -30.874  -0.926  1.00  0.00     0.256 C 
HETATM   13  N   UNL     1      48.491 -30.266  -0.628  1.00  0.00    -0.323 N 
HETATM   14  H   UNL     1      48.431 -29.318  -0.280  1.00  0.00     0.169 HD
HETATM   15  O   UNL     1      47.130 -31.758  -1.756  1.00  0.00    -0.267 OA
BRANCH  13  16
HETATM   16  C   UNL     1      49.802 -30.730  -0.892  1.00  0.00     0.041 A 
HETATM   17  C   UNL     1      50.607 -31.495  -0.026  1.00  0.00    -0.035 A 
HETATM   18  C   UNL     1      50.227 -31.912   1.368  1.00  0.00     0.050 C 
HETATM   19  C   UNL     1      51.893 -31.881  -0.460  1.00  0.00     0.009 A 
HETATM   20  C   UNL     1      52.400 -31.474  -1.692  1.00  0.00     0.001 A 
HETATM   21  C   UNL     1      51.629 -30.671  -2.518  1.00  0.00     0.002 A 
HETATM   22  C   UNL     1      50.344 -30.300  -2.118  1.00  0.00     0.030 A 
ENDBRANCH  13  16
ENDBRANCH   1  12
BRANCH   2  23
HETATM   23  C   UNL     1      46.695 -30.553   2.197  1.00  0.00    -0.025 A 
HETATM   24  C   UNL     1      47.293 -29.288   2.334  1.00  0.00     0.052 A 
HETATM   25  C   UNL     1      48.177 -29.042   3.380  1.00  0.00     0.117 A 
HETATM   26  F   UNL     1      48.738 -27.831   3.495  1.00  0.00    -0.206 F 
HETATM   27  C   UNL     1      48.487 -30.030   4.306  1.00  0.00     0.042 A 
HETATM   28  C   UNL     1      47.900 -31.287   4.187  1.00  0.00     0.004 A 
HETATM   29  C   UNL     1      47.009 -31.548   3.142  1.00  0.00     0.010 A 
ENDBRANCH   2  23
BRANCH   7  30
HETATM   30  C   UNL     1      41.654 -30.046   3.671  1.00  0.00     0.085 C 
BRANCH  30  31
HETATM   31  C   UNL     1      40.795 -31.315   3.690  1.00  0.00     0.034 C 
BRANCH  31  32
HETATM   32  C   UNL     1      40.168 -31.645   5.043  1.00  0.00     0.164 C 
BRANCH  32  33
HETATM   33  O   UNL     1      38.790 -31.963   4.911  1.00  0.00    -0.401 OA
HETATM   34  H   UNL     1      38.712 -32.927   5.068  1.00  0.00     0.209 HD
ENDBRANCH  32  33
ENDBRANCH  31  32
ENDBRANCH  30  31
ENDBRANCH   7  30
TORSDOF 7
ENDMDL
