MODEL 1
REMARK VINA RESULT:      -8.5      0.000      0.000
REMARK  10 active torsions:
REMARK  status: ('A' for Active; 'I' for Inactive)
REMARK    1  A    between atoms: C_2  and  O_3 
REMARK    2  A    between atoms: O_3  and  C_4 
REMARK    3  A    between atoms: C_4  and  C_5 
REMARK    4  A    between atoms: C_6  and  C_7 
REMARK    5  A    between atoms: C_14  and  C_15 
REMARK    6  A    between atoms: C_15  and  C_16 
REMARK       I    between atoms: C_16  and  N_17 
REMARK    7  A    between atoms: N_17  and  C_18 
REMARK    8  A    between atoms: C_18  and  C_19 
REMARK    9  A    between atoms: C_19  and  N_20 
REMARK   10  A    between atoms: C_31  and  C_32 
ROOT
HETATM    1  C   UNL     1      41.266 -14.453   2.389  1.00  0.00     0.071 C 
HETATM    2  C   UNL     1      41.342 -13.843   3.811  1.00  0.00     0.150 C 
HETATM    3  N   UNL     1      41.959 -12.554   3.947  1.00  0.00    -0.321 N 
HETATM    4  C   UNL     1      42.671 -11.917   4.816  1.00  0.00     0.011 C 
HETATM    5  C   UNL     1      41.238 -11.635   2.984  1.00  0.00     0.170 C 
HETATM    6  S   UNL     1      41.495  -9.970   3.360  1.00  0.00    -0.086 SA
HETATM    7  C   UNL     1      42.776 -10.425   4.575  1.00  0.00     0.135 C 
HETATM    8  N   UNL     1      40.462 -12.083   2.074  1.00  0.00    -0.223 NA
HETATM    9  C   UNL     1      40.517 -13.437   1.683  1.00  0.00     0.084 C 
ENDROOT
BRANCH   4  10
HETATM   10  C   UNL     1      43.179 -12.590   6.059  1.00  0.00     0.156 C 
BRANCH  10  11
HETATM   11  C   UNL     1      44.128 -11.778   6.924  1.00  0.00     0.223 C 
HETATM   12  N   UNL     1      43.538 -11.281   8.058  1.00  0.00    -0.359 N 
HETATM   13  H   UNL     1      42.538 -11.435   8.176  1.00  0.00     0.162 HD
HETATM   14  O   UNL     1      45.302 -11.580   6.631  1.00  0.00    -0.273 OA
BRANCH  12  15
HETATM   15  C   UNL     1      44.175 -10.646   9.216  1.00  0.00     0.150 C 
BRANCH  15  16
HETATM   16  C   UNL     1      43.847  -9.188   9.591  1.00  0.00     0.254 C 
BRANCH  16  17
HETATM   17  N   UNL     1      42.820  -9.068  10.688  1.00  0.00    -0.070 N 
HETATM   18  H   UNL     1      41.905  -9.118  10.203  1.00  0.00     0.279 HD
HETATM   19  C   UNL     1      42.862  -7.722  11.399  1.00  0.00     0.235 C 
HETATM   20  C   UNL     1      43.208  -8.058  12.837  1.00  0.00     0.029 C 
HETATM   21  C   UNL     1      42.544  -9.402  13.044  1.00  0.00     0.029 C 
HETATM   22  C   UNL     1      42.875 -10.136  11.760  1.00  0.00     0.235 C 
ENDBRANCH  16  17
ENDBRANCH  15  16
ENDBRANCH  12  15
ENDBRANCH  10  11
ENDBRANCH   4  10
BRANCH   2  23
HETATM   23  C   UNL     1      42.148 -15.016   3.859  1.00  0.00     0.037 C 
HETATM   24  C   UNL     1      40.794 -16.268   3.784  1.00  0.00    -0.009 C 
HETATM   25  C   UNL     1      39.979 -16.624   5.308  1.00  0.00    -0.003 C 
HETATM   26  C   UNL     1      40.512 -15.852   6.834  1.00  0.00    -0.001 C 
HETATM   27  C   UNL     1      41.954 -14.770   6.908  1.00  0.00    -0.003 C 
HETATM   28  C   UNL     1      42.874 -14.402   5.445  1.00  0.00    -0.009 C 
ENDBRANCH   2  23
BRANCH   1  29
HETATM   29  C   UNL     1      42.231 -16.363   2.336  1.00  0.00     0.293 C 
HETATM   30  O   UNL     1      41.725 -17.452   1.929  1.00  0.00    -0.259 OA
BRANCH  29  31
HETATM   31  O   UNL     1      43.586 -16.656   2.736  1.00  0.00    -0.318 OA
BRANCH  31  32
HETATM   32  C   UNL     1      43.975 -18.001   3.092  1.00  0.00     0.174 C 
HETATM   33  C   UNL     1      44.093 -18.122   4.599  1.00  0.00     0.034 C 
ENDBRANCH  31  32
ENDBRANCH  29  31
ENDBRANCH   1  29
BRANCH   9  34
HETATM   34  C   UNL     1      39.808 -13.458   0.354  1.00  0.00    -0.006 A 
HETATM   35  C   UNL     1      39.876 -14.595  -0.465  1.00  0.00     0.014 A 
HETATM   36  C   UNL     1      39.178 -14.638  -1.673  1.00  0.00     0.001 A 
HETATM   37  C   UNL     1      38.384 -13.559  -2.061  1.00  0.00     0.000 A 
HETATM   38  C   UNL     1      38.275 -12.441  -1.238  1.00  0.00     0.001 A 
HETATM   39  C   UNL     1      38.973 -12.393  -0.029  1.00  0.00     0.014 A 
ENDBRANCH   9  34
TORSDOF 10
ENDMDL
MODEL 2
REMARK VINA RESULT:      -8.2      2.676      8.860
REMARK  10 active torsions:
REMARK  status: ('A' for Active; 'I' for Inactive)
REMARK    1  A    between atoms: C_2  and  O_3 
REMARK    2  A    between atoms: O_3  and  C_4 
REMARK    3  A    between atoms: C_4  and  C_5 
REMARK    4  A    between atoms: C_6  and  C_7 
REMARK    5  A    between atoms: C_14  and  C_15 
REMARK    6  A    between atoms: C_15  and  C_16 
REMARK       I    between atoms: C_16  and  N_17 
REMARK    7  A    between atoms: N_17  and  C_18 
REMARK    8  A    between atoms: C_18  and  C_19 
REMARK    9  A    between atoms: C_19  and  N_20 
REMARK   10  A    between atoms: C_31  and  C_32 
ROOT
HETATM    1  C   UNL     1      41.800 -12.624   5.354  1.00  0.00     0.071 C 
HETATM    2  C   UNL     1      41.232 -12.404   3.929  1.00  0.00     0.150 C 
HETATM    3  N   UNL     1      40.460 -11.217   3.699  1.00  0.00    -0.321 N 
HETATM    4  C   UNL     1      39.452 -10.852   2.978  1.00  0.00     0.011 C 
HETATM    5  C   UNL     1      41.324 -10.056   4.139  1.00  0.00     0.170 C 
HETATM    6  S   UNL     1      40.778  -8.554   3.487  1.00  0.00    -0.086 SA
HETATM    7  C   UNL     1      39.253  -9.353   2.884  1.00  0.00     0.135 C 
HETATM    8  N   UNL     1      42.383 -10.226   4.834  1.00  0.00    -0.223 NA
HETATM    9  C   UNL     1      42.603 -11.434   5.527  1.00  0.00     0.084 C 
ENDROOT
BRANCH   4  10
HETATM   10  C   UNL     1      38.677 -11.841   2.155  1.00  0.00     0.156 C 
BRANCH  10  11
HETATM   11  C   UNL     1      37.849 -11.267   1.018  1.00  0.00     0.223 C 
HETATM   12  N   UNL     1      38.583 -11.014  -0.113  1.00  0.00    -0.359 N 
HETATM   13  H   UNL     1      39.589 -11.161  -0.066  1.00  0.00     0.162 HD
HETATM   14  O   UNL     1      36.647 -11.044   1.107  1.00  0.00    -0.273 OA
BRANCH  12  15
HETATM   15  C   UNL     1      38.103 -10.668  -1.455  1.00  0.00     0.150 C 
BRANCH  15  16
HETATM   16  C   UNL     1      37.361 -11.710  -2.316  1.00  0.00     0.254 C 
BRANCH  16  17
HETATM   17  N   UNL     1      38.286 -12.626  -3.077  1.00  0.00    -0.070 N 
HETATM   18  H   UNL     1      38.046 -12.476  -4.075  1.00  0.00     0.279 HD
HETATM   19  C   UNL     1      38.038 -14.100  -2.786  1.00  0.00     0.235 C 
HETATM   20  C   UNL     1      39.333 -14.594  -2.172  1.00  0.00     0.029 C 
HETATM   21  C   UNL     1      40.384 -13.763  -2.876  1.00  0.00     0.029 C 
HETATM   22  C   UNL     1      39.767 -12.379  -2.877  1.00  0.00     0.235 C 
ENDBRANCH  16  17
ENDBRANCH  15  16
ENDBRANCH  12  15
ENDBRANCH  10  11
ENDBRANCH   4  10
BRANCH   2  23
HETATM   23  C   UNL     1      40.590 -13.578   4.416  1.00  0.00     0.037 C 
HETATM   24  C   UNL     1      42.059 -14.694   4.436  1.00  0.00    -0.009 C 
HETATM   25  C   UNL     1      42.497 -15.431   2.894  1.00  0.00    -0.003 C 
HETATM   26  C   UNL     1      41.504 -15.151   1.430  1.00  0.00    -0.001 C 
HETATM   27  C   UNL     1      39.970 -14.202   1.479  1.00  0.00    -0.003 C 
HETATM   28  C   UNL     1      39.415 -13.475   2.992  1.00  0.00    -0.009 C 
ENDBRANCH   2  23
BRANCH   1  29
HETATM   29  C   UNL     1      41.121 -14.489   6.156  1.00  0.00     0.293 C 
HETATM   30  O   UNL     1      39.926 -14.791   6.453  1.00  0.00    -0.259 OA
BRANCH  29  31
HETATM   31  O   UNL     1      41.928 -15.650   6.443  1.00  0.00    -0.318 OA
BRANCH  31  32
HETATM   32  C   UNL     1      42.710 -15.722   7.656  1.00  0.00     0.174 C 
HETATM   33  C   UNL     1      43.844 -16.712   7.481  1.00  0.00     0.034 C 
ENDBRANCH  31  32
ENDBRANCH  29  31
ENDBRANCH   1  29
BRANCH   9  34
HETATM   34  C   UNL     1      43.675 -11.086   6.527  1.00  0.00    -0.006 A 
HETATM   35  C   UNL     1      45.022 -11.355   6.240  1.00  0.00     0.014 A 
HETATM   36  C   UNL     1      46.022 -10.988   7.143  1.00  0.00     0.001 A 
HETATM   37  C   UNL     1      45.691 -10.325   8.324  1.00  0.00     0.000 A 
HETATM   38  C   UNL     1      44.361 -10.017   8.601  1.00  0.00     0.001 A 
HETATM   39  C   UNL     1      43.357 -10.383   7.702  1.00  0.00     0.014 A 
ENDBRANCH   9  34
TORSDOF 10
ENDMDL
MODEL 3
REMARK VINA RESULT:      -7.9      3.640      8.761
REMARK  10 active torsions:
REMARK  status: ('A' for Active; 'I' for Inactive)
REMARK    1  A    between atoms: C_2  and  O_3 
REMARK    2  A    between atoms: O_3  and  C_4 
REMARK    3  A    between atoms: C_4  and  C_5 
REMARK    4  A    between atoms: C_6  and  C_7 
REMARK    5  A    between atoms: C_14  and  C_15 
REMARK    6  A    between atoms: C_15  and  C_16 
REMARK       I    between atoms: C_16  and  N_17 
REMARK    7  A    between atoms: N_17  and  C_18 
REMARK    8  A    between atoms: C_18  and  C_19 
REMARK    9  A    between atoms: C_19  and  N_20 
REMARK   10  A    between atoms: C_31  and  C_32 
ROOT
HETATM    1  C   UNL     1      42.322 -13.740   3.567  1.00  0.00     0.071 C 
HETATM    2  C   UNL     1      40.953 -13.135   3.168  1.00  0.00     0.150 C 
HETATM    3  N   UNL     1      40.595 -13.164   1.778  1.00  0.00    -0.321 N 
HETATM    4  C   UNL     1      39.935 -12.434   0.941  1.00  0.00     0.011 C 
HETATM    5  C   UNL     1      40.716 -14.606   1.338  1.00  0.00     0.170 C 
HETATM    6  S   UNL     1      39.863 -14.912  -0.131  1.00  0.00    -0.086 SA
HETATM    7  C   UNL     1      39.589 -13.124  -0.363  1.00  0.00     0.135 C 
HETATM    8  N   UNL     1      41.308 -15.484   2.053  1.00  0.00    -0.223 NA
HETATM    9  C   UNL     1      42.183 -15.098   3.089  1.00  0.00     0.084 C 
ENDROOT
BRANCH   4  10
HETATM   10  C   UNL     1      39.399 -11.086   1.329  1.00  0.00     0.156 C 
BRANCH  10  11
HETATM   11  C   UNL     1      38.187 -10.595   0.554  1.00  0.00     0.223 C 
HETATM   12  N   UNL     1      38.503  -9.695  -0.432  1.00  0.00    -0.359 N 
HETATM   13  H   UNL     1      39.473  -9.395  -0.505  1.00  0.00     0.162 HD
HETATM   14  O   UNL     1      37.042 -10.960   0.794  1.00  0.00    -0.273 OA
BRANCH  12  15
HETATM   15  C   UNL     1      37.646  -9.177  -1.504  1.00  0.00     0.150 C 
BRANCH  15  16
HETATM   16  C   UNL     1      37.308 -10.050  -2.729  1.00  0.00     0.254 C 
BRANCH  16  17
HETATM   17  N   UNL     1      38.446 -10.172  -3.710  1.00  0.00    -0.070 N 
HETATM   18  H   UNL     1      38.002 -10.477  -4.596  1.00  0.00     0.279 HD
HETATM   19  C   UNL     1      39.446 -11.257  -3.329  1.00  0.00     0.235 C 
HETATM   20  C   UNL     1      40.752 -10.516  -3.112  1.00  0.00     0.029 C 
HETATM   21  C   UNL     1      40.671  -9.381  -4.110  1.00  0.00     0.029 C 
HETATM   22  C   UNL     1      39.240  -8.907  -3.958  1.00  0.00     0.235 C 
ENDBRANCH  16  17
ENDBRANCH  15  16
ENDBRANCH  12  15
ENDBRANCH  10  11
ENDBRANCH   4  10
BRANCH   2  23
HETATM   23  C   UNL     1      41.715 -12.044   3.675  1.00  0.00     0.037 C 
HETATM   24  C   UNL     1      41.747 -12.549   5.449  1.00  0.00    -0.009 C 
HETATM   25  C   UNL     1      40.316 -12.143   6.399  1.00  0.00    -0.003 C 
HETATM   26  C   UNL     1      38.962 -11.226   5.669  1.00  0.00    -0.001 C 
HETATM   27  C   UNL     1      39.035 -10.589   3.983  1.00  0.00    -0.003 C 
HETATM   28  C   UNL     1      40.453 -10.890   2.972  1.00  0.00    -0.009 C 
ENDBRANCH   2  23
BRANCH   1  29
HETATM   29  C   UNL     1      43.523 -12.284   4.576  1.00  0.00     0.293 C 
HETATM   30  O   UNL     1      43.910 -11.171   4.108  1.00  0.00    -0.259 OA
BRANCH  29  31
HETATM   31  O   UNL     1      44.030 -12.369   5.924  1.00  0.00    -0.318 OA
BRANCH  31  32
HETATM   32  C   UNL     1      45.191 -11.607   6.324  1.00  0.00     0.174 C 
HETATM   33  C   UNL     1      44.993 -11.062   7.725  1.00  0.00     0.034 C 
ENDBRANCH  31  32
ENDBRANCH  29  31
ENDBRANCH   1  29
BRANCH   9  34
HETATM   34  C   UNL     1      42.977 -16.346   3.375  1.00  0.00    -0.006 A 
HETATM   35  C   UNL     1      43.580 -16.528   4.629  1.00  0.00     0.014 A 
HETATM   36  C   UNL     1      44.274 -17.705   4.914  1.00  0.00     0.001 A 
HETATM   37  C   UNL     1      44.348 -18.722   3.963  1.00  0.00     0.000 A 
HETATM   38  C   UNL     1      43.720 -18.570   2.729  1.00  0.00     0.001 A 
HETATM   39  C   UNL     1      43.027 -17.393   2.438  1.00  0.00     0.014 A 
ENDBRANCH   9  34
TORSDOF 10
ENDMDL
MODEL 4
REMARK VINA RESULT:      -7.9      2.739      8.456
REMARK  10 active torsions:
REMARK  status: ('A' for Active; 'I' for Inactive)
REMARK    1  A    between atoms: C_2  and  O_3 
REMARK    2  A    between atoms: O_3  and  C_4 
REMARK    3  A    between atoms: C_4  and  C_5 
REMARK    4  A    between atoms: C_6  and  C_7 
REMARK    5  A    between atoms: C_14  and  C_15 
REMARK    6  A    between atoms: C_15  and  C_16 
REMARK       I    between atoms: C_16  and  N_17 
REMARK    7  A    between atoms: N_17  and  C_18 
REMARK    8  A    between atoms: C_18  and  C_19 
REMARK    9  A    between atoms: C_19  and  N_20 
REMARK   10  A    between atoms: C_31  and  C_32 
ROOT
HETATM    1  C   UNL     1      42.287 -13.802   5.203  1.00  0.00     0.071 C 
HETATM    2  C   UNL     1      42.038 -14.004   3.688  1.00  0.00     0.150 C 
HETATM    3  N   UNL     1      41.414 -12.929   2.969  1.00  0.00    -0.321 N 
HETATM    4  C   UNL     1      40.602 -12.782   1.975  1.00  0.00     0.011 C 
HETATM    5  C   UNL     1      42.251 -11.698   3.237  1.00  0.00     0.170 C 
HETATM    6  S   UNL     1      41.957 -10.448   2.083  1.00  0.00    -0.086 SA
HETATM    7  C   UNL     1      40.534 -11.375   1.419  1.00  0.00     0.135 C 
HETATM    8  N   UNL     1      43.133 -11.666   4.161  1.00  0.00    -0.223 NA
HETATM    9  C   UNL     1      43.121 -12.620   5.200  1.00  0.00     0.084 C 
ENDROOT
BRANCH   4  10
HETATM   10  C   UNL     1      39.943 -13.962   1.321  1.00  0.00     0.156 C 
BRANCH  10  11
HETATM   11  C   UNL     1      39.716 -13.860  -0.178  1.00  0.00     0.223 C 
HETATM   12  N   UNL     1      38.528 -13.259  -0.507  1.00  0.00    -0.359 N 
HETATM   13  H   UNL     1      37.898 -13.010   0.253  1.00  0.00     0.162 HD
HETATM   14  O   UNL     1      40.511 -14.283  -1.009  1.00  0.00    -0.273 OA
BRANCH  12  15
HETATM   15  C   UNL     1      38.069 -12.800  -1.823  1.00  0.00     0.150 C 
BRANCH  15  16
HETATM   16  C   UNL     1      37.746 -11.312  -2.065  1.00  0.00     0.254 C 
BRANCH  16  17
HETATM   17  N   UNL     1      38.917 -10.524  -2.596  1.00  0.00    -0.070 N 
HETATM   18  H   UNL     1      38.553 -10.045  -3.441  1.00  0.00     0.279 HD
HETATM   19  C   UNL     1      40.069 -11.406  -3.057  1.00  0.00     0.235 C 
HETATM   20  C   UNL     1      41.229 -11.024  -2.158  1.00  0.00     0.029 C 
HETATM   21  C   UNL     1      40.992  -9.551  -1.901  1.00  0.00     0.029 C 
HETATM   22  C   UNL     1      39.498  -9.494  -1.650  1.00  0.00     0.235 C 
ENDBRANCH  16  17
ENDBRANCH  15  16
ENDBRANCH  12  15
ENDBRANCH  10  11
ENDBRANCH   4  10
BRANCH   2  23
HETATM   23  C   UNL     1      41.228 -14.978   4.338  1.00  0.00     0.037 C 
HETATM   24  C   UNL     1      42.581 -16.043   5.002  1.00  0.00    -0.009 C 
HETATM   25  C   UNL     1      43.280 -17.206   3.874  1.00  0.00    -0.003 C 
HETATM   26  C   UNL     1      42.637 -17.369   2.210  1.00  0.00    -0.001 C 
HETATM   27  C   UNL     1      41.196 -16.442   1.644  1.00  0.00    -0.003 C 
HETATM   28  C   UNL     1      40.388 -15.297   2.722  1.00  0.00    -0.009 C 
ENDBRANCH   2  23
BRANCH   1  29
HETATM   29  C   UNL     1      41.329 -15.344   6.337  1.00  0.00     0.293 C 
HETATM   30  O   UNL     1      40.177 -15.830   6.125  1.00  0.00    -0.259 OA
BRANCH  29  31
HETATM   31  O   UNL     1      41.876 -16.046   7.472  1.00  0.00    -0.318 OA
BRANCH  31  32
HETATM   32  C   UNL     1      43.081 -15.579   8.117  1.00  0.00     0.174 C 
HETATM   33  C   UNL     1      44.152 -16.650   8.048  1.00  0.00     0.034 C 
ENDBRANCH  31  32
ENDBRANCH  29  31
ENDBRANCH   1  29
BRANCH   9  34
HETATM   34  C   UNL     1      43.989 -12.004   6.265  1.00  0.00    -0.006 A 
HETATM   35  C   UNL     1      45.281 -11.554   5.952  1.00  0.00     0.014 A 
HETATM   36  C   UNL     1      46.068 -10.937   6.925  1.00  0.00     0.001 A 
HETATM   37  C   UNL     1      45.566 -10.738   8.210  1.00  0.00     0.000 A 
HETATM   38  C   UNL     1      44.270 -11.144   8.524  1.00  0.00     0.001 A 
HETATM   39  C   UNL     1      43.479 -11.763   7.553  1.00  0.00     0.014 A 
ENDBRANCH   9  34
TORSDOF 10
ENDMDL
MODEL 5
REMARK VINA RESULT:      -7.9      3.695      8.177
REMARK  10 active torsions:
REMARK  status: ('A' for Active; 'I' for Inactive)
REMARK    1  A    between atoms: C_2  and  O_3 
REMARK    2  A    between atoms: O_3  and  C_4 
REMARK    3  A    between atoms: C_4  and  C_5 
REMARK    4  A    between atoms: C_6  and  C_7 
REMARK    5  A    between atoms: C_14  and  C_15 
REMARK    6  A    between atoms: C_15  and  C_16 
REMARK       I    between atoms: C_16  and  N_17 
REMARK    7  A    between atoms: N_17  and  C_18 
REMARK    8  A    between atoms: C_18  and  C_19 
REMARK    9  A    between atoms: C_19  and  N_20 
REMARK   10  A    between atoms: C_31  and  C_32 
ROOT
HETATM    1  C   UNL     1      42.316 -13.589   3.388  1.00  0.00     0.071 C 
HETATM    2  C   UNL     1      40.984 -12.933   2.945  1.00  0.00     0.150 C 
HETATM    3  N   UNL     1      40.663 -12.963   1.546  1.00  0.00    -0.321 N 
HETATM    4  C   UNL     1      40.057 -12.217   0.684  1.00  0.00     0.011 C 
HETATM    5  C   UNL     1      40.736 -14.414   1.126  1.00  0.00     0.170 C 
HETATM    6  S   UNL     1      39.911 -14.702  -0.363  1.00  0.00    -0.086 SA
HETATM    7  C   UNL     1      39.718 -12.907  -0.621  1.00  0.00     0.135 C 
HETATM    8  N   UNL     1      41.273 -15.308   1.865  1.00  0.00    -0.223 NA
HETATM    9  C   UNL     1      42.135 -14.946   2.920  1.00  0.00     0.084 C 
ENDROOT
BRANCH   4  10
HETATM   10  C   UNL     1      39.566 -10.844   1.043  1.00  0.00     0.156 C 
BRANCH  10  11
HETATM   11  C   UNL     1      38.996 -10.013  -0.095  1.00  0.00     0.223 C 
HETATM   12  N   UNL     1      39.958  -9.362  -0.825  1.00  0.00    -0.359 N 
HETATM   13  H   UNL     1      40.922  -9.434  -0.506  1.00  0.00     0.162 HD
HETATM   14  O   UNL     1      37.796  -9.927  -0.329  1.00  0.00    -0.273 OA
BRANCH  12  15
HETATM   15  C   UNL     1      39.813  -8.656  -2.102  1.00  0.00     0.150 C 
BRANCH  15  16
HETATM   16  C   UNL     1      39.850  -7.116  -2.154  1.00  0.00     0.254 C 
BRANCH  16  17
HETATM   17  N   UNL     1      41.246  -6.552  -2.234  1.00  0.00    -0.070 N 
HETATM   18  H   UNL     1      41.176  -5.760  -2.900  1.00  0.00     0.279 HD
HETATM   19  C   UNL     1      42.251  -7.532  -2.827  1.00  0.00     0.235 C 
HETATM   20  C   UNL     1      43.256  -7.770  -1.717  1.00  0.00     0.029 C 
HETATM   21  C   UNL     1      43.295  -6.437  -0.999  1.00  0.00     0.029 C 
HETATM   22  C   UNL     1      41.830  -6.057  -0.928  1.00  0.00     0.235 C 
ENDBRANCH  16  17
ENDBRANCH  15  16
ENDBRANCH  12  15
ENDBRANCH  10  11
ENDBRANCH   4  10
BRANCH   2  23
HETATM   23  C   UNL     1      41.777 -11.869   3.461  1.00  0.00     0.037 C 
HETATM   24  C   UNL     1      41.729 -12.346   5.243  1.00  0.00    -0.009 C 
HETATM   25  C   UNL     1      40.287 -11.863   6.139  1.00  0.00    -0.003 C 
HETATM   26  C   UNL     1      38.999 -10.900   5.352  1.00  0.00    -0.001 C 
HETATM   27  C   UNL     1      39.155 -10.293   3.660  1.00  0.00    -0.003 C 
HETATM   28  C   UNL     1      40.590 -10.672   2.701  1.00  0.00    -0.009 C 
ENDBRANCH   2  23
BRANCH   1  29
HETATM   29  C   UNL     1      43.549 -12.171   4.414  1.00  0.00     0.293 C 
HETATM   30  O   UNL     1      43.979 -11.072   3.951  1.00  0.00    -0.259 OA
BRANCH  29  31
HETATM   31  O   UNL     1      44.033 -12.271   5.769  1.00  0.00    -0.318 OA
BRANCH  31  32
HETATM   32  C   UNL     1      45.177 -11.502   6.202  1.00  0.00     0.174 C 
HETATM   33  C   UNL     1      45.053 -11.178   7.678  1.00  0.00     0.034 C 
ENDBRANCH  31  32
ENDBRANCH  29  31
ENDBRANCH   1  29
BRANCH   9  34
HETATM   34  C   UNL     1      42.869 -16.221   3.241  1.00  0.00    -0.006 A 
HETATM   35  C   UNL     1      43.473 -16.392   4.496  1.00  0.00     0.014 A 
HETATM   36  C   UNL     1      44.111 -17.593   4.814  1.00  0.00     0.001 A 
HETATM   37  C   UNL     1      44.126 -18.642   3.896  1.00  0.00     0.000 A 
HETATM   38  C   UNL     1      43.495 -18.500   2.663  1.00  0.00     0.001 A 
HETATM   39  C   UNL     1      42.857 -17.300   2.339  1.00  0.00     0.014 A 
ENDBRANCH   9  34
TORSDOF 10
ENDMDL
MODEL 6
REMARK VINA RESULT:      -7.7      3.600      8.792
REMARK  10 active torsions:
REMARK  status: ('A' for Active; 'I' for Inactive)
REMARK    1  A    between atoms: C_2  and  O_3 
REMARK    2  A    between atoms: O_3  and  C_4 
REMARK    3  A    between atoms: C_4  and  C_5 
REMARK    4  A    between atoms: C_6  and  C_7 
REMARK    5  A    between atoms: C_14  and  C_15 
REMARK    6  A    between atoms: C_15  and  C_16 
REMARK       I    between atoms: C_16  and  N_17 
REMARK    7  A    between atoms: N_17  and  C_18 
REMARK    8  A    between atoms: C_18  and  C_19 
REMARK    9  A    between atoms: C_19  and  N_20 
REMARK   10  A    between atoms: C_31  and  C_32 
ROOT
HETATM    1  C   UNL     1      42.347 -13.724   3.549  1.00  0.00     0.071 C 
HETATM    2  C   UNL     1      41.013 -13.061   3.123  1.00  0.00     0.150 C 
HETATM    3  N   UNL     1      40.703 -13.035   1.722  1.00  0.00    -0.321 N 
HETATM    4  C   UNL     1      40.097 -12.258   0.887  1.00  0.00     0.011 C 
HETATM    5  C   UNL     1      40.792 -14.467   1.242  1.00  0.00     0.170 C 
HETATM    6  S   UNL     1      39.981 -14.699  -0.264  1.00  0.00    -0.086 SA
HETATM    7  C   UNL     1      39.775 -12.896  -0.449  1.00  0.00     0.135 C 
HETATM    8  N   UNL     1      41.330 -15.386   1.948  1.00  0.00    -0.223 NA
HETATM    9  C   UNL     1      42.181 -15.061   3.024  1.00  0.00     0.084 C 
ENDROOT
BRANCH   4  10
HETATM   10  C   UNL     1      39.592 -10.905   1.299  1.00  0.00     0.156 C 
BRANCH  10  11
HETATM   11  C   UNL     1      38.844 -10.115   0.239  1.00  0.00     0.223 C 
HETATM   12  N   UNL     1      39.672  -9.488  -0.656  1.00  0.00    -0.359 N 
HETATM   13  H   UNL     1      40.676  -9.548  -0.493  1.00  0.00     0.162 HD
HETATM   14  O   UNL     1      37.621 -10.038   0.195  1.00  0.00    -0.273 OA
BRANCH  12  15
HETATM   15  C   UNL     1      39.321  -8.825  -1.917  1.00  0.00     0.150 C 
BRANCH  15  16
HETATM   16  C   UNL     1      39.456  -9.571  -3.259  1.00  0.00     0.254 C 
BRANCH  16  17
HETATM   17  N   UNL     1      38.146 -10.106  -3.780  1.00  0.00    -0.070 N 
HETATM   18  H   UNL     1      38.349 -10.406  -4.751  1.00  0.00     0.279 HD
HETATM   19  C   UNL     1      37.061  -9.040  -3.872  1.00  0.00     0.235 C 
HETATM   20  C   UNL     1      35.976  -9.514  -2.926  1.00  0.00     0.029 C 
HETATM   21  C   UNL     1      36.063 -11.021  -3.032  1.00  0.00     0.029 C 
HETATM   22  C   UNL     1      37.558 -11.269  -3.010  1.00  0.00     0.235 C 
ENDBRANCH  16  17
ENDBRANCH  15  16
ENDBRANCH  12  15
ENDBRANCH  10  11
ENDBRANCH   4  10
BRANCH   2  23
HETATM   23  C   UNL     1      41.793 -12.013   3.690  1.00  0.00     0.037 C 
HETATM   24  C   UNL     1      41.711 -12.549   5.454  1.00  0.00    -0.009 C 
HETATM   25  C   UNL     1      40.250 -12.099   6.337  1.00  0.00    -0.003 C 
HETATM   26  C   UNL     1      38.976 -11.113   5.556  1.00  0.00    -0.001 C 
HETATM   27  C   UNL     1      39.163 -10.450   3.889  1.00  0.00    -0.003 C 
HETATM   28  C   UNL     1      40.618 -10.794   2.947  1.00  0.00    -0.009 C 
ENDBRANCH   2  23
BRANCH   1  29
HETATM   29  C   UNL     1      43.560 -12.341   4.644  1.00  0.00     0.293 C 
HETATM   30  O   UNL     1      43.957 -11.205   4.243  1.00  0.00    -0.259 OA
BRANCH  29  31
HETATM   31  O   UNL     1      44.064 -12.509   5.986  1.00  0.00    -0.318 OA
BRANCH  31  32
HETATM   32  C   UNL     1      45.124 -11.666   6.486  1.00  0.00     0.174 C 
HETATM   33  C   UNL     1      44.715 -11.051   7.810  1.00  0.00     0.034 C 
ENDBRANCH  31  32
ENDBRANCH  29  31
ENDBRANCH   1  29
BRANCH   9  34
HETATM   34  C   UNL     1      42.923 -16.343   3.298  1.00  0.00    -0.006 A 
HETATM   35  C   UNL     1      43.521 -16.561   4.548  1.00  0.00     0.014 A 
HETATM   36  C   UNL     1      44.166 -17.768   4.822  1.00  0.00     0.001 A 
HETATM   37  C   UNL     1      44.195 -18.779   3.862  1.00  0.00     0.000 A 
HETATM   38  C   UNL     1      43.571 -18.591   2.631  1.00  0.00     0.001 A 
HETATM   39  C   UNL     1      42.926 -17.384   2.352  1.00  0.00     0.014 A 
ENDBRANCH   9  34
TORSDOF 10
ENDMDL
MODEL 7
REMARK VINA RESULT:      -7.7      3.252      9.738
REMARK  10 active torsions:
REMARK  status: ('A' for Active; 'I' for Inactive)
REMARK    1  A    between atoms: C_2  and  O_3 
REMARK    2  A    between atoms: O_3  and  C_4 
REMARK    3  A    between atoms: C_4  and  C_5 
REMARK    4  A    between atoms: C_6  and  C_7 
REMARK    5  A    between atoms: C_14  and  C_15 
REMARK    6  A    between atoms: C_15  and  C_16 
REMARK       I    between atoms: C_16  and  N_17 
REMARK    7  A    between atoms: N_17  and  C_18 
REMARK    8  A    between atoms: C_18  and  C_19 
REMARK    9  A    between atoms: C_19  and  N_20 
REMARK   10  A    between atoms: C_31  and  C_32 
ROOT
HETATM    1  C   UNL     1      43.045  -8.573   8.811  1.00  0.00     0.071 C 
HETATM    2  C   UNL     1      43.133  -9.468   7.549  1.00  0.00     0.150 C 
HETATM    3  N   UNL     1      41.904  -9.813   6.895  1.00  0.00    -0.321 N 
HETATM    4  C   UNL     1      41.414 -10.812   6.237  1.00  0.00     0.011 C 
HETATM    5  C   UNL     1      41.196  -8.509   6.604  1.00  0.00     0.170 C 
HETATM    6  S   UNL     1      39.970  -8.688   5.401  1.00  0.00    -0.086 SA
HETATM    7  C   UNL     1      40.144 -10.502   5.472  1.00  0.00     0.135 C 
HETATM    8  N   UNL     1      41.560  -7.407   7.139  1.00  0.00    -0.223 NA
HETATM    9  C   UNL     1      42.384  -7.400   8.283  1.00  0.00     0.084 C 
ENDROOT
BRANCH   4  10
HETATM   10  C   UNL     1      42.165 -12.105   6.101  1.00  0.00     0.156 C 
BRANCH  10  11
HETATM   11  C   UNL     1      41.340 -13.326   5.727  1.00  0.00     0.223 C 
HETATM   12  N   UNL     1      41.673 -13.852   4.505  1.00  0.00    -0.359 N 
HETATM   13  H   UNL     1      42.365 -13.353   3.949  1.00  0.00     0.162 HD
HETATM   14  O   UNL     1      40.460 -13.788   6.444  1.00  0.00    -0.273 OA
BRANCH  12  15
HETATM   15  C   UNL     1      41.254 -15.127   3.914  1.00  0.00     0.150 C 
BRANCH  15  16
HETATM   16  C   UNL     1      41.787 -16.462   4.471  1.00  0.00     0.254 C 
BRANCH  16  17
HETATM   17  N   UNL     1      43.034 -16.946   3.775  1.00  0.00    -0.070 N 
HETATM   18  H   UNL     1      43.677 -16.131   3.784  1.00  0.00     0.279 HD
HETATM   19  C   UNL     1      42.801 -17.299   2.312  1.00  0.00     0.235 C 
HETATM   20  C   UNL     1      43.123 -18.778   2.218  1.00  0.00     0.029 C 
HETATM   21  C   UNL     1      44.225 -18.953   3.240  1.00  0.00     0.029 C 
HETATM   22  C   UNL     1      43.724 -18.133   4.412  1.00  0.00     0.235 C 
ENDBRANCH  16  17
ENDBRANCH  15  16
ENDBRANCH  12  15
ENDBRANCH  10  11
ENDBRANCH   4  10
BRANCH   2  23
HETATM   23  C   UNL     1      43.611 -10.275   8.620  1.00  0.00     0.037 C 
HETATM   24  C   UNL     1      45.185  -9.370   8.950  1.00  0.00    -0.009 C 
HETATM   25  C   UNL     1      46.543  -9.760   7.893  1.00  0.00    -0.003 C 
HETATM   26  C   UNL     1      46.390 -11.023   6.633  1.00  0.00    -0.001 C 
HETATM   27  C   UNL     1      44.897 -12.019   6.450  1.00  0.00    -0.003 C 
HETATM   28  C   UNL     1      43.504 -11.745   7.503  1.00  0.00    -0.009 C 
ENDBRANCH   2  23
BRANCH   1  29
HETATM   29  C   UNL     1      43.950  -9.547  10.489  1.00  0.00     0.293 C 
HETATM   30  O   UNL     1      45.075  -9.270  11.004  1.00  0.00    -0.259 OA
BRANCH  29  31
HETATM   31  O   UNL     1      43.391 -10.627  11.264  1.00  0.00    -0.318 OA
BRANCH  31  32
HETATM   32  C   UNL     1      42.672 -10.361  12.489  1.00  0.00     0.174 C 
HETATM   33  C   UNL     1      41.790  -9.140  12.315  1.00  0.00     0.034 C 
ENDBRANCH  31  32
ENDBRANCH  29  31
ENDBRANCH   1  29
BRANCH   9  34
HETATM   34  C   UNL     1      42.223  -6.008   8.836  1.00  0.00    -0.006 A 
HETATM   35  C   UNL     1      41.411  -5.075   8.174  1.00  0.00     0.014 A 
HETATM   36  C   UNL     1      41.219  -3.800   8.711  1.00  0.00     0.001 A 
HETATM   37  C   UNL     1      41.811  -3.456   9.925  1.00  0.00     0.000 A 
HETATM   38  C   UNL     1      42.587  -4.387  10.612  1.00  0.00     0.001 A 
HETATM   39  C   UNL     1      42.783  -5.662  10.079  1.00  0.00     0.014 A 
ENDBRANCH   9  34
TORSDOF 10
ENDMDL
MODEL 8
REMARK VINA RESULT:      -6.0     22.808     25.096
REMARK  10 active torsions:
REMARK  status: ('A' for Active; 'I' for Inactive)
REMARK    1  A    between atoms: C_2  and  O_3 
REMARK    2  A    between atoms: O_3  and  C_4 
REMARK    3  A    between atoms: C_4  and  C_5 
REMARK    4  A    between atoms: C_6  and  C_7 
REMARK    5  A    between atoms: C_14  and  C_15 
REMARK    6  A    between atoms: C_15  and  C_16 
REMARK       I    between atoms: C_16  and  N_17 
REMARK    7  A    between atoms: N_17  and  C_18 
REMARK    8  A    between atoms: C_18  and  C_19 
REMARK    9  A    between atoms: C_19  and  N_20 
REMARK   10  A    between atoms: C_31  and  C_32 
ROOT
HETATM    1  C   UNL     1      31.221 -33.544  15.209  1.00  0.00     0.071 C 
HETATM    2  C   UNL     1      32.307 -32.928  16.126  1.00  0.00     0.150 C 
HETATM    3  N   UNL     1      33.421 -33.758  16.485  1.00  0.00    -0.321 N 
HETATM    4  C   UNL     1      34.208 -33.925  17.495  1.00  0.00     0.011 C 
HETATM    5  C   UNL     1      34.010 -34.263  15.186  1.00  0.00     0.170 C 
HETATM    6  S   UNL     1      35.620 -34.853  15.388  1.00  0.00    -0.086 SA
HETATM    7  C   UNL     1      35.451 -34.739  17.200  1.00  0.00     0.135 C 
HETATM    8  N   UNL     1      33.389 -34.156  14.074  1.00  0.00    -0.223 NA
HETATM    9  C   UNL     1      32.002 -33.906  14.046  1.00  0.00     0.084 C 
ENDROOT
BRANCH   4  10
HETATM   10  C   UNL     1      33.986 -33.197  18.790  1.00  0.00     0.156 C 
BRANCH  10  11
HETATM   11  C   UNL     1      35.054 -33.380  19.856  1.00  0.00     0.223 C 
HETATM   12  N   UNL     1      36.124 -32.536  19.702  1.00  0.00    -0.359 N 
HETATM   13  H   UNL     1      36.138 -31.937  18.879  1.00  0.00     0.162 HD
HETATM   14  O   UNL     1      34.970 -34.206  20.758  1.00  0.00    -0.273 OA
BRANCH  12  15
HETATM   15  C   UNL     1      37.224 -32.275  20.637  1.00  0.00     0.150 C 
BRANCH  15  16
HETATM   16  C   UNL     1      38.539 -31.642  20.143  1.00  0.00     0.254 C 
BRANCH  16  17
HETATM   17  N   UNL     1      38.403 -30.183  19.783  1.00  0.00    -0.070 N 
HETATM   18  H   UNL     1      39.375 -29.821  19.772  1.00  0.00     0.279 HD
HETATM   19  C   UNL     1      37.650 -29.378  20.834  1.00  0.00     0.235 C 
HETATM   20  C   UNL     1      36.421 -28.860  20.113  1.00  0.00     0.029 C 
HETATM   21  C   UNL     1      36.918 -28.650  18.699  1.00  0.00     0.029 C 
HETATM   22  C   UNL     1      37.747 -29.893  18.450  1.00  0.00     0.235 C 
ENDBRANCH  16  17
ENDBRANCH  15  16
ENDBRANCH  12  15
ENDBRANCH  10  11
ENDBRANCH   4  10
BRANCH   2  23
HETATM   23  C   UNL     1      31.121 -32.963  16.913  1.00  0.00     0.037 C 
HETATM   24  C   UNL     1      30.153 -31.694  15.987  1.00  0.00    -0.009 C 
HETATM   25  C   UNL     1      30.504 -30.009  16.379  1.00  0.00    -0.003 C 
HETATM   26  C   UNL     1      31.683 -29.593  17.661  1.00  0.00    -0.001 C 
HETATM   27  C   UNL     1      32.482 -30.854  18.675  1.00  0.00    -0.003 C 
HETATM   28  C   UNL     1      32.147 -32.568  18.400  1.00  0.00    -0.009 C 
ENDBRANCH   2  23
BRANCH   1  29
HETATM   29  C   UNL     1      29.301 -33.456  16.151  1.00  0.00     0.293 C 
HETATM   30  O   UNL     1      28.239 -32.974  15.653  1.00  0.00    -0.259 OA
BRANCH  29  31
HETATM   31  O   UNL     1      28.960 -33.953  17.462  1.00  0.00    -0.318 OA
BRANCH  31  32
HETATM   32  C   UNL     1      27.772 -33.487  18.140  1.00  0.00     0.174 C 
HETATM   33  C   UNL     1      28.125 -32.349  19.078  1.00  0.00     0.034 C 
ENDBRANCH  31  32
ENDBRANCH  29  31
ENDBRANCH   1  29
BRANCH   9  34
HETATM   34  C   UNL     1      31.596 -34.279  12.644  1.00  0.00    -0.006 A 
HETATM   35  C   UNL     1      32.265 -35.308  11.965  1.00  0.00     0.014 A 
HETATM   36  C   UNL     1      31.858 -35.691  10.685  1.00  0.00     0.001 A 
HETATM   37  C   UNL     1      30.764 -35.070  10.084  1.00  0.00     0.000 A 
HETATM   38  C   UNL     1      30.066 -34.075  10.764  1.00  0.00     0.001 A 
HETATM   39  C   UNL     1      30.470 -33.688  12.044  1.00  0.00     0.014 A 
ENDBRANCH   9  34
TORSDOF 10
ENDMDL
