MODEL 1
REMARK VINA RESULT:      -7.9      0.000      0.000
REMARK  4 active torsions:
REMARK  status: ('A' for Active; 'I' for Inactive)
REMARK    1  A    between atoms: C_4  and  N_5 
REMARK    2  A    between atoms: C_9  and  N_10 
REMARK    3  A    between atoms: C_13  and  C_14 
REMARK    4  A    between atoms: C_22  and  C_23 
ROOT
HETATM    1  N   UNL     1      40.227 -11.772  -0.363  1.00  0.00    -0.258 N 
HETATM    2  C   UNL     1      40.856 -11.107   0.731  1.00  0.00     0.333 A 
HETATM    3  O   UNL     1      40.917  -9.931   1.030  1.00  0.00    -0.246 OA
HETATM    4  N   UNL     1      41.425 -12.126   1.504  1.00  0.00    -0.292 N 
HETATM    5  C   UNL     1      41.161 -13.342   0.938  1.00  0.00     0.146 A 
HETATM    6  C   UNL     1      40.461 -13.139  -0.198  1.00  0.00     0.126 A 
HETATM    7  H   UNL     1      41.895 -11.920   2.374  1.00  0.00     0.172 HD
ENDROOT
BRANCH   5   8
HETATM    8  N   UNL     1      41.654 -14.538   1.471  1.00  0.00    -0.317 N 
HETATM    9  C   UNL     1      42.987 -14.784   1.430  1.00  0.00     0.099 A 
HETATM   10  C   UNL     1      43.517 -15.973   1.925  1.00  0.00     0.030 A 
HETATM   11  C   UNL     1      42.682 -16.937   2.493  1.00  0.00    -0.023 A 
HETATM   12  C   UNL     1      41.320 -16.640   2.567  1.00  0.00     0.030 A 
HETATM   13  C   UNL     1      40.829 -15.440   2.059  1.00  0.00     0.099 A 
BRANCH  11  14
HETATM   14  C   UNL     1      43.212 -18.223   2.976  1.00  0.00    -0.023 A 
HETATM   15  C   UNL     1      43.132 -19.386   2.199  1.00  0.00     0.031 A 
HETATM   16  C   UNL     1      43.636 -20.574   2.708  1.00  0.00     0.117 A 
HETATM   17  N   UNL     1      44.205 -20.682   3.923  1.00  0.00    -0.273 NA
HETATM   18  C   UNL     1      44.280 -19.561   4.665  1.00  0.00     0.117 A 
HETATM   19  C   UNL     1      43.805 -18.329   4.242  1.00  0.00     0.031 A 
ENDBRANCH  11  14
ENDBRANCH   5   8
BRANCH   6  20
HETATM   20  C   UNL     1      40.211 -14.158  -1.233  1.00  0.00     0.292 C 
HETATM   21  O   UNL     1      39.148 -14.764  -1.309  1.00  0.00    -0.300 OA
ENDBRANCH   6  20
BRANCH   1  22
HETATM   22  C   UNL     1      39.481 -11.089  -1.363  1.00  0.00     0.044 A 
HETATM   23  C   UNL     1      38.083 -11.005  -1.282  1.00  0.00     0.030 A 
HETATM   24  C   UNL     1      37.345 -10.314  -2.249  1.00  0.00     0.002 A 
HETATM   25  C   UNL     1      37.991  -9.708  -3.322  1.00  0.00     0.000 A 
HETATM   26  C   UNL     1      39.373  -9.804  -3.434  1.00  0.00     0.002 A 
HETATM   27  C   UNL     1      40.112 -10.493  -2.467  1.00  0.00     0.030 A 
ENDBRANCH   1  22
TORSDOF 4
ENDMDL
MODEL 2
REMARK VINA RESULT:      -7.7      1.732      3.001
REMARK  4 active torsions:
REMARK  status: ('A' for Active; 'I' for Inactive)
REMARK    1  A    between atoms: C_4  and  N_5 
REMARK    2  A    between atoms: C_9  and  N_10 
REMARK    3  A    between atoms: C_13  and  C_14 
REMARK    4  A    between atoms: C_22  and  C_23 
ROOT
HETATM    1  N   UNL     1      38.879 -12.877  -1.650  1.00  0.00    -0.258 N 
HETATM    2  C   UNL     1      38.582 -14.202  -2.087  1.00  0.00     0.333 A 
HETATM    3  O   UNL     1      37.982 -14.613  -3.061  1.00  0.00    -0.246 OA
HETATM    4  N   UNL     1      39.175 -15.044  -1.139  1.00  0.00    -0.292 N 
HETATM    5  C   UNL     1      39.807 -14.297  -0.184  1.00  0.00     0.146 A 
HETATM    6  C   UNL     1      39.614 -12.992  -0.470  1.00  0.00     0.126 A 
HETATM    7  H   UNL     1      39.150 -16.049  -1.246  1.00  0.00     0.172 HD
ENDROOT
BRANCH   5   8
HETATM    8  N   UNL     1      40.442 -14.877   0.919  1.00  0.00    -0.317 N 
HETATM    9  C   UNL     1      41.790 -15.015   0.914  1.00  0.00     0.099 A 
HETATM   10  C   UNL     1      42.460 -15.612   1.980  1.00  0.00     0.030 A 
HETATM   11  C   UNL     1      41.751 -16.068   3.093  1.00  0.00    -0.023 A 
HETATM   12  C   UNL     1      40.369 -15.872   3.096  1.00  0.00     0.030 A 
HETATM   13  C   UNL     1      39.737 -15.272   2.009  1.00  0.00     0.099 A 
BRANCH  11  14
HETATM   14  C   UNL     1      42.430 -16.748   4.209  1.00  0.00    -0.023 A 
HETATM   15  C   UNL     1      42.081 -16.492   5.542  1.00  0.00     0.031 A 
HETATM   16  C   UNL     1      42.762 -17.150   6.556  1.00  0.00     0.117 A 
HETATM   17  N   UNL     1      43.755 -18.033   6.336  1.00  0.00    -0.273 NA
HETATM   18  C   UNL     1      44.085 -18.275   5.053  1.00  0.00     0.117 A 
HETATM   19  C   UNL     1      43.461 -17.667   3.974  1.00  0.00     0.031 A 
ENDBRANCH  11  14
ENDBRANCH   5   8
BRANCH   6  20
HETATM   20  C   UNL     1      39.901 -11.873   0.447  1.00  0.00     0.292 C 
HETATM   21  O   UNL     1      40.879 -11.148   0.305  1.00  0.00    -0.300 OA
ENDBRANCH   6  20
BRANCH   1  22
HETATM   22  C   UNL     1      38.495 -11.715  -2.376  1.00  0.00     0.044 A 
HETATM   23  C   UNL     1      39.449 -10.955  -3.068  1.00  0.00     0.030 A 
HETATM   24  C   UNL     1      39.076  -9.826  -3.804  1.00  0.00     0.002 A 
HETATM   25  C   UNL     1      37.744  -9.427  -3.847  1.00  0.00     0.000 A 
HETATM   26  C   UNL     1      36.788 -10.151  -3.145  1.00  0.00     0.002 A 
HETATM   27  C   UNL     1      37.160 -11.282  -2.411  1.00  0.00     0.030 A 
ENDBRANCH   1  22
TORSDOF 4
ENDMDL
MODEL 3
REMARK VINA RESULT:      -7.7      5.268      6.146
REMARK  4 active torsions:
REMARK  status: ('A' for Active; 'I' for Inactive)
REMARK    1  A    between atoms: C_4  and  N_5 
REMARK    2  A    between atoms: C_9  and  N_10 
REMARK    3  A    between atoms: C_13  and  C_14 
REMARK    4  A    between atoms: C_22  and  C_23 
ROOT
HETATM    1  N   UNL     1      41.992 -11.108   6.402  1.00  0.00    -0.258 N 
HETATM    2  C   UNL     1      43.396 -11.042   6.646  1.00  0.00     0.333 A 
HETATM    3  O   UNL     1      44.095 -10.151   7.086  1.00  0.00    -0.246 OA
HETATM    4  N   UNL     1      43.892 -12.303   6.293  1.00  0.00    -0.292 N 
HETATM    5  C   UNL     1      42.867 -13.103   5.869  1.00  0.00     0.146 A 
HETATM    6  C   UNL     1      41.724 -12.387   5.908  1.00  0.00     0.126 A 
HETATM    7  H   UNL     1      44.867 -12.534   6.421  1.00  0.00     0.172 HD
ENDROOT
BRANCH   5   8
HETATM    8  N   UNL     1      43.080 -14.405   5.403  1.00  0.00    -0.317 N 
HETATM    9  C   UNL     1      42.936 -14.671   4.082  1.00  0.00     0.099 A 
HETATM   10  C   UNL     1      43.112 -15.958   3.580  1.00  0.00     0.030 A 
HETATM   11  C   UNL     1      43.460 -17.007   4.433  1.00  0.00    -0.023 A 
HETATM   12  C   UNL     1      43.651 -16.700   5.781  1.00  0.00     0.030 A 
HETATM   13  C   UNL     1      43.463 -15.399   6.243  1.00  0.00     0.099 A 
BRANCH  11  14
HETATM   14  C   UNL     1      43.602 -18.386   3.935  1.00  0.00    -0.023 A 
HETATM   15  C   UNL     1      43.359 -18.708   2.593  1.00  0.00     0.031 A 
HETATM   16  C   UNL     1      43.496 -20.025   2.180  1.00  0.00     0.117 A 
HETATM   17  N   UNL     1      43.851 -21.031   3.001  1.00  0.00    -0.273 NA
HETATM   18  C   UNL     1      44.084 -20.715   4.289  1.00  0.00     0.117 A 
HETATM   19  C   UNL     1      43.975 -19.428   4.795  1.00  0.00     0.031 A 
ENDBRANCH  11  14
ENDBRANCH   5   8
BRANCH   6  20
HETATM   20  C   UNL     1      40.450 -12.790   5.286  1.00  0.00     0.292 C 
HETATM   21  O   UNL     1      39.479 -13.133   5.951  1.00  0.00    -0.300 OA
ENDBRANCH   6  20
BRANCH   1  22
HETATM   22  C   UNL     1      41.102 -10.036   6.685  1.00  0.00     0.044 A 
HETATM   23  C   UNL     1      40.920  -8.994   5.764  1.00  0.00     0.030 A 
HETATM   24  C   UNL     1      40.028  -7.948   6.024  1.00  0.00     0.002 A 
HETATM   25  C   UNL     1      39.314  -7.918   7.218  1.00  0.00     0.000 A 
HETATM   26  C   UNL     1      39.501  -8.928   8.155  1.00  0.00     0.002 A 
HETATM   27  C   UNL     1      40.391  -9.975   7.894  1.00  0.00     0.030 A 
ENDBRANCH   1  22
TORSDOF 4
ENDMDL
MODEL 4
REMARK VINA RESULT:      -7.6      5.199      6.193
REMARK  4 active torsions:
REMARK  status: ('A' for Active; 'I' for Inactive)
REMARK    1  A    between atoms: C_4  and  N_5 
REMARK    2  A    between atoms: C_9  and  N_10 
REMARK    3  A    between atoms: C_13  and  C_14 
REMARK    4  A    between atoms: C_22  and  C_23 
ROOT
HETATM    1  N   UNL     1      41.293 -11.394   6.118  1.00  0.00    -0.258 N 
HETATM    2  C   UNL     1      40.000 -11.990   6.193  1.00  0.00     0.333 A 
HETATM    3  O   UNL     1      38.922 -11.536   6.523  1.00  0.00    -0.246 OA
HETATM    4  N   UNL     1      40.175 -13.308   5.754  1.00  0.00    -0.292 N 
HETATM    5  C   UNL     1      41.484 -13.516   5.417  1.00  0.00     0.146 A 
HETATM    6  C   UNL     1      42.169 -12.378   5.656  1.00  0.00     0.126 A 
HETATM    7  H   UNL     1      39.389 -13.937   5.665  1.00  0.00     0.172 HD
ENDROOT
BRANCH   5   8
HETATM    8  N   UNL     1      41.958 -14.762   4.994  1.00  0.00    -0.317 N 
HETATM    9  C   UNL     1      42.141 -14.990   3.671  1.00  0.00     0.099 A 
HETATM   10  C   UNL     1      42.585 -16.225   3.205  1.00  0.00     0.030 A 
HETATM   11  C   UNL     1      42.870 -17.257   4.101  1.00  0.00    -0.023 A 
HETATM   12  C   UNL     1      42.720 -16.983   5.461  1.00  0.00     0.030 A 
HETATM   13  C   UNL     1      42.272 -15.735   5.886  1.00  0.00     0.099 A 
BRANCH  11  14
HETATM   14  C   UNL     1      43.292 -18.587   3.630  1.00  0.00    -0.023 A 
HETATM   15  C   UNL     1      43.158 -18.964   2.287  1.00  0.00     0.031 A 
HETATM   16  C   UNL     1      43.560 -20.234   1.899  1.00  0.00     0.117 A 
HETATM   17  N   UNL     1      44.078 -21.143   2.747  1.00  0.00    -0.273 NA
HETATM   18  C   UNL     1      44.206 -20.774   4.036  1.00  0.00     0.117 A 
HETATM   19  C   UNL     1      43.833 -19.528   4.516  1.00  0.00     0.031 A 
ENDBRANCH  11  14
ENDBRANCH   5   8
BRANCH   6  20
HETATM   20  C   UNL     1      43.639 -12.263   5.679  1.00  0.00     0.292 C 
HETATM   21  O   UNL     1      44.313 -12.706   6.601  1.00  0.00    -0.300 OA
ENDBRANCH   6  20
BRANCH   1  22
HETATM   22  C   UNL     1      41.539 -10.029   6.432  1.00  0.00     0.044 A 
HETATM   23  C   UNL     1      41.253  -9.017   5.503  1.00  0.00     0.030 A 
HETATM   24  C   UNL     1      41.469  -7.671   5.814  1.00  0.00     0.002 A 
HETATM   25  C   UNL     1      41.990  -7.313   7.053  1.00  0.00     0.000 A 
HETATM   26  C   UNL     1      42.306  -8.303   7.976  1.00  0.00     0.002 A 
HETATM   27  C   UNL     1      42.089  -9.650   7.667  1.00  0.00     0.030 A 
ENDBRANCH   1  22
TORSDOF 4
ENDMDL
MODEL 5
REMARK VINA RESULT:      -7.4      4.849      8.358
REMARK  4 active torsions:
REMARK  status: ('A' for Active; 'I' for Inactive)
REMARK    1  A    between atoms: C_4  and  N_5 
REMARK    2  A    between atoms: C_9  and  N_10 
REMARK    3  A    between atoms: C_13  and  C_14 
REMARK    4  A    between atoms: C_22  and  C_23 
ROOT
HETATM    1  N   UNL     1      43.293 -12.590   6.106  1.00  0.00    -0.258 N 
HETATM    2  C   UNL     1      42.799 -13.883   6.453  1.00  0.00     0.333 A 
HETATM    3  O   UNL     1      42.953 -14.563   7.448  1.00  0.00    -0.246 OA
HETATM    4  N   UNL     1      42.000 -14.275   5.372  1.00  0.00    -0.292 N 
HETATM    5  C   UNL     1      41.988 -13.291   4.422  1.00  0.00     0.146 A 
HETATM    6  C   UNL     1      42.782 -12.284   4.844  1.00  0.00     0.126 A 
HETATM    7  H   UNL     1      41.488 -15.145   5.390  1.00  0.00     0.172 HD
ENDROOT
BRANCH   5   8
HETATM    8  N   UNL     1      41.312 -13.434   3.206  1.00  0.00    -0.317 N 
HETATM    9  C   UNL     1      41.916 -14.083   2.181  1.00  0.00     0.099 A 
HETATM   10  C   UNL     1      41.289 -14.225   0.945  1.00  0.00     0.030 A 
HETATM   11  C   UNL     1      40.007 -13.712   0.741  1.00  0.00    -0.023 A 
HETATM   12  C   UNL     1      39.386 -13.090   1.826  1.00  0.00     0.030 A 
HETATM   13  C   UNL     1      40.048 -12.968   3.045  1.00  0.00     0.099 A 
BRANCH  11  14
HETATM   14  C   UNL     1      39.343 -13.804  -0.570  1.00  0.00    -0.023 A 
HETATM   15  C   UNL     1      39.416 -14.968  -1.347  1.00  0.00     0.031 A 
HETATM   16  C   UNL     1      38.783 -14.997  -2.581  1.00  0.00     0.117 A 
HETATM   17  N   UNL     1      38.093 -13.959  -3.089  1.00  0.00    -0.273 NA
HETATM   18  C   UNL     1      38.026 -12.843  -2.338  1.00  0.00     0.117 A 
HETATM   19  C   UNL     1      38.625 -12.720  -1.093  1.00  0.00     0.031 A 
ENDBRANCH  11  14
ENDBRANCH   5   8
BRANCH   6  20
HETATM   20  C   UNL     1      43.248 -11.165   4.005  1.00  0.00     0.292 C 
HETATM   21  O   UNL     1      44.304 -11.209   3.387  1.00  0.00    -0.300 OA
ENDBRANCH   6  20
BRANCH   1  22
HETATM   22  C   UNL     1      44.111 -11.813   6.972  1.00  0.00     0.044 A 
HETATM   23  C   UNL     1      45.468 -11.610   6.684  1.00  0.00     0.030 A 
HETATM   24  C   UNL     1      46.273 -10.826   7.517  1.00  0.00     0.002 A 
HETATM   25  C   UNL     1      45.738 -10.245   8.662  1.00  0.00     0.000 A 
HETATM   26  C   UNL     1      44.401 -10.457   8.980  1.00  0.00     0.002 A 
HETATM   27  C   UNL     1      43.596 -11.239   8.145  1.00  0.00     0.030 A 
ENDBRANCH   1  22
TORSDOF 4
ENDMDL
MODEL 6
REMARK VINA RESULT:      -7.4     12.759     14.439
REMARK  4 active torsions:
REMARK  status: ('A' for Active; 'I' for Inactive)
REMARK    1  A    between atoms: C_4  and  N_5 
REMARK    2  A    between atoms: C_9  and  N_10 
REMARK    3  A    between atoms: C_13  and  C_14 
REMARK    4  A    between atoms: C_22  and  C_23 
ROOT
HETATM    1  N   UNL     1      43.805  -8.983   9.535  1.00  0.00    -0.258 N 
HETATM    2  C   UNL     1      43.437  -7.625   9.296  1.00  0.00     0.333 A 
HETATM    3  O   UNL     1      43.493  -6.941   8.294  1.00  0.00    -0.246 OA
HETATM    4  N   UNL     1      42.920  -7.164  10.513  1.00  0.00    -0.292 N 
HETATM    5  C   UNL     1      42.953  -8.166  11.442  1.00  0.00     0.146 A 
HETATM    6  C   UNL     1      43.505  -9.257  10.870  1.00  0.00     0.126 A 
HETATM    7  H   UNL     1      42.540  -6.232  10.597  1.00  0.00     0.172 HD
ENDROOT
BRANCH   5   8
HETATM    8  N   UNL     1      42.546  -7.971  12.766  1.00  0.00    -0.317 N 
HETATM    9  C   UNL     1      43.294  -7.191  13.584  1.00  0.00     0.099 A 
HETATM   10  C   UNL     1      42.939  -6.993  14.917  1.00  0.00     0.030 A 
HETATM   11  C   UNL     1      41.786  -7.585  15.437  1.00  0.00    -0.023 A 
HETATM   12  C   UNL     1      41.007  -8.344  14.562  1.00  0.00     0.030 A 
HETATM   13  C   UNL     1      41.397  -8.520  13.237  1.00  0.00     0.099 A 
BRANCH  11  14
HETATM   14  C   UNL     1      41.418  -7.431  16.854  1.00  0.00    -0.023 A 
HETATM   15  C   UNL     1      40.222  -7.958  17.360  1.00  0.00     0.031 A 
HETATM   16  C   UNL     1      39.917  -7.773  18.700  1.00  0.00     0.117 A 
HETATM   17  N   UNL     1      40.711  -7.108  19.560  1.00  0.00    -0.273 NA
HETATM   18  C   UNL     1      41.859  -6.605  19.069  1.00  0.00     0.117 A 
HETATM   19  C   UNL     1      42.249  -6.739  17.745  1.00  0.00     0.031 A 
ENDBRANCH  11  14
ENDBRANCH   5   8
BRANCH   6  20
HETATM   20  C   UNL     1      43.962 -10.455  11.598  1.00  0.00     0.292 C 
HETATM   21  O   UNL     1      43.883 -11.580  11.118  1.00  0.00    -0.300 OA
ENDBRANCH   6  20
BRANCH   1  22
HETATM   22  C   UNL     1      44.328  -9.836   8.524  1.00  0.00     0.044 A 
HETATM   23  C   UNL     1      45.712  -9.945   8.324  1.00  0.00     0.030 A 
HETATM   24  C   UNL     1      46.234 -10.800   7.349  1.00  0.00     0.002 A 
HETATM   25  C   UNL     1      45.381 -11.550   6.545  1.00  0.00     0.000 A 
HETATM   26  C   UNL     1      44.006 -11.434   6.709  1.00  0.00     0.002 A 
HETATM   27  C   UNL     1      43.483 -10.581   7.686  1.00  0.00     0.030 A 
ENDBRANCH   1  22
TORSDOF 4
ENDMDL
MODEL 7
REMARK VINA RESULT:      -7.4      1.991      2.886
REMARK  4 active torsions:
REMARK  status: ('A' for Active; 'I' for Inactive)
REMARK    1  A    between atoms: C_4  and  N_5 
REMARK    2  A    between atoms: C_9  and  N_10 
REMARK    3  A    between atoms: C_13  and  C_14 
REMARK    4  A    between atoms: C_22  and  C_23 
ROOT
HETATM    1  N   UNL     1      40.203 -11.349   0.781  1.00  0.00    -0.258 N 
HETATM    2  C   UNL     1      40.476 -11.818  -0.539  1.00  0.00     0.333 A 
HETATM    3  O   UNL     1      40.286 -11.312  -1.628  1.00  0.00    -0.246 OA
HETATM    4  N   UNL     1      41.087 -13.065  -0.369  1.00  0.00    -0.292 N 
HETATM    5  C   UNL     1      41.197 -13.351   0.964  1.00  0.00     0.146 A 
HETATM    6  C   UNL     1      40.648 -12.336   1.662  1.00  0.00     0.126 A 
HETATM    7  H   UNL     1      41.426 -13.592  -1.161  1.00  0.00     0.172 HD
ENDROOT
BRANCH   5   8
HETATM    8  N   UNL     1      41.723 -14.562   1.427  1.00  0.00    -0.317 N 
HETATM    9  C   UNL     1      40.890 -15.607   1.652  1.00  0.00     0.099 A 
HETATM   10  C   UNL     1      41.369 -16.821   2.139  1.00  0.00     0.030 A 
HETATM   11  C   UNL     1      42.731 -16.994   2.392  1.00  0.00    -0.023 A 
HETATM   12  C   UNL     1      43.575 -15.919   2.107  1.00  0.00     0.030 A 
HETATM   13  C   UNL     1      43.057 -14.720   1.623  1.00  0.00     0.099 A 
BRANCH  11  14
HETATM   14  C   UNL     1      43.254 -18.250   2.954  1.00  0.00    -0.023 A 
HETATM   15  C   UNL     1      43.261 -19.437   2.210  1.00  0.00     0.031 A 
HETATM   16  C   UNL     1      43.753 -20.596   2.793  1.00  0.00     0.117 A 
HETATM   17  N   UNL     1      44.232 -20.652   4.050  1.00  0.00    -0.273 NA
HETATM   18  C   UNL     1      44.223 -19.508   4.760  1.00  0.00     0.117 A 
HETATM   19  C   UNL     1      43.752 -18.302   4.263  1.00  0.00     0.031 A 
ENDBRANCH  11  14
ENDBRANCH   5   8
BRANCH   6  20
HETATM   20  C   UNL     1      40.327 -12.374   3.101  1.00  0.00     0.292 C 
HETATM   21  O   UNL     1      39.332 -12.945   3.532  1.00  0.00    -0.300 OA
ENDBRANCH   6  20
BRANCH   1  22
HETATM   22  C   UNL     1      39.627 -10.078   1.051  1.00  0.00     0.044 A 
HETATM   23  C   UNL     1      40.422  -8.923   1.084  1.00  0.00     0.030 A 
HETATM   24  C   UNL     1      39.858  -7.666   1.325  1.00  0.00     0.002 A 
HETATM   25  C   UNL     1      38.491  -7.544   1.551  1.00  0.00     0.000 A 
HETATM   26  C   UNL     1      37.690  -8.680   1.550  1.00  0.00     0.002 A 
HETATM   27  C   UNL     1      38.254  -9.937   1.307  1.00  0.00     0.030 A 
ENDBRANCH   1  22
TORSDOF 4
ENDMDL
MODEL 8
REMARK VINA RESULT:      -7.3      4.702      9.200
REMARK  4 active torsions:
REMARK  status: ('A' for Active; 'I' for Inactive)
REMARK    1  A    between atoms: C_4  and  N_5 
REMARK    2  A    between atoms: C_9  and  N_10 
REMARK    3  A    between atoms: C_13  and  C_14 
REMARK    4  A    between atoms: C_22  and  C_23 
ROOT
HETATM    1  N   UNL     1      42.941 -16.310   3.428  1.00  0.00    -0.258 N 
HETATM    2  C   UNL     1      43.316 -15.382   2.411  1.00  0.00     0.333 A 
HETATM    3  O   UNL     1      43.917 -15.534   1.366  1.00  0.00    -0.246 OA
HETATM    4  N   UNL     1      42.805 -14.148   2.830  1.00  0.00    -0.292 N 
HETATM    5  C   UNL     1      42.148 -14.297   4.020  1.00  0.00     0.146 A 
HETATM    6  C   UNL     1      42.244 -15.589   4.399  1.00  0.00     0.126 A 
HETATM    7  H   UNL     1      42.895 -13.324   2.253  1.00  0.00     0.172 HD
ENDROOT
BRANCH   5   8
HETATM    8  N   UNL     1      41.582 -13.215   4.701  1.00  0.00    -0.317 N 
HETATM    9  C   UNL     1      40.250 -12.984   4.593  1.00  0.00     0.099 A 
HETATM   10  C   UNL     1      39.650 -11.901   5.233  1.00  0.00     0.030 A 
HETATM   11  C   UNL     1      40.412 -11.034   6.019  1.00  0.00    -0.023 A 
HETATM   12  C   UNL     1      41.771 -11.320   6.154  1.00  0.00     0.030 A 
HETATM   13  C   UNL     1      42.333 -12.412   5.496  1.00  0.00     0.099 A 
BRANCH  11  14
HETATM   14  C   UNL     1      39.810  -9.855   6.663  1.00  0.00    -0.023 A 
HETATM   15  C   UNL     1      39.207  -8.839   5.911  1.00  0.00     0.031 A 
HETATM   16  C   UNL     1      38.667  -7.743   6.569  1.00  0.00     0.117 A 
HETATM   17  N   UNL     1      38.688  -7.591   7.906  1.00  0.00    -0.273 NA
HETATM   18  C   UNL     1      39.268  -8.572   8.624  1.00  0.00     0.117 A 
HETATM   19  C   UNL     1      39.834  -9.704   8.057  1.00  0.00     0.031 A 
ENDBRANCH  11  14
ENDBRANCH   5   8
BRANCH   6  20
HETATM   20  C   UNL     1      41.905 -16.106   5.738  1.00  0.00     0.292 C 
HETATM   21  O   UNL     1      40.746 -16.279   6.096  1.00  0.00    -0.300 OA
ENDBRANCH   6  20
BRANCH   1  22
HETATM   22  C   UNL     1      43.226 -17.701   3.355  1.00  0.00     0.044 A 
HETATM   23  C   UNL     1      42.787 -18.467   2.265  1.00  0.00     0.030 A 
HETATM   24  C   UNL     1      43.085 -19.830   2.174  1.00  0.00     0.002 A 
HETATM   25  C   UNL     1      43.814 -20.455   3.180  1.00  0.00     0.000 A 
HETATM   26  C   UNL     1      44.235 -19.720   4.282  1.00  0.00     0.002 A 
HETATM   27  C   UNL     1      43.938 -18.356   4.372  1.00  0.00     0.030 A 
ENDBRANCH   1  22
TORSDOF 4
ENDMDL
MODEL 9
REMARK VINA RESULT:      -7.3      5.731      7.352
REMARK  4 active torsions:
REMARK  status: ('A' for Active; 'I' for Inactive)
REMARK    1  A    between atoms: C_4  and  N_5 
REMARK    2  A    between atoms: C_9  and  N_10 
REMARK    3  A    between atoms: C_13  and  C_14 
REMARK    4  A    between atoms: C_22  and  C_23 
ROOT
HETATM    1  N   UNL     1      41.505 -10.012   7.238  1.00  0.00    -0.258 N 
HETATM    2  C   UNL     1      40.150 -10.405   7.027  1.00  0.00     0.333 A 
HETATM    3  O   UNL     1      39.100  -9.848   7.284  1.00  0.00    -0.246 OA
HETATM    4  N   UNL     1      40.222 -11.646   6.383  1.00  0.00    -0.292 N 
HETATM    5  C   UNL     1      41.530 -11.998   6.196  1.00  0.00     0.146 A 
HETATM    6  C   UNL     1      42.309 -11.032   6.728  1.00  0.00     0.126 A 
HETATM    7  H   UNL     1      39.386 -12.123   6.076  1.00  0.00     0.172 HD
ENDROOT
BRANCH   5   8
HETATM    8  N   UNL     1      41.901 -13.218   5.623  1.00  0.00    -0.317 N 
HETATM    9  C   UNL     1      41.862 -14.346   6.374  1.00  0.00     0.099 A 
HETATM   10  C   UNL     1      42.249 -15.577   5.850  1.00  0.00     0.030 A 
HETATM   11  C   UNL     1      42.672 -15.679   4.523  1.00  0.00    -0.023 A 
HETATM   12  C   UNL     1      42.657 -14.513   3.756  1.00  0.00     0.030 A 
HETATM   13  C   UNL     1      42.265 -13.301   4.318  1.00  0.00     0.099 A 
BRANCH  11  14
HETATM   14  C   UNL     1      43.133 -16.959   3.961  1.00  0.00    -0.023 A 
HETATM   15  C   UNL     1      42.687 -17.413   2.713  1.00  0.00     0.031 A 
HETATM   16  C   UNL     1      43.144 -18.633   2.236  1.00  0.00     0.117 A 
HETATM   17  N   UNL     1      44.002 -19.422   2.909  1.00  0.00    -0.273 NA
HETATM   18  C   UNL     1      44.428 -18.980   4.107  1.00  0.00     0.117 A 
HETATM   19  C   UNL     1      44.028 -17.776   4.666  1.00  0.00     0.031 A 
ENDBRANCH  11  14
ENDBRANCH   5   8
BRANCH   6  20
HETATM   20  C   UNL     1      43.758 -11.152   6.972  1.00  0.00     0.292 C 
HETATM   21  O   UNL     1      44.213 -11.837   7.880  1.00  0.00    -0.300 OA
ENDBRANCH   6  20
BRANCH   1  22
HETATM   22  C   UNL     1      41.871  -8.769   7.825  1.00  0.00     0.044 A 
HETATM   23  C   UNL     1      42.357  -8.713   9.139  1.00  0.00     0.030 A 
HETATM   24  C   UNL     1      42.742  -7.498   9.715  1.00  0.00     0.002 A 
HETATM   25  C   UNL     1      42.634  -6.315   8.991  1.00  0.00     0.000 A 
HETATM   26  C   UNL     1      42.128  -6.346   7.696  1.00  0.00     0.002 A 
HETATM   27  C   UNL     1      41.745  -7.562   7.120  1.00  0.00     0.030 A 
ENDBRANCH   1  22
TORSDOF 4
ENDMDL
MODEL 10
REMARK VINA RESULT:      -7.3      1.923      2.762
REMARK  4 active torsions:
REMARK  status: ('A' for Active; 'I' for Inactive)
REMARK    1  A    between atoms: C_4  and  N_5 
REMARK    2  A    between atoms: C_9  and  N_10 
REMARK    3  A    between atoms: C_13  and  C_14 
REMARK    4  A    between atoms: C_22  and  C_23 
ROOT
HETATM    1  N   UNL     1      38.576 -11.618   0.026  1.00  0.00    -0.258 N 
HETATM    2  C   UNL     1      38.384 -12.565  -1.024  1.00  0.00     0.333 A 
HETATM    3  O   UNL     1      37.762 -12.496  -2.066  1.00  0.00    -0.246 OA
HETATM    4  N   UNL     1      39.125 -13.691  -0.646  1.00  0.00    -0.292 N 
HETATM    5  C   UNL     1      39.744 -13.460   0.551  1.00  0.00     0.146 A 
HETATM    6  C   UNL     1      39.401 -12.225   0.975  1.00  0.00     0.126 A 
HETATM    7  H   UNL     1      39.195 -14.497  -1.252  1.00  0.00     0.172 HD
ENDROOT
BRANCH   5   8
HETATM    8  N   UNL     1      40.511 -14.435   1.196  1.00  0.00    -0.317 N 
HETATM    9  C   UNL     1      41.863 -14.383   1.110  1.00  0.00     0.099 A 
HETATM   10  C   UNL     1      42.663 -15.350   1.715  1.00  0.00     0.030 A 
HETATM   11  C   UNL     1      42.085 -16.391   2.443  1.00  0.00    -0.023 A 
HETATM   12  C   UNL     1      40.694 -16.397   2.558  1.00  0.00     0.030 A 
HETATM   13  C   UNL     1      39.929 -15.412   1.936  1.00  0.00     0.099 A 
BRANCH  11  14
HETATM   14  C   UNL     1      42.906 -17.453   3.048  1.00  0.00    -0.023 A 
HETATM   15  C   UNL     1      43.504 -17.288   4.305  1.00  0.00     0.031 A 
HETATM   16  C   UNL     1      44.279 -18.315   4.823  1.00  0.00     0.117 A 
HETATM   17  N   UNL     1      44.498 -19.480   4.183  1.00  0.00    -0.273 NA
HETATM   18  C   UNL     1      43.920 -19.632   2.977  1.00  0.00     0.117 A 
HETATM   19  C   UNL     1      43.129 -18.664   2.378  1.00  0.00     0.031 A 
ENDBRANCH  11  14
ENDBRANCH   5   8
BRANCH   6  20
HETATM   20  C   UNL     1      39.637 -11.699   2.331  1.00  0.00     0.292 C 
HETATM   21  O   UNL     1      38.978 -12.065   3.297  1.00  0.00    -0.300 OA
ENDBRANCH   6  20
BRANCH   1  22
HETATM   22  C   UNL     1      38.027 -10.307   0.000  1.00  0.00     0.044 A 
HETATM   23  C   UNL     1      36.746 -10.057   0.514  1.00  0.00     0.030 A 
HETATM   24  C   UNL     1      36.209  -8.765   0.515  1.00  0.00     0.002 A 
HETATM   25  C   UNL     1      36.937  -7.704  -0.013  1.00  0.00     0.000 A 
HETATM   26  C   UNL     1      38.197  -7.937  -0.552  1.00  0.00     0.002 A 
HETATM   27  C   UNL     1      38.735  -9.228  -0.551  1.00  0.00     0.030 A 
ENDBRANCH   1  22
TORSDOF 4
ENDMDL
