MODEL 1
REMARK VINA RESULT:      -8.2      0.000      0.000
REMARK  4 active torsions:
REMARK  status: ('A' for Active; 'I' for Inactive)
REMARK    1  A    between atoms: C_3  and  C_4 
REMARK    2  A    between atoms: C_15  and  C_16 
REMARK       I    between atoms: C_16  and  N_17 
REMARK    3  A    between atoms: N_17  and  C_18 
REMARK    4  A    between atoms: C_18  and  C_19 
ROOT
HETATM    1  C   UNL     1      43.124 -15.331   8.355  1.00  0.00     0.055 C 
HETATM    2  C   UNL     1      43.085 -15.763   6.919  1.00  0.00     0.024 A 
HETATM    3  C   UNL     1      42.679 -15.038   5.861  1.00  0.00     0.096 A 
HETATM    4  O   UNL     1      42.712 -15.460   4.545  1.00  0.00    -0.307 OA
HETATM    5  C   UNL     1      43.135 -16.731   4.250  1.00  0.00     0.106 A 
HETATM    6  C   UNL     1      43.536 -17.610   5.259  1.00  0.00     0.050 A 
HETATM    7  C   UNL     1      43.553 -17.146   6.655  1.00  0.00     0.193 A 
HETATM    8  O   UNL     1      43.934 -17.880   7.560  1.00  0.00    -0.287 OA
HETATM    9  C   UNL     1      43.151 -17.160   2.913  1.00  0.00     0.066 A 
HETATM   10  C   UNL     1      43.539 -18.484   2.628  1.00  0.00     0.020 A 
HETATM   11  C   UNL     1      43.921 -19.359   3.644  1.00  0.00     0.002 A 
HETATM   12  C   UNL     1      43.929 -18.920   4.962  1.00  0.00     0.018 A 
ENDROOT
BRANCH   9  13
HETATM   13  C   UNL     1      42.812 -16.301   1.732  1.00  0.00     0.255 C 
HETATM   14  N   UNL     1      41.658 -15.556   1.782  1.00  0.00    -0.349 N 
HETATM   15  H   UNL     1      41.023 -15.663   2.564  1.00  0.00     0.163 HD
HETATM   16  O   UNL     1      43.577 -16.252   0.773  1.00  0.00    -0.268 OA
BRANCH  14  17
HETATM   17  C   UNL     1      41.276 -14.640   0.722  1.00  0.00     0.114 C 
HETATM   18  C   UNL     1      39.841 -14.903   0.258  1.00  0.00     0.037 C 
BRANCH  17  19
HETATM   19  C   UNL     1      41.536 -13.218   1.185  1.00  0.00    -0.033 A 
HETATM   20  C   UNL     1      42.293 -12.913   2.320  1.00  0.00     0.028 A 
HETATM   21  C   UNL     1      42.503 -11.580   2.645  1.00  0.00     0.116 A 
HETATM   22  N   UNL     1      42.039 -10.543   1.918  1.00  0.00    -0.273 NA
HETATM   23  C   UNL     1      41.322 -10.853   0.819  1.00  0.00     0.116 A 
HETATM   24  C   UNL     1      41.052 -12.152   0.416  1.00  0.00     0.028 A 
ENDBRANCH  17  19
ENDBRANCH  14  17
ENDBRANCH   9  13
BRANCH   3  25
HETATM   25  C   UNL     1      42.138 -13.678   5.997  1.00  0.00    -0.002 A 
HETATM   26  C   UNL     1      42.992 -12.594   6.227  1.00  0.00     0.014 A 
HETATM   27  C   UNL     1      42.471 -11.307   6.370  1.00  0.00     0.001 A 
HETATM   28  C   UNL     1      41.096 -11.092   6.272  1.00  0.00     0.000 A 
HETATM   29  C   UNL     1      40.240 -12.165   6.030  1.00  0.00     0.001 A 
HETATM   30  C   UNL     1      40.758 -13.453   5.891  1.00  0.00     0.014 A 
ENDBRANCH   3  25
TORSDOF 4
ENDMDL
MODEL 2
REMARK VINA RESULT:      -8.1      2.408      6.255
REMARK  4 active torsions:
REMARK  status: ('A' for Active; 'I' for Inactive)
REMARK    1  A    between atoms: C_3  and  C_4 
REMARK    2  A    between atoms: C_15  and  C_16 
REMARK       I    between atoms: C_16  and  N_17 
REMARK    3  A    between atoms: N_17  and  C_18 
REMARK    4  A    between atoms: C_18  and  C_19 
ROOT
HETATM    1  C   UNL     1      41.710  -9.487   4.067  1.00  0.00     0.055 C 
HETATM    2  C   UNL     1      41.690 -10.975   3.886  1.00  0.00     0.024 A 
HETATM    3  C   UNL     1      42.397 -11.889   4.575  1.00  0.00     0.096 A 
HETATM    4  O   UNL     1      42.306 -13.258   4.410  1.00  0.00    -0.307 OA
HETATM    5  C   UNL     1      41.480 -13.772   3.442  1.00  0.00     0.106 A 
HETATM    6  C   UNL     1      40.726 -12.933   2.618  1.00  0.00     0.050 A 
HETATM    7  C   UNL     1      40.780 -11.478   2.827  1.00  0.00     0.193 A 
HETATM    8  O   UNL     1      40.103 -10.716   2.146  1.00  0.00    -0.287 OA
HETATM    9  C   UNL     1      41.404 -15.164   3.268  1.00  0.00     0.066 A 
HETATM   10  C   UNL     1      40.591 -15.676   2.238  1.00  0.00     0.020 A 
HETATM   11  C   UNL     1      39.855 -14.830   1.409  1.00  0.00     0.002 A 
HETATM   12  C   UNL     1      39.915 -13.455   1.604  1.00  0.00     0.018 A 
ENDROOT
BRANCH   9  13
HETATM   13  C   UNL     1      42.104 -16.176   4.124  1.00  0.00     0.255 C 
HETATM   14  N   UNL     1      43.463 -16.324   3.971  1.00  0.00    -0.349 N 
HETATM   15  H   UNL     1      43.945 -15.820   3.238  1.00  0.00     0.163 HD
HETATM   16  O   UNL     1      41.468 -16.817   4.955  1.00  0.00    -0.268 OA
BRANCH  14  17
HETATM   17  C   UNL     1      44.244 -17.225   4.800  1.00  0.00     0.114 C 
HETATM   18  C   UNL     1      43.899 -17.049   6.281  1.00  0.00     0.037 C 
BRANCH  17  19
HETATM   19  C   UNL     1      44.073 -18.641   4.279  1.00  0.00    -0.033 A 
HETATM   20  C   UNL     1      43.949 -18.944   2.920  1.00  0.00     0.028 A 
HETATM   21  C   UNL     1      43.829 -20.272   2.539  1.00  0.00     0.116 A 
HETATM   22  N   UNL     1      43.848 -21.310   3.401  1.00  0.00    -0.273 NA
HETATM   23  C   UNL     1      43.982 -21.003   4.708  1.00  0.00     0.116 A 
HETATM   24  C   UNL     1      44.100 -19.708   5.187  1.00  0.00     0.028 A 
ENDBRANCH  17  19
ENDBRANCH  14  17
ENDBRANCH   9  13
BRANCH   3  25
HETATM   25  C   UNL     1      43.376 -11.516   5.606  1.00  0.00    -0.002 A 
HETATM   26  C   UNL     1      42.950 -11.136   6.884  1.00  0.00     0.014 A 
HETATM   27  C   UNL     1      43.883 -10.770   7.855  1.00  0.00     0.001 A 
HETATM   28  C   UNL     1      45.246 -10.791   7.562  1.00  0.00     0.000 A 
HETATM   29  C   UNL     1      45.679 -11.181   6.296  1.00  0.00     0.001 A 
HETATM   30  C   UNL     1      44.749 -11.545   5.321  1.00  0.00     0.014 A 
ENDBRANCH   3  25
TORSDOF 4
ENDMDL
MODEL 3
REMARK VINA RESULT:      -8.0      2.244      5.066
REMARK  4 active torsions:
REMARK  status: ('A' for Active; 'I' for Inactive)
REMARK    1  A    between atoms: C_3  and  C_4 
REMARK    2  A    between atoms: C_15  and  C_16 
REMARK       I    between atoms: C_16  and  N_17 
REMARK    3  A    between atoms: N_17  and  C_18 
REMARK    4  A    between atoms: C_18  and  C_19 
ROOT
HETATM    1  C   UNL     1      40.295 -15.467   1.224  1.00  0.00     0.055 C 
HETATM    2  C   UNL     1      41.172 -15.355   2.436  1.00  0.00     0.024 A 
HETATM    3  C   UNL     1      41.346 -14.274   3.217  1.00  0.00     0.096 A 
HETATM    4  O   UNL     1      42.124 -14.233   4.359  1.00  0.00    -0.307 OA
HETATM    5  C   UNL     1      42.836 -15.343   4.736  1.00  0.00     0.106 A 
HETATM    6  C   UNL     1      42.787 -16.520   3.986  1.00  0.00     0.050 A 
HETATM    7  C   UNL     1      41.918 -16.584   2.800  1.00  0.00     0.193 A 
HETATM    8  O   UNL     1      41.825 -17.613   2.141  1.00  0.00    -0.287 OA
HETATM    9  C   UNL     1      43.638 -15.290   5.889  1.00  0.00     0.066 A 
HETATM   10  C   UNL     1      44.403 -16.420   6.237  1.00  0.00     0.020 A 
HETATM   11  C   UNL     1      44.361 -17.585   5.472  1.00  0.00     0.002 A 
HETATM   12  C   UNL     1      43.545 -17.639   4.348  1.00  0.00     0.018 A 
ENDROOT
BRANCH   9  13
HETATM   13  C   UNL     1      43.728 -14.117   6.818  1.00  0.00     0.255 C 
HETATM   14  N   UNL     1      44.290 -12.956   6.344  1.00  0.00    -0.349 N 
HETATM   15  H   UNL     1      44.706 -12.938   5.421  1.00  0.00     0.163 HD
HETATM   16  O   UNL     1      43.272 -14.203   7.956  1.00  0.00    -0.268 OA
BRANCH  14  17
HETATM   17  C   UNL     1      44.361 -11.744   7.142  1.00  0.00     0.114 C 
HETATM   18  C   UNL     1      45.769 -11.144   7.107  1.00  0.00     0.037 C 
BRANCH  17  19
HETATM   19  C   UNL     1      43.263 -10.797   6.692  1.00  0.00    -0.033 A 
HETATM   20  C   UNL     1      42.628  -9.900   7.556  1.00  0.00     0.028 A 
HETATM   21  C   UNL     1      41.658  -9.051   7.044  1.00  0.00     0.116 A 
HETATM   22  N   UNL     1      41.295  -9.015   5.745  1.00  0.00    -0.273 NA
HETATM   23  C   UNL     1      41.925  -9.877   4.921  1.00  0.00     0.116 A 
HETATM   24  C   UNL     1      42.901 -10.768   5.339  1.00  0.00     0.028 A 
ENDBRANCH  17  19
ENDBRANCH  14  17
ENDBRANCH   9  13
BRANCH   3  25
HETATM   25  C   UNL     1      40.711 -12.980   2.928  1.00  0.00    -0.002 A 
HETATM   26  C   UNL     1      39.547 -12.595   3.604  1.00  0.00     0.014 A 
HETATM   27  C   UNL     1      38.940 -11.372   3.315  1.00  0.00     0.001 A 
HETATM   28  C   UNL     1      39.497 -10.521   2.360  1.00  0.00     0.000 A 
HETATM   29  C   UNL     1      40.663 -10.891   1.693  1.00  0.00     0.001 A 
HETATM   30  C   UNL     1      41.270 -12.115   1.976  1.00  0.00     0.014 A 
ENDBRANCH   3  25
TORSDOF 4
ENDMDL
MODEL 4
REMARK VINA RESULT:      -7.9      2.793      5.585
REMARK  4 active torsions:
REMARK  status: ('A' for Active; 'I' for Inactive)
REMARK    1  A    between atoms: C_3  and  C_4 
REMARK    2  A    between atoms: C_15  and  C_16 
REMARK       I    between atoms: C_16  and  N_17 
REMARK    3  A    between atoms: N_17  and  C_18 
REMARK    4  A    between atoms: C_18  and  C_19 
ROOT
HETATM    1  C   UNL     1      41.291 -16.066   6.534  1.00  0.00     0.055 C 
HETATM    2  C   UNL     1      41.039 -15.197   5.339  1.00  0.00     0.024 A 
HETATM    3  C   UNL     1      41.463 -15.403   4.079  1.00  0.00     0.096 A 
HETATM    4  O   UNL     1      41.160 -14.601   2.994  1.00  0.00    -0.307 OA
HETATM    5  C   UNL     1      40.414 -13.465   3.177  1.00  0.00     0.106 A 
HETATM    6  C   UNL     1      39.951 -13.103   4.444  1.00  0.00     0.050 A 
HETATM    7  C   UNL     1      40.227 -13.982   5.591  1.00  0.00     0.193 A 
HETATM    8  O   UNL     1      39.804 -13.711   6.710  1.00  0.00    -0.287 OA
HETATM    9  C   UNL     1      40.123 -12.646   2.073  1.00  0.00     0.066 A 
HETATM   10  C   UNL     1      39.399 -11.456   2.283  1.00  0.00     0.020 A 
HETATM   11  C   UNL     1      38.956 -11.094   3.555  1.00  0.00     0.002 A 
HETATM   12  C   UNL     1      39.224 -11.923   4.638  1.00  0.00     0.018 A 
ENDROOT
BRANCH   9  13
HETATM   13  C   UNL     1      40.499 -12.951   0.655  1.00  0.00     0.255 C 
HETATM   14  N   UNL     1      39.517 -13.411  -0.191  1.00  0.00    -0.349 N 
HETATM   15  H   UNL     1      38.595 -13.616   0.172  1.00  0.00     0.163 HD
HETATM   16  O   UNL     1      41.649 -12.754   0.272  1.00  0.00    -0.268 OA
BRANCH  14  17
HETATM   17  C   UNL     1      39.763 -13.669  -1.599  1.00  0.00     0.114 C 
HETATM   18  C   UNL     1      38.873 -14.805  -2.113  1.00  0.00     0.037 C 
BRANCH  17  19
HETATM   19  C   UNL     1      39.625 -12.367  -2.367  1.00  0.00    -0.033 A 
HETATM   20  C   UNL     1      38.413 -11.682  -2.495  1.00  0.00     0.028 A 
HETATM   21  C   UNL     1      38.394 -10.481  -3.189  1.00  0.00     0.116 A 
HETATM   22  N   UNL     1      39.486  -9.908  -3.738  1.00  0.00    -0.273 NA
HETATM   23  C   UNL     1      40.649 -10.574  -3.595  1.00  0.00     0.116 A 
HETATM   24  C   UNL     1      40.769 -11.782  -2.926  1.00  0.00     0.028 A 
ENDBRANCH  17  19
ENDBRANCH  14  17
ENDBRANCH   9  13
BRANCH   3  25
HETATM   25  C   UNL     1      42.325 -16.536   3.711  1.00  0.00    -0.002 A 
HETATM   26  C   UNL     1      42.091 -17.250   2.531  1.00  0.00     0.014 A 
HETATM   27  C   UNL     1      42.904 -18.335   2.194  1.00  0.00     0.001 A 
HETATM   28  C   UNL     1      43.960 -18.704   3.025  1.00  0.00     0.000 A 
HETATM   29  C   UNL     1      44.207 -17.990   4.196  1.00  0.00     0.001 A 
HETATM   30  C   UNL     1      43.394 -16.908   4.538  1.00  0.00     0.014 A 
ENDBRANCH   3  25
TORSDOF 4
ENDMDL
MODEL 5
REMARK VINA RESULT:      -7.8      2.073      2.924
REMARK  4 active torsions:
REMARK  status: ('A' for Active; 'I' for Inactive)
REMARK    1  A    between atoms: C_3  and  C_4 
REMARK    2  A    between atoms: C_15  and  C_16 
REMARK       I    between atoms: C_16  and  N_17 
REMARK    3  A    between atoms: N_17  and  C_18 
REMARK    4  A    between atoms: C_18  and  C_19 
ROOT
HETATM    1  C   UNL     1      43.575 -13.323   7.230  1.00  0.00     0.055 C 
HETATM    2  C   UNL     1      42.965 -13.968   6.021  1.00  0.00     0.024 A 
HETATM    3  C   UNL     1      41.939 -13.507   5.283  1.00  0.00     0.096 A 
HETATM    4  O   UNL     1      41.444 -14.109   4.141  1.00  0.00    -0.307 OA
HETATM    5  C   UNL     1      41.976 -15.301   3.717  1.00  0.00     0.106 A 
HETATM    6  C   UNL     1      43.013 -15.918   4.420  1.00  0.00     0.050 A 
HETATM    7  C   UNL     1      43.578 -15.253   5.605  1.00  0.00     0.193 A 
HETATM    8  O   UNL     1      44.512 -15.750   6.222  1.00  0.00    -0.287 OA
HETATM    9  C   UNL     1      41.458 -15.915   2.565  1.00  0.00     0.066 A 
HETATM   10  C   UNL     1      41.978 -17.163   2.169  1.00  0.00     0.020 A 
HETATM   11  C   UNL     1      43.002 -17.780   2.887  1.00  0.00     0.002 A 
HETATM   12  C   UNL     1      43.528 -17.153   4.010  1.00  0.00     0.018 A 
ENDROOT
BRANCH   9  13
HETATM   13  C   UNL     1      40.396 -15.331   1.683  1.00  0.00     0.255 C 
HETATM   14  N   UNL     1      40.333 -13.962   1.565  1.00  0.00    -0.349 N 
HETATM   15  H   UNL     1      40.936 -13.380   2.132  1.00  0.00     0.163 HD
HETATM   16  O   UNL     1      39.638 -16.074   1.065  1.00  0.00    -0.268 OA
BRANCH  14  17
HETATM   17  C   UNL     1      39.387 -13.301   0.683  1.00  0.00     0.114 C 
HETATM   18  C   UNL     1      38.879 -11.995   1.301  1.00  0.00     0.037 C 
BRANCH  17  19
HETATM   19  C   UNL     1      40.023 -13.142  -0.686  1.00  0.00    -0.033 A 
HETATM   20  C   UNL     1      39.788 -14.026  -1.743  1.00  0.00     0.028 A 
HETATM   21  C   UNL     1      40.390 -13.779  -2.968  1.00  0.00     0.116 A 
HETATM   22  N   UNL     1      41.182 -12.716  -3.220  1.00  0.00    -0.273 NA
HETATM   23  C   UNL     1      41.389 -11.865  -2.195  1.00  0.00     0.116 A 
HETATM   24  C   UNL     1      40.839 -12.030  -0.934  1.00  0.00     0.028 A 
ENDBRANCH  17  19
ENDBRANCH  14  17
ENDBRANCH   9  13
BRANCH   3  25
HETATM   25  C   UNL     1      41.209 -12.278   5.626  1.00  0.00    -0.002 A 
HETATM   26  C   UNL     1      39.991 -12.344   6.311  1.00  0.00     0.014 A 
HETATM   27  C   UNL     1      39.295 -11.174   6.622  1.00  0.00     0.001 A 
HETATM   28  C   UNL     1      39.816  -9.932   6.262  1.00  0.00     0.000 A 
HETATM   29  C   UNL     1      41.036  -9.857   5.592  1.00  0.00     0.001 A 
HETATM   30  C   UNL     1      41.732 -11.025   5.276  1.00  0.00     0.014 A 
ENDBRANCH   3  25
TORSDOF 4
ENDMDL
MODEL 6
REMARK VINA RESULT:      -7.7      2.222      5.115
REMARK  4 active torsions:
REMARK  status: ('A' for Active; 'I' for Inactive)
REMARK    1  A    between atoms: C_3  and  C_4 
REMARK    2  A    between atoms: C_15  and  C_16 
REMARK       I    between atoms: C_16  and  N_17 
REMARK    3  A    between atoms: N_17  and  C_18 
REMARK    4  A    between atoms: C_18  and  C_19 
ROOT
HETATM    1  C   UNL     1      43.828 -16.542   7.070  1.00  0.00     0.055 C 
HETATM    2  C   UNL     1      43.472 -15.387   6.182  1.00  0.00     0.024 A 
HETATM    3  C   UNL     1      43.216 -15.423   4.862  1.00  0.00     0.096 A 
HETATM    4  O   UNL     1      42.837 -14.339   4.093  1.00  0.00    -0.307 OA
HETATM    5  C   UNL     1      42.752 -13.095   4.667  1.00  0.00     0.106 A 
HETATM    6  C   UNL     1      43.041 -12.906   6.020  1.00  0.00     0.050 A 
HETATM    7  C   UNL     1      43.393 -14.066   6.853  1.00  0.00     0.193 A 
HETATM    8  O   UNL     1      43.616 -13.939   8.052  1.00  0.00    -0.287 OA
HETATM    9  C   UNL     1      42.382 -11.995   3.877  1.00  0.00     0.066 A 
HETATM   10  C   UNL     1      42.348 -10.716   4.467  1.00  0.00     0.020 A 
HETATM   11  C   UNL     1      42.654 -10.533   5.815  1.00  0.00     0.002 A 
HETATM   12  C   UNL     1      42.994 -11.631   6.597  1.00  0.00     0.018 A 
ENDROOT
BRANCH   9  13
HETATM   13  C   UNL     1      41.982 -12.069   2.435  1.00  0.00     0.255 C 
HETATM   14  N   UNL     1      41.152 -13.093   2.044  1.00  0.00    -0.349 N 
HETATM   15  H   UNL     1      40.900 -13.817   2.706  1.00  0.00     0.163 HD
HETATM   16  O   UNL     1      42.367 -11.208   1.649  1.00  0.00    -0.268 OA
BRANCH  14  17
HETATM   17  C   UNL     1      40.651 -13.214   0.686  1.00  0.00     0.114 C 
HETATM   18  C   UNL     1      40.504 -14.684   0.283  1.00  0.00     0.037 C 
BRANCH  17  19
HETATM   19  C   UNL     1      39.378 -12.397   0.560  1.00  0.00    -0.033 A 
HETATM   20  C   UNL     1      38.793 -12.082  -0.670  1.00  0.00     0.028 A 
HETATM   21  C   UNL     1      37.610 -11.358  -0.683  1.00  0.00     0.116 A 
HETATM   22  N   UNL     1      36.964 -10.948   0.429  1.00  0.00    -0.273 NA
HETATM   23  C   UNL     1      37.533 -11.270   1.608  1.00  0.00     0.116 A 
HETATM   24  C   UNL     1      38.716 -11.984   1.723  1.00  0.00     0.028 A 
ENDBRANCH  17  19
ENDBRANCH  14  17
ENDBRANCH   9  13
BRANCH   3  25
HETATM   25  C   UNL     1      43.320 -16.658   4.071  1.00  0.00    -0.002 A 
HETATM   26  C   UNL     1      42.561 -16.821   2.907  1.00  0.00     0.014 A 
HETATM   27  C   UNL     1      42.653 -18.001   2.168  1.00  0.00     0.001 A 
HETATM   28  C   UNL     1      43.511 -19.021   2.579  1.00  0.00     0.000 A 
HETATM   29  C   UNL     1      44.281 -18.861   3.729  1.00  0.00     0.001 A 
HETATM   30  C   UNL     1      44.188 -17.683   4.473  1.00  0.00     0.014 A 
ENDBRANCH   3  25
TORSDOF 4
ENDMDL
MODEL 7
REMARK VINA RESULT:      -7.5      3.221      6.546
REMARK  4 active torsions:
REMARK  status: ('A' for Active; 'I' for Inactive)
REMARK    1  A    between atoms: C_3  and  C_4 
REMARK    2  A    between atoms: C_15  and  C_16 
REMARK       I    between atoms: C_16  and  N_17 
REMARK    3  A    between atoms: N_17  and  C_18 
REMARK    4  A    between atoms: C_18  and  C_19 
ROOT
HETATM    1  C   UNL     1      40.712 -14.233   6.009  1.00  0.00     0.055 C 
HETATM    2  C   UNL     1      40.259 -13.177   5.045  1.00  0.00     0.024 A 
HETATM    3  C   UNL     1      40.433 -13.166   3.711  1.00  0.00     0.096 A 
HETATM    4  O   UNL     1      39.950 -12.195   2.852  1.00  0.00    -0.307 OA
HETATM    5  C   UNL     1      39.280 -11.112   3.361  1.00  0.00     0.106 A 
HETATM    6  C   UNL     1      39.074 -10.971   4.735  1.00  0.00     0.050 A 
HETATM    7  C   UNL     1      39.539 -12.029   5.646  1.00  0.00     0.193 A 
HETATM    8  O   UNL     1      39.343 -11.953   6.854  1.00  0.00    -0.287 OA
HETATM    9  C   UNL     1      38.805 -10.121   2.485  1.00  0.00     0.066 A 
HETATM   10  C   UNL     1      38.163  -8.989   3.023  1.00  0.00     0.020 A 
HETATM   11  C   UNL     1      37.977  -8.849   4.399  1.00  0.00     0.002 A 
HETATM   12  C   UNL     1      38.426  -9.846   5.257  1.00  0.00     0.018 A 
ENDROOT
BRANCH   9  13
HETATM   13  C   UNL     1      38.898 -10.181   0.990  1.00  0.00     0.255 C 
HETATM   14  N   UNL     1      40.022 -10.743   0.433  1.00  0.00    -0.349 N 
HETATM   15  H   UNL     1      40.792 -11.024   1.027  1.00  0.00     0.163 HD
HETATM   16  O   UNL     1      37.968  -9.766   0.303  1.00  0.00    -0.268 OA
BRANCH  14  17
HETATM   17  C   UNL     1      40.177 -10.912  -1.002  1.00  0.00     0.114 C 
HETATM   18  C   UNL     1      41.566 -10.461  -1.461  1.00  0.00     0.037 C 
BRANCH  17  19
HETATM   19  C   UNL     1      39.829 -12.343  -1.367  1.00  0.00    -0.033 A 
HETATM   20  C   UNL     1      39.943 -13.409  -0.469  1.00  0.00     0.028 A 
HETATM   21  C   UNL     1      39.569 -14.678  -0.887  1.00  0.00     0.116 A 
HETATM   22  N   UNL     1      39.075 -14.955  -2.111  1.00  0.00    -0.273 NA
HETATM   23  C   UNL     1      38.958 -13.916  -2.962  1.00  0.00     0.116 A 
HETATM   24  C   UNL     1      39.311 -12.615  -2.641  1.00  0.00     0.028 A 
ENDBRANCH  17  19
ENDBRANCH  14  17
ENDBRANCH   9  13
BRANCH   3  25
HETATM   25  C   UNL     1      41.181 -14.214   3.002  1.00  0.00    -0.002 A 
HETATM   26  C   UNL     1      40.594 -15.460   2.755  1.00  0.00     0.014 A 
HETATM   27  C   UNL     1      41.314 -16.457   2.094  1.00  0.00     0.001 A 
HETATM   28  C   UNL     1      42.619 -16.213   1.666  1.00  0.00     0.000 A 
HETATM   29  C   UNL     1      43.206 -14.970   1.897  1.00  0.00     0.001 A 
HETATM   30  C   UNL     1      42.490 -13.973   2.561  1.00  0.00     0.014 A 
ENDBRANCH   3  25
TORSDOF 4
ENDMDL
MODEL 8
REMARK VINA RESULT:      -7.5      2.675      6.335
REMARK  4 active torsions:
REMARK  status: ('A' for Active; 'I' for Inactive)
REMARK    1  A    between atoms: C_3  and  C_4 
REMARK    2  A    between atoms: C_15  and  C_16 
REMARK       I    between atoms: C_16  and  N_17 
REMARK    3  A    between atoms: N_17  and  C_18 
REMARK    4  A    between atoms: C_18  and  C_19 
ROOT
HETATM    1  C   UNL     1      41.559  -9.002   6.263  1.00  0.00     0.055 C 
HETATM    2  C   UNL     1      41.743 -10.441   5.885  1.00  0.00     0.024 A 
HETATM    3  C   UNL     1      42.688 -11.287   6.335  1.00  0.00     0.096 A 
HETATM    4  O   UNL     1      42.787 -12.624   6.000  1.00  0.00    -0.307 OA
HETATM    5  C   UNL     1      41.905 -13.165   5.099  1.00  0.00     0.106 A 
HETATM    6  C   UNL     1      40.904 -12.386   4.514  1.00  0.00     0.050 A 
HETATM    7  C   UNL     1      40.763 -10.976   4.909  1.00  0.00     0.193 A 
HETATM    8  O   UNL     1      39.872 -10.275   4.442  1.00  0.00    -0.287 OA
HETATM    9  C   UNL     1      42.020 -14.521   4.750  1.00  0.00     0.066 A 
HETATM   10  C   UNL     1      41.140 -15.051   3.786  1.00  0.00     0.020 A 
HETATM   11  C   UNL     1      40.155 -14.262   3.194  1.00  0.00     0.002 A 
HETATM   12  C   UNL     1      40.029 -12.928   3.565  1.00  0.00     0.018 A 
ENDROOT
BRANCH   9  13
HETATM   13  C   UNL     1      43.002 -15.482   5.350  1.00  0.00     0.255 C 
HETATM   14  N   UNL     1      42.812 -16.825   5.128  1.00  0.00    -0.349 N 
HETATM   15  H   UNL     1      41.981 -17.143   4.645  1.00  0.00     0.163 HD
HETATM   16  O   UNL     1      43.960 -15.056   5.989  1.00  0.00    -0.268 OA
BRANCH  14  17
HETATM   17  C   UNL     1      43.744 -17.831   5.607  1.00  0.00     0.114 C 
HETATM   18  C   UNL     1      43.368 -18.303   7.014  1.00  0.00     0.037 C 
BRANCH  17  19
HETATM   19  C   UNL     1      43.839 -18.941   4.576  1.00  0.00    -0.033 A 
HETATM   20  C   UNL     1      43.920 -20.294   4.917  1.00  0.00     0.028 A 
HETATM   21  C   UNL     1      43.970 -21.238   3.902  1.00  0.00     0.116 A 
HETATM   22  N   UNL     1      43.923 -20.938   2.588  1.00  0.00    -0.273 NA
HETATM   23  C   UNL     1      43.831 -19.630   2.274  1.00  0.00     0.116 A 
HETATM   24  C   UNL     1      43.783 -18.613   3.215  1.00  0.00     0.028 A 
ENDBRANCH  17  19
ENDBRANCH  14  17
ENDBRANCH   9  13
BRANCH   3  25
HETATM   25  C   UNL     1      43.752 -10.863   7.257  1.00  0.00    -0.002 A 
HETATM   26  C   UNL     1      45.094 -10.919   6.865  1.00  0.00     0.014 A 
HETATM   27  C   UNL     1      46.101 -10.529   7.750  1.00  0.00     0.001 A 
HETATM   28  C   UNL     1      45.775 -10.071   9.026  1.00  0.00     0.000 A 
HETATM   29  C   UNL     1      44.439  -9.999   9.419  1.00  0.00     0.001 A 
HETATM   30  C   UNL     1      43.431 -10.392   8.538  1.00  0.00     0.014 A 
ENDBRANCH   3  25
TORSDOF 4
ENDMDL
MODEL 9
REMARK VINA RESULT:      -7.4      1.882      2.350
REMARK  4 active torsions:
REMARK  status: ('A' for Active; 'I' for Inactive)
REMARK    1  A    between atoms: C_3  and  C_4 
REMARK    2  A    between atoms: C_15  and  C_16 
REMARK       I    between atoms: C_16  and  N_17 
REMARK    3  A    between atoms: N_17  and  C_18 
REMARK    4  A    between atoms: C_18  and  C_19 
ROOT
HETATM    1  C   UNL     1      43.567 -13.905   7.257  1.00  0.00     0.055 C 
HETATM    2  C   UNL     1      43.042 -14.449   5.962  1.00  0.00     0.024 A 
HETATM    3  C   UNL     1      42.125 -13.887   5.155  1.00  0.00     0.096 A 
HETATM    4  O   UNL     1      41.710 -14.400   3.940  1.00  0.00    -0.307 OA
HETATM    5  C   UNL     1      42.206 -15.602   3.505  1.00  0.00     0.106 A 
HETATM    6  C   UNL     1      43.129 -16.320   4.270  1.00  0.00     0.050 A 
HETATM    7  C   UNL     1      43.613 -15.751   5.538  1.00  0.00     0.193 A 
HETATM    8  O   UNL     1      44.449 -16.339   6.215  1.00  0.00    -0.287 OA
HETATM    9  C   UNL     1      41.769 -16.126   2.277  1.00  0.00     0.066 A 
HETATM   10  C   UNL     1      42.248 -17.385   1.866  1.00  0.00     0.020 A 
HETATM   11  C   UNL     1      43.156 -18.102   2.645  1.00  0.00     0.002 A 
HETATM   12  C   UNL     1      43.605 -17.566   3.846  1.00  0.00     0.018 A 
ENDROOT
BRANCH   9  13
HETATM   13  C   UNL     1      40.838 -15.430   1.330  1.00  0.00     0.255 C 
HETATM   14  N   UNL     1      41.242 -14.235   0.786  1.00  0.00    -0.349 N 
HETATM   15  H   UNL     1      42.107 -13.808   1.093  1.00  0.00     0.163 HD
HETATM   16  O   UNL     1      39.765 -15.951   1.036  1.00  0.00    -0.268 OA
BRANCH  14  17
HETATM   17  C   UNL     1      40.445 -13.518  -0.195  1.00  0.00     0.114 C 
HETATM   18  C   UNL     1      39.709 -14.490  -1.122  1.00  0.00     0.037 C 
BRANCH  17  19
HETATM   19  C   UNL     1      39.542 -12.537   0.531  1.00  0.00    -0.033 A 
HETATM   20  C   UNL     1      38.374 -12.015  -0.033  1.00  0.00     0.028 A 
HETATM   21  C   UNL     1      37.596 -11.149   0.722  1.00  0.00     0.116 A 
HETATM   22  N   UNL     1      37.881 -10.788   1.990  1.00  0.00    -0.273 NA
HETATM   23  C   UNL     1      39.003 -11.310   2.526  1.00  0.00     0.116 A 
HETATM   24  C   UNL     1      39.848 -12.177   1.850  1.00  0.00     0.028 A 
ENDBRANCH  17  19
ENDBRANCH  14  17
ENDBRANCH   9  13
BRANCH   3  25
HETATM   25  C   UNL     1      41.442 -12.630   5.492  1.00  0.00    -0.002 A 
HETATM   26  C   UNL     1      42.053 -11.398   5.231  1.00  0.00     0.014 A 
HETATM   27  C   UNL     1      41.405 -10.208   5.566  1.00  0.00     0.001 A 
HETATM   28  C   UNL     1      40.140 -10.238   6.152  1.00  0.00     0.000 A 
HETATM   29  C   UNL     1      39.519 -11.460   6.402  1.00  0.00     0.001 A 
HETATM   30  C   UNL     1      40.165 -12.652   6.072  1.00  0.00     0.014 A 
ENDBRANCH   3  25
TORSDOF 4
ENDMDL
MODEL 10
REMARK VINA RESULT:      -7.4      2.645      6.216
REMARK  4 active torsions:
REMARK  status: ('A' for Active; 'I' for Inactive)
REMARK    1  A    between atoms: C_3  and  C_4 
REMARK    2  A    between atoms: C_15  and  C_16 
REMARK       I    between atoms: C_16  and  N_17 
REMARK    3  A    between atoms: N_17  and  C_18 
REMARK    4  A    between atoms: C_18  and  C_19 
ROOT
HETATM    1  C   UNL     1      40.086  -8.839   1.963  1.00  0.00     0.055 C 
HETATM    2  C   UNL     1      40.097 -10.278   1.541  1.00  0.00     0.024 A 
HETATM    3  C   UNL     1      40.493 -11.337   2.269  1.00  0.00     0.096 A 
HETATM    4  O   UNL     1      40.434 -12.656   1.857  1.00  0.00    -0.307 OA
HETATM    5  C   UNL     1      39.992 -12.952   0.592  1.00  0.00     0.106 A 
HETATM    6  C   UNL     1      39.598 -11.943  -0.289  1.00  0.00     0.050 A 
HETATM    7  C   UNL     1      39.609 -10.544   0.165  1.00  0.00     0.193 A 
HETATM    8  O   UNL     1      39.235  -9.638  -0.571  1.00  0.00    -0.287 OA
HETATM    9  C   UNL     1      39.949 -14.293   0.174  1.00  0.00     0.066 A 
HETATM   10  C   UNL     1      39.542 -14.580  -1.143  1.00  0.00     0.020 A 
HETATM   11  C   UNL     1      39.166 -13.564  -2.022  1.00  0.00     0.002 A 
HETATM   12  C   UNL     1      39.186 -12.243  -1.592  1.00  0.00     0.018 A 
ENDROOT
BRANCH   9  13
HETATM   13  C   UNL     1      40.278 -15.473   1.038  1.00  0.00     0.255 C 
HETATM   14  N   UNL     1      41.383 -15.392   1.851  1.00  0.00    -0.349 N 
HETATM   15  H   UNL     1      41.995 -14.588   1.792  1.00  0.00     0.163 HD
HETATM   16  O   UNL     1      39.546 -16.459   1.029  1.00  0.00    -0.268 OA
BRANCH  14  17
HETATM   17  C   UNL     1      41.747 -16.452   2.776  1.00  0.00     0.114 C 
HETATM   18  C   UNL     1      43.047 -17.135   2.345  1.00  0.00     0.037 C 
BRANCH  17  19
HETATM   19  C   UNL     1      41.771 -15.887   4.184  1.00  0.00    -0.033 A 
HETATM   20  C   UNL     1      40.904 -16.317   5.194  1.00  0.00     0.028 A 
HETATM   21  C   UNL     1      41.025 -15.762   6.460  1.00  0.00     0.116 A 
HETATM   22  N   UNL     1      41.949 -14.838   6.795  1.00  0.00    -0.273 NA
HETATM   23  C   UNL     1      42.786 -14.443   5.814  1.00  0.00     0.116 A 
HETATM   24  C   UNL     1      42.740 -14.932   4.518  1.00  0.00     0.028 A 
ENDBRANCH  17  19
ENDBRANCH  14  17
ENDBRANCH   9  13
BRANCH   3  25
HETATM   25  C   UNL     1      41.052 -11.201   3.622  1.00  0.00    -0.002 A 
HETATM   26  C   UNL     1      42.400 -10.869   3.802  1.00  0.00     0.014 A 
HETATM   27  C   UNL     1      42.928 -10.755   5.089  1.00  0.00     0.001 A 
HETATM   28  C   UNL     1      42.114 -10.958   6.202  1.00  0.00     0.000 A 
HETATM   29  C   UNL     1      40.768 -11.275   6.031  1.00  0.00     0.001 A 
HETATM   30  C   UNL     1      40.237 -11.394   4.746  1.00  0.00     0.014 A 
ENDBRANCH   3  25
TORSDOF 4
ENDMDL
