MODEL 1
REMARK VINA RESULT:      -8.2      0.000      0.000
REMARK  11 active torsions:
REMARK  status: ('A' for Active; 'I' for Inactive)
REMARK    1  A    between atoms: O_2  and  C_3 
REMARK    2  A    between atoms: C_3  and  C_4 
REMARK    3  A    between atoms: C_4  and  C_5 
REMARK    4  A    between atoms: C_5  and  O_6 
REMARK    5  A    between atoms: O_6  and  C_7 
REMARK    6  A    between atoms: C_7  and  C_9 
REMARK    7  A    between atoms: C_13  and  C_15 
REMARK    8  A    between atoms: C_17  and  C_23 
REMARK    9  A    between atoms: C_20  and  C_21 
REMARK   10  A    between atoms: C_21  and  N_22 
REMARK       I    between atoms: C_23  and  N_25 
REMARK   11  A    between atoms: N_25  and  C_26 
ROOT
HETATM    1  C   UNL     1      43.579 -12.676   5.883  1.00  0.00    -0.017 A 
HETATM    2  C   UNL     1      43.611 -14.082   6.004  1.00  0.00     0.030 A 
HETATM    3  C   UNL     1      42.879 -14.907   5.140  1.00  0.00     0.033 A 
HETATM    4  C   UNL     1      42.100 -14.333   4.138  1.00  0.00     0.017 A 
HETATM    5  C   UNL     1      42.052 -12.945   4.006  1.00  0.00     0.011 A 
HETATM    6  C   UNL     1      42.795 -12.101   4.857  1.00  0.00    -0.020 A 
ENDROOT
BRANCH   1   7
HETATM    7  C   UNL     1      44.414 -11.884   6.801  1.00  0.00    -0.024 A 
HETATM    8  C   UNL     1      45.675 -11.403   6.422  1.00  0.00     0.012 A 
HETATM    9  C   UNL     1      46.446 -10.642   7.305  1.00  0.00     0.002 A 
HETATM   10  C   UNL     1      45.959 -10.338   8.577  1.00  0.00     0.017 A 
HETATM   11  C   UNL     1      44.696 -10.792   8.972  1.00  0.00     0.040 A 
HETATM   12  C   UNL     1      43.936 -11.568   8.084  1.00  0.00     0.030 A 
BRANCH  11  13
HETATM   13  C   UNL     1      44.203 -10.449  10.334  1.00  0.00     0.293 C 
HETATM   14  O   UNL     1      43.855 -11.277  11.159  1.00  0.00    -0.259 OA
BRANCH  13  15
HETATM   15  O   UNL     1      44.210  -9.104  10.496  1.00  0.00    -0.317 OA
BRANCH  15  16
HETATM   16  C   UNL     1      43.064  -8.518  11.134  1.00  0.00     0.181 C 
BRANCH  16  17
HETATM   17  C   UNL     1      43.359  -8.208  12.598  1.00  0.00     0.053 C 
BRANCH  17  18
HETATM   18  C   UNL     1      42.266  -8.746  13.514  1.00  0.00     0.169 C 
BRANCH  18  19
HETATM   19  O   UNL     1      41.661  -9.889  12.917  1.00  0.00    -0.396 OA
HETATM   20  C   UNL     1      40.288 -10.003  13.268  1.00  0.00     0.201 C 
ENDBRANCH  18  19
ENDBRANCH  17  18
ENDBRANCH  16  17
ENDBRANCH  15  16
ENDBRANCH  13  15
ENDBRANCH  11  13
ENDBRANCH   1   7
BRANCH   6  21
HETATM   21  C   UNL     1      42.747 -10.613   4.584  1.00  0.00     0.306 C 
BRANCH  21  22
HETATM   22  N   UNL     1      41.678  -9.967   5.338  1.00  0.00     0.082 N 
HETATM   23  H   UNL     1      41.053  -9.496   4.688  1.00  0.00     0.313 HD
HETATM   24  H   UNL     1      41.122 -10.684   5.801  1.00  0.00     0.313 HD
ENDBRANCH  21  22
ENDBRANCH   6  21
BRANCH   3  25
HETATM   25  C   UNL     1      42.980 -16.391   5.215  1.00  0.00     0.256 C 
HETATM   26  O   UNL     1      42.482 -16.960   6.180  1.00  0.00    -0.267 OA
HETATM   27  N   UNL     1      43.660 -16.987   4.168  1.00  0.00    -0.323 N 
HETATM   28  H   UNL     1      44.173 -16.375   3.546  1.00  0.00     0.169 HD
BRANCH  27  29
HETATM   29  C   UNL     1      43.769 -18.370   3.906  1.00  0.00     0.037 A 
HETATM   30  C   UNL     1      44.169 -19.309   4.851  1.00  0.00     0.049 A 
HETATM   31  C   UNL     1      44.208 -20.645   4.482  1.00  0.00     0.118 A 
HETATM   32  N   UNL     1      43.880 -21.098   3.252  1.00  0.00    -0.273 NA
HETATM   33  C   UNL     1      43.498 -20.170   2.353  1.00  0.00     0.118 A 
HETATM   34  C   UNL     1      43.422 -18.813   2.629  1.00  0.00     0.049 A 
ENDBRANCH  27  29
ENDBRANCH   3  25
TORSDOF 11
ENDMDL
MODEL 2
REMARK VINA RESULT:      -7.5      3.434      8.540
REMARK  11 active torsions:
REMARK  status: ('A' for Active; 'I' for Inactive)
REMARK    1  A    between atoms: O_2  and  C_3 
REMARK    2  A    between atoms: C_3  and  C_4 
REMARK    3  A    between atoms: C_4  and  C_5 
REMARK    4  A    between atoms: C_5  and  O_6 
REMARK    5  A    between atoms: O_6  and  C_7 
REMARK    6  A    between atoms: C_7  and  C_9 
REMARK    7  A    between atoms: C_13  and  C_15 
REMARK    8  A    between atoms: C_17  and  C_23 
REMARK    9  A    between atoms: C_20  and  C_21 
REMARK   10  A    between atoms: C_21  and  N_22 
REMARK       I    between atoms: C_23  and  N_25 
REMARK   11  A    between atoms: N_25  and  C_26 
ROOT
HETATM    1  C   UNL     1      42.497 -15.618   3.610  1.00  0.00    -0.017 A 
HETATM    2  C   UNL     1      42.628 -14.652   4.631  1.00  0.00     0.030 A 
HETATM    3  C   UNL     1      43.453 -14.869   5.742  1.00  0.00     0.033 A 
HETATM    4  C   UNL     1      44.162 -16.064   5.848  1.00  0.00     0.017 A 
HETATM    5  C   UNL     1      44.041 -17.033   4.852  1.00  0.00     0.011 A 
HETATM    6  C   UNL     1      43.228 -16.823   3.719  1.00  0.00    -0.020 A 
ENDROOT
BRANCH   1   7
HETATM    7  C   UNL     1      41.647 -15.291   2.454  1.00  0.00    -0.024 A 
HETATM    8  C   UNL     1      40.644 -16.163   2.006  1.00  0.00     0.012 A 
HETATM    9  C   UNL     1      39.839 -15.827   0.914  1.00  0.00     0.002 A 
HETATM   10  C   UNL     1      40.016 -14.605   0.263  1.00  0.00     0.017 A 
HETATM   11  C   UNL     1      40.998 -13.711   0.703  1.00  0.00     0.040 A 
HETATM   12  C   UNL     1      41.811 -14.064   1.791  1.00  0.00     0.030 A 
BRANCH  11  13
HETATM   13  C   UNL     1      41.160 -12.414  -0.010  1.00  0.00     0.293 C 
HETATM   14  O   UNL     1      41.041 -12.284  -1.217  1.00  0.00    -0.259 OA
BRANCH  13  15
HETATM   15  O   UNL     1      41.448 -11.436   0.881  1.00  0.00    -0.317 OA
BRANCH  15  16
HETATM   16  C   UNL     1      40.344 -10.673   1.392  1.00  0.00     0.181 C 
BRANCH  16  17
HETATM   17  C   UNL     1      40.367 -10.642   2.917  1.00  0.00     0.053 C 
BRANCH  17  18
HETATM   18  C   UNL     1      41.757 -10.945   3.461  1.00  0.00     0.169 C 
BRANCH  18  19
HETATM   19  O   UNL     1      41.745 -10.850   4.882  1.00  0.00    -0.396 OA
HETATM   20  C   UNL     1      40.657 -11.567   5.451  1.00  0.00     0.201 C 
ENDBRANCH  18  19
ENDBRANCH  17  18
ENDBRANCH  16  17
ENDBRANCH  15  16
ENDBRANCH  13  15
ENDBRANCH  11  13
ENDBRANCH   1   7
BRANCH   6  21
HETATM   21  C   UNL     1      43.226 -17.894   2.650  1.00  0.00     0.306 C 
BRANCH  21  22
HETATM   22  N   UNL     1      44.214 -18.930   2.932  1.00  0.00     0.082 N 
HETATM   23  H   UNL     1      43.734 -19.812   3.093  1.00  0.00     0.313 HD
HETATM   24  H   UNL     1      44.793 -19.066   2.105  1.00  0.00     0.313 HD
ENDBRANCH  21  22
ENDBRANCH   6  21
BRANCH   3  25
HETATM   25  C   UNL     1      43.655 -13.816   6.776  1.00  0.00     0.256 C 
HETATM   26  O   UNL     1      43.454 -14.105   7.949  1.00  0.00    -0.267 OA
HETATM   27  N   UNL     1      44.042 -12.580   6.286  1.00  0.00    -0.323 N 
HETATM   28  H   UNL     1      43.987 -12.445   5.284  1.00  0.00     0.169 HD
BRANCH  27  29
HETATM   29  C   UNL     1      44.450 -11.459   7.042  1.00  0.00     0.037 A 
HETATM   30  C   UNL     1      43.585 -10.686   7.810  1.00  0.00     0.049 A 
HETATM   31  C   UNL     1      44.111  -9.626   8.532  1.00  0.00     0.118 A 
HETATM   32  N   UNL     1      45.420  -9.293   8.540  1.00  0.00    -0.273 NA
HETATM   33  C   UNL     1      46.237 -10.056   7.788  1.00  0.00     0.118 A 
HETATM   34  C   UNL     1      45.808 -11.137   7.035  1.00  0.00     0.049 A 
ENDBRANCH  27  29
ENDBRANCH   3  25
TORSDOF 11
ENDMDL
MODEL 3
REMARK VINA RESULT:      -7.4      4.215      8.111
REMARK  11 active torsions:
REMARK  status: ('A' for Active; 'I' for Inactive)
REMARK    1  A    between atoms: O_2  and  C_3 
REMARK    2  A    between atoms: C_3  and  C_4 
REMARK    3  A    between atoms: C_4  and  C_5 
REMARK    4  A    between atoms: C_5  and  O_6 
REMARK    5  A    between atoms: O_6  and  C_7 
REMARK    6  A    between atoms: C_7  and  C_9 
REMARK    7  A    between atoms: C_13  and  C_15 
REMARK    8  A    between atoms: C_17  and  C_23 
REMARK    9  A    between atoms: C_20  and  C_21 
REMARK   10  A    between atoms: C_21  and  N_22 
REMARK       I    between atoms: C_23  and  N_25 
REMARK   11  A    between atoms: N_25  and  C_26 
ROOT
HETATM    1  C   UNL     1      42.139 -13.164   4.735  1.00  0.00    -0.017 A 
HETATM    2  C   UNL     1      42.369 -14.553   4.643  1.00  0.00     0.030 A 
HETATM    3  C   UNL     1      43.181 -15.223   5.568  1.00  0.00     0.033 A 
HETATM    4  C   UNL     1      43.776 -14.506   6.605  1.00  0.00     0.017 A 
HETATM    5  C   UNL     1      43.564 -13.132   6.709  1.00  0.00     0.011 A 
HETATM    6  C   UNL     1      42.737 -12.446   5.795  1.00  0.00    -0.020 A 
ENDROOT
BRANCH   1   7
HETATM    7  C   UNL     1      41.236 -12.547   3.750  1.00  0.00    -0.024 A 
HETATM    8  C   UNL     1      39.856 -12.444   3.977  1.00  0.00     0.012 A 
HETATM    9  C   UNL     1      39.018 -11.843   3.033  1.00  0.00     0.002 A 
HETATM   10  C   UNL     1      39.552 -11.321   1.854  1.00  0.00     0.017 A 
HETATM   11  C   UNL     1      40.928 -11.396   1.613  1.00  0.00     0.040 A 
HETATM   12  C   UNL     1      41.759 -12.015   2.560  1.00  0.00     0.030 A 
BRANCH  11  13
HETATM   13  C   UNL     1      41.468 -10.827   0.348  1.00  0.00     0.293 C 
HETATM   14  O   UNL     1      41.984  -9.725   0.265  1.00  0.00    -0.259 OA
BRANCH  13  15
HETATM   15  O   UNL     1      41.298 -11.715  -0.661  1.00  0.00    -0.317 OA
BRANCH  15  16
HETATM   16  C   UNL     1      41.029 -11.177  -1.965  1.00  0.00     0.181 C 
BRANCH  16  17
HETATM   17  C   UNL     1      39.934 -11.975  -2.664  1.00  0.00     0.053 C 
BRANCH  17  18
HETATM   18  C   UNL     1      40.287 -13.455  -2.747  1.00  0.00     0.169 C 
BRANCH  18  19
HETATM   19  O   UNL     1      39.268 -14.151  -3.457  1.00  0.00    -0.396 OA
HETATM   20  C   UNL     1      37.981 -13.913  -2.902  1.00  0.00     0.201 C 
ENDBRANCH  18  19
ENDBRANCH  17  18
ENDBRANCH  16  17
ENDBRANCH  15  16
ENDBRANCH  13  15
ENDBRANCH  11  13
ENDBRANCH   1   7
BRANCH   6  21
HETATM   21  C   UNL     1      42.497 -10.971   6.037  1.00  0.00     0.306 C 
BRANCH  21  22
HETATM   22  N   UNL     1      41.407 -10.757   6.983  1.00  0.00     0.082 N 
HETATM   23  H   UNL     1      41.718 -11.028   7.914  1.00  0.00     0.313 HD
HETATM   24  H   UNL     1      41.201  -9.761   7.028  1.00  0.00     0.313 HD
ENDBRANCH  21  22
ENDBRANCH   6  21
BRANCH   3  25
HETATM   25  C   UNL     1      43.355 -16.702   5.520  1.00  0.00     0.256 C 
HETATM   26  O   UNL     1      43.178 -17.343   6.549  1.00  0.00    -0.267 OA
HETATM   27  N   UNL     1      43.729 -17.208   4.287  1.00  0.00    -0.323 N 
HETATM   28  H   UNL     1      44.017 -16.539   3.584  1.00  0.00     0.169 HD
BRANCH  27  29
HETATM   29  C   UNL     1      43.811 -18.569   3.920  1.00  0.00     0.037 A 
HETATM   30  C   UNL     1      44.108 -19.596   4.810  1.00  0.00     0.049 A 
HETATM   31  C   UNL     1      44.130 -20.898   4.335  1.00  0.00     0.118 A 
HETATM   32  N   UNL     1      43.879 -21.238   3.052  1.00  0.00    -0.273 NA
HETATM   33  C   UNL     1      43.596 -20.226   2.208  1.00  0.00     0.118 A 
HETATM   34  C   UNL     1      43.546 -18.894   2.589  1.00  0.00     0.049 A 
ENDBRANCH  27  29
ENDBRANCH   3  25
TORSDOF 11
ENDMDL
MODEL 4
REMARK VINA RESULT:      -7.3      4.087      7.125
REMARK  11 active torsions:
REMARK  status: ('A' for Active; 'I' for Inactive)
REMARK    1  A    between atoms: O_2  and  C_3 
REMARK    2  A    between atoms: C_3  and  C_4 
REMARK    3  A    between atoms: C_4  and  C_5 
REMARK    4  A    between atoms: C_5  and  O_6 
REMARK    5  A    between atoms: O_6  and  C_7 
REMARK    6  A    between atoms: C_7  and  C_9 
REMARK    7  A    between atoms: C_13  and  C_15 
REMARK    8  A    between atoms: C_17  and  C_23 
REMARK    9  A    between atoms: C_20  and  C_21 
REMARK   10  A    between atoms: C_21  and  N_22 
REMARK       I    between atoms: C_23  and  N_25 
REMARK   11  A    between atoms: N_25  and  C_26 
ROOT
HETATM    1  C   UNL     1      41.956 -12.874   5.213  1.00  0.00    -0.017 A 
HETATM    2  C   UNL     1      41.958 -14.268   4.996  1.00  0.00     0.030 A 
HETATM    3  C   UNL     1      42.897 -15.103   5.615  1.00  0.00     0.033 A 
HETATM    4  C   UNL     1      43.854 -14.550   6.464  1.00  0.00     0.017 A 
HETATM    5  C   UNL     1      43.871 -13.173   6.686  1.00  0.00     0.011 A 
HETATM    6  C   UNL     1      42.922 -12.321   6.083  1.00  0.00    -0.020 A 
ENDROOT
BRANCH   1   7
HETATM    7  C   UNL     1      40.905 -12.075   4.561  1.00  0.00    -0.024 A 
HETATM    8  C   UNL     1      39.939 -11.381   5.304  1.00  0.00     0.012 A 
HETATM    9  C   UNL     1      38.958 -10.617   4.666  1.00  0.00     0.002 A 
HETATM   10  C   UNL     1      38.939 -10.524   3.273  1.00  0.00     0.017 A 
HETATM   11  C   UNL     1      39.902 -11.194   2.511  1.00  0.00     0.040 A 
HETATM   12  C   UNL     1      40.875 -11.969   3.161  1.00  0.00     0.030 A 
BRANCH  11  13
HETATM   13  C   UNL     1      39.857 -11.073   1.028  1.00  0.00     0.293 C 
HETATM   14  O   UNL     1      40.346 -10.143   0.408  1.00  0.00    -0.259 OA
BRANCH  13  15
HETATM   15  O   UNL     1      39.207 -12.138   0.503  1.00  0.00    -0.317 OA
BRANCH  15  16
HETATM   16  C   UNL     1      39.937 -12.956  -0.424  1.00  0.00     0.181 C 
BRANCH  16  17
HETATM   17  C   UNL     1      40.026 -14.394   0.078  1.00  0.00     0.053 C 
BRANCH  17  18
HETATM   18  C   UNL     1      41.337 -14.651   0.809  1.00  0.00     0.169 C 
BRANCH  18  19
HETATM   19  O   UNL     1      41.119 -15.575   1.871  1.00  0.00    -0.396 OA
HETATM   20  C   UNL     1      39.756 -15.605   2.274  1.00  0.00     0.201 C 
ENDBRANCH  18  19
ENDBRANCH  17  18
ENDBRANCH  16  17
ENDBRANCH  15  16
ENDBRANCH  13  15
ENDBRANCH  11  13
ENDBRANCH   1   7
BRANCH   6  21
HETATM   21  C   UNL     1      42.966 -10.853   6.451  1.00  0.00     0.306 C 
BRANCH  21  22
HETATM   22  N   UNL     1      42.875 -10.663   7.894  1.00  0.00     0.082 N 
HETATM   23  H   UNL     1      43.445  -9.861   8.159  1.00  0.00     0.313 HD
HETATM   24  H   UNL     1      41.916 -10.424   8.135  1.00  0.00     0.313 HD
ENDBRANCH  21  22
ENDBRANCH   6  21
BRANCH   3  25
HETATM   25  C   UNL     1      42.846 -16.583   5.452  1.00  0.00     0.256 C 
HETATM   26  O   UNL     1      42.048 -17.216   6.132  1.00  0.00    -0.267 OA
HETATM   27  N   UNL     1      43.744 -17.104   4.536  1.00  0.00    -0.323 N 
HETATM   28  H   UNL     1      44.463 -16.480   4.191  1.00  0.00     0.169 HD
BRANCH  27  29
HETATM   29  C   UNL     1      43.806 -18.437   4.074  1.00  0.00     0.037 A 
HETATM   30  C   UNL     1      44.127 -19.523   4.881  1.00  0.00     0.049 A 
HETATM   31  C   UNL     1      44.126 -20.789   4.317  1.00  0.00     0.118 A 
HETATM   32  N   UNL     1      43.829 -21.040   3.024  1.00  0.00    -0.273 NA
HETATM   33  C   UNL     1      43.522 -19.972   2.261  1.00  0.00     0.118 A 
HETATM   34  C   UNL     1      43.493 -18.669   2.734  1.00  0.00     0.049 A 
ENDBRANCH  27  29
ENDBRANCH   3  25
TORSDOF 11
ENDMDL
MODEL 5
REMARK VINA RESULT:      -7.2      2.997     10.280
REMARK  11 active torsions:
REMARK  status: ('A' for Active; 'I' for Inactive)
REMARK    1  A    between atoms: O_2  and  C_3 
REMARK    2  A    between atoms: C_3  and  C_4 
REMARK    3  A    between atoms: C_4  and  C_5 
REMARK    4  A    between atoms: C_5  and  O_6 
REMARK    5  A    between atoms: O_6  and  C_7 
REMARK    6  A    between atoms: C_7  and  C_9 
REMARK    7  A    between atoms: C_13  and  C_15 
REMARK    8  A    between atoms: C_17  and  C_23 
REMARK    9  A    between atoms: C_20  and  C_21 
REMARK   10  A    between atoms: C_21  and  N_22 
REMARK       I    between atoms: C_23  and  N_25 
REMARK   11  A    between atoms: N_25  and  C_26 
ROOT
HETATM    1  C   UNL     1      44.097 -10.952   7.488  1.00  0.00    -0.017 A 
HETATM    2  C   UNL     1      43.524 -10.237   8.562  1.00  0.00     0.030 A 
HETATM    3  C   UNL     1      44.277  -9.332   9.322  1.00  0.00     0.033 A 
HETATM    4  C   UNL     1      45.621  -9.129   9.016  1.00  0.00     0.017 A 
HETATM    5  C   UNL     1      46.205  -9.831   7.961  1.00  0.00     0.011 A 
HETATM    6  C   UNL     1      45.457 -10.733   7.177  1.00  0.00    -0.020 A 
ENDROOT
BRANCH   1   7
HETATM    7  C   UNL     1      43.224 -11.848   6.712  1.00  0.00    -0.024 A 
HETATM    8  C   UNL     1      42.380 -11.363   5.703  1.00  0.00     0.012 A 
HETATM    9  C   UNL     1      41.569 -12.232   4.969  1.00  0.00     0.002 A 
HETATM   10  C   UNL     1      41.603 -13.605   5.223  1.00  0.00     0.017 A 
HETATM   11  C   UNL     1      42.451 -14.114   6.213  1.00  0.00     0.040 A 
HETATM   12  C   UNL     1      43.250 -13.231   6.954  1.00  0.00     0.030 A 
BRANCH  11  13
HETATM   13  C   UNL     1      42.467 -15.582   6.458  1.00  0.00     0.293 C 
HETATM   14  O   UNL     1      42.554 -16.084   7.566  1.00  0.00    -0.259 OA
BRANCH  13  15
HETATM   15  O   UNL     1      42.367 -16.243   5.280  1.00  0.00    -0.317 OA
BRANCH  15  16
HETATM   16  C   UNL     1      43.570 -16.830   4.758  1.00  0.00     0.181 C 
BRANCH  16  17
HETATM   17  C   UNL     1      43.303 -17.509   3.418  1.00  0.00     0.053 C 
BRANCH  17  18
HETATM   18  C   UNL     1      44.218 -18.707   3.206  1.00  0.00     0.169 C 
BRANCH  18  19
HETATM   19  O   UNL     1      43.434 -19.879   3.005  1.00  0.00    -0.396 OA
HETATM   20  C   UNL     1      43.761 -20.530   1.785  1.00  0.00     0.201 C 
ENDBRANCH  18  19
ENDBRANCH  17  18
ENDBRANCH  16  17
ENDBRANCH  15  16
ENDBRANCH  13  15
ENDBRANCH  11  13
ENDBRANCH   1   7
BRANCH   6  21
HETATM   21  C   UNL     1      46.155 -11.383   6.001  1.00  0.00     0.306 C 
BRANCH  21  22
HETATM   22  N   UNL     1      47.597 -11.453   6.209  1.00  0.00     0.082 N 
HETATM   23  H   UNL     1      47.792 -12.113   6.960  1.00  0.00     0.313 HD
HETATM   24  H   UNL     1      48.032 -11.836   5.372  1.00  0.00     0.313 HD
ENDBRANCH  21  22
ENDBRANCH   6  21
BRANCH   3  25
HETATM   25  C   UNL     1      43.652  -8.517  10.401  1.00  0.00     0.256 C 
HETATM   26  O   UNL     1      43.171  -7.429  10.104  1.00  0.00    -0.267 OA
HETATM   27  N   UNL     1      43.697  -9.080  11.664  1.00  0.00    -0.323 N 
HETATM   28  H   UNL     1      44.289  -9.893  11.783  1.00  0.00     0.169 HD
BRANCH  27  29
HETATM   29  C   UNL     1      43.053  -8.606  12.827  1.00  0.00     0.037 A 
HETATM   30  C   UNL     1      43.446  -7.466  13.521  1.00  0.00     0.049 A 
HETATM   31  C   UNL     1      42.714  -7.084  14.634  1.00  0.00     0.118 A 
HETATM   32  N   UNL     1      41.633  -7.753  15.093  1.00  0.00    -0.273 NA
HETATM   33  C   UNL     1      41.273  -8.854  14.406  1.00  0.00     0.118 A 
HETATM   34  C   UNL     1      41.938  -9.313  13.280  1.00  0.00     0.049 A 
ENDBRANCH  27  29
ENDBRANCH   3  25
TORSDOF 11
ENDMDL
MODEL 6
REMARK VINA RESULT:      -7.1     17.340     19.584
REMARK  11 active torsions:
REMARK  status: ('A' for Active; 'I' for Inactive)
REMARK    1  A    between atoms: O_2  and  C_3 
REMARK    2  A    between atoms: C_3  and  C_4 
REMARK    3  A    between atoms: C_4  and  C_5 
REMARK    4  A    between atoms: C_5  and  O_6 
REMARK    5  A    between atoms: O_6  and  C_7 
REMARK    6  A    between atoms: C_7  and  C_9 
REMARK    7  A    between atoms: C_13  and  C_15 
REMARK    8  A    between atoms: C_17  and  C_23 
REMARK    9  A    between atoms: C_20  and  C_21 
REMARK   10  A    between atoms: C_21  and  N_22 
REMARK       I    between atoms: C_23  and  N_25 
REMARK   11  A    between atoms: N_25  and  C_26 
ROOT
HETATM    1  C   UNL     1      46.529 -29.119   1.210  1.00  0.00    -0.017 A 
HETATM    2  C   UNL     1      45.242 -29.389   1.721  1.00  0.00     0.030 A 
HETATM    3  C   UNL     1      44.091 -29.181   0.950  1.00  0.00     0.033 A 
HETATM    4  C   UNL     1      44.214 -28.697  -0.351  1.00  0.00     0.017 A 
HETATM    5  C   UNL     1      45.477 -28.419  -0.871  1.00  0.00     0.011 A 
HETATM    6  C   UNL     1      46.647 -28.638  -0.113  1.00  0.00    -0.020 A 
ENDROOT
BRANCH   1   7
HETATM    7  C   UNL     1      47.688 -29.409   2.070  1.00  0.00    -0.024 A 
HETATM    8  C   UNL     1      48.182 -28.468   2.985  1.00  0.00     0.012 A 
HETATM    9  C   UNL     1      49.276 -28.769   3.801  1.00  0.00     0.002 A 
HETATM   10  C   UNL     1      49.883 -30.024   3.724  1.00  0.00     0.017 A 
HETATM   11  C   UNL     1      49.398 -30.985   2.831  1.00  0.00     0.040 A 
HETATM   12  C   UNL     1      48.308 -30.668   2.005  1.00  0.00     0.030 A 
BRANCH  11  13
HETATM   13  C   UNL     1      50.065 -32.315   2.774  1.00  0.00     0.293 C 
HETATM   14  O   UNL     1      49.644 -33.309   3.341  1.00  0.00    -0.259 OA
BRANCH  13  15
HETATM   15  O   UNL     1      51.179 -32.235   2.008  1.00  0.00    -0.317 OA
BRANCH  15  16
HETATM   16  C   UNL     1      51.130 -32.864   0.718  1.00  0.00     0.181 C 
BRANCH  16  17
HETATM   17  C   UNL     1      51.665 -31.928  -0.361  1.00  0.00     0.053 C 
BRANCH  17  18
HETATM   18  C   UNL     1      50.775 -30.704  -0.531  1.00  0.00     0.169 C 
BRANCH  18  19
HETATM   19  O   UNL     1      51.031 -30.098  -1.795  1.00  0.00    -0.396 OA
HETATM   20  C   UNL     1      52.051 -30.781  -2.511  1.00  0.00     0.201 C 
ENDBRANCH  18  19
ENDBRANCH  17  18
ENDBRANCH  16  17
ENDBRANCH  15  16
ENDBRANCH  13  15
ENDBRANCH  11  13
ENDBRANCH   1   7
BRANCH   6  21
HETATM   21  C   UNL     1      47.977 -28.390  -0.791  1.00  0.00     0.306 C 
BRANCH  21  22
HETATM   22  N   UNL     1      47.939 -28.776  -2.197  1.00  0.00     0.082 N 
HETATM   23  H   UNL     1      47.036 -29.198  -2.401  1.00  0.00     0.313 HD
HETATM   24  H   UNL     1      48.000 -27.937  -2.771  1.00  0.00     0.313 HD
ENDBRANCH  21  22
ENDBRANCH   6  21
BRANCH   3  25
HETATM   25  C   UNL     1      42.739 -29.545   1.460  1.00  0.00     0.256 C 
HETATM   26  O   UNL     1      41.762 -28.994   0.965  1.00  0.00    -0.267 OA
HETATM   27  N   UNL     1      42.729 -30.481   2.480  1.00  0.00    -0.323 N 
HETATM   28  H   UNL     1      43.619 -30.704   2.906  1.00  0.00     0.169 HD
BRANCH  27  29
HETATM   29  C   UNL     1      41.597 -31.116   3.036  1.00  0.00     0.037 A 
HETATM   30  C   UNL     1      40.827 -32.058   2.361  1.00  0.00     0.049 A 
HETATM   31  C   UNL     1      39.756 -32.635   3.025  1.00  0.00     0.118 A 
HETATM   32  N   UNL     1      39.408 -32.339   4.296  1.00  0.00    -0.273 NA
HETATM   33  C   UNL     1      40.168 -31.423   4.928  1.00  0.00     0.118 A 
HETATM   34  C   UNL     1      41.260 -30.795   4.351  1.00  0.00     0.049 A 
ENDBRANCH  27  29
ENDBRANCH   3  25
TORSDOF 11
ENDMDL
MODEL 7
REMARK VINA RESULT:      -7.0      4.121      7.567
REMARK  11 active torsions:
REMARK  status: ('A' for Active; 'I' for Inactive)
REMARK    1  A    between atoms: O_2  and  C_3 
REMARK    2  A    between atoms: C_3  and  C_4 
REMARK    3  A    between atoms: C_4  and  C_5 
REMARK    4  A    between atoms: C_5  and  O_6 
REMARK    5  A    between atoms: O_6  and  C_7 
REMARK    6  A    between atoms: C_7  and  C_9 
REMARK    7  A    between atoms: C_13  and  C_15 
REMARK    8  A    between atoms: C_17  and  C_23 
REMARK    9  A    between atoms: C_20  and  C_21 
REMARK   10  A    between atoms: C_21  and  N_22 
REMARK       I    between atoms: C_23  and  N_25 
REMARK   11  A    between atoms: N_25  and  C_26 
ROOT
HETATM    1  C   UNL     1      40.868 -11.403   4.766  1.00  0.00    -0.017 A 
HETATM    2  C   UNL     1      40.629 -11.784   3.428  1.00  0.00     0.030 A 
HETATM    3  C   UNL     1      39.472 -11.380   2.748  1.00  0.00     0.033 A 
HETATM    4  C   UNL     1      38.534 -10.584   3.402  1.00  0.00     0.017 A 
HETATM    5  C   UNL     1      38.751 -10.202   4.726  1.00  0.00     0.011 A 
HETATM    6  C   UNL     1      39.917 -10.587   5.419  1.00  0.00    -0.020 A 
ENDROOT
BRANCH   1   7
HETATM    7  C   UNL     1      42.129 -11.832   5.391  1.00  0.00    -0.024 A 
HETATM    8  C   UNL     1      43.247 -10.987   5.451  1.00  0.00     0.012 A 
HETATM    9  C   UNL     1      44.432 -11.410   6.061  1.00  0.00     0.002 A 
HETATM   10  C   UNL     1      44.510 -12.680   6.635  1.00  0.00     0.017 A 
HETATM   11  C   UNL     1      43.402 -13.534   6.603  1.00  0.00     0.040 A 
HETATM   12  C   UNL     1      42.222 -13.106   5.976  1.00  0.00     0.030 A 
BRANCH  11  13
HETATM   13  C   UNL     1      43.516 -14.881   7.227  1.00  0.00     0.293 C 
HETATM   14  O   UNL     1      43.109 -15.147   8.345  1.00  0.00    -0.259 OA
BRANCH  13  15
HETATM   15  O   UNL     1      44.123 -15.732   6.367  1.00  0.00    -0.317 OA
BRANCH  15  16
HETATM   16  C   UNL     1      43.492 -17.005   6.153  1.00  0.00     0.181 C 
BRANCH  16  17
HETATM   17  C   UNL     1      42.496 -16.928   5.000  1.00  0.00     0.053 C 
BRANCH  17  18
HETATM   18  C   UNL     1      43.171 -16.487   3.707  1.00  0.00     0.169 C 
BRANCH  18  19
HETATM   19  O   UNL     1      42.846 -17.400   2.663  1.00  0.00    -0.396 OA
HETATM   20  C   UNL     1      43.641 -18.577   2.724  1.00  0.00     0.201 C 
ENDBRANCH  18  19
ENDBRANCH  17  18
ENDBRANCH  16  17
ENDBRANCH  15  16
ENDBRANCH  13  15
ENDBRANCH  11  13
ENDBRANCH   1   7
BRANCH   6  21
HETATM   21  C   UNL     1      40.105 -10.054   6.823  1.00  0.00     0.306 C 
BRANCH  21  22
HETATM   22  N   UNL     1      39.359 -10.843   7.797  1.00  0.00     0.082 N 
HETATM   23  H   UNL     1      39.347 -10.347   8.686  1.00  0.00     0.313 HD
HETATM   24  H   UNL     1      38.389 -10.909   7.493  1.00  0.00     0.313 HD
ENDBRANCH  21  22
ENDBRANCH   6  21
BRANCH   3  25
HETATM   25  C   UNL     1      39.261 -11.712   1.311  1.00  0.00     0.256 C 
HETATM   26  O   UNL     1      38.193 -11.407   0.794  1.00  0.00    -0.267 OA
HETATM   27  N   UNL     1      40.316 -12.367   0.699  1.00  0.00    -0.323 N 
HETATM   28  H   UNL     1      41.052 -12.714   1.301  1.00  0.00     0.169 HD
BRANCH  27  29
HETATM   29  C   UNL     1      40.449 -12.658  -0.676  1.00  0.00     0.037 A 
HETATM   30  C   UNL     1      41.108 -11.834  -1.583  1.00  0.00     0.049 A 
HETATM   31  C   UNL     1      41.199 -12.243  -2.904  1.00  0.00     0.118 A 
HETATM   32  N   UNL     1      40.685 -13.401  -3.372  1.00  0.00    -0.273 NA
HETATM   33  C   UNL     1      40.050 -14.181  -2.476  1.00  0.00     0.118 A 
HETATM   34  C   UNL     1      39.912 -13.861  -1.135  1.00  0.00     0.049 A 
ENDBRANCH  27  29
ENDBRANCH   3  25
TORSDOF 11
ENDMDL
MODEL 8
REMARK VINA RESULT:      -7.0      3.357      4.855
REMARK  11 active torsions:
REMARK  status: ('A' for Active; 'I' for Inactive)
REMARK    1  A    between atoms: O_2  and  C_3 
REMARK    2  A    between atoms: C_3  and  C_4 
REMARK    3  A    between atoms: C_4  and  C_5 
REMARK    4  A    between atoms: C_5  and  O_6 
REMARK    5  A    between atoms: O_6  and  C_7 
REMARK    6  A    between atoms: C_7  and  C_9 
REMARK    7  A    between atoms: C_13  and  C_15 
REMARK    8  A    between atoms: C_17  and  C_23 
REMARK    9  A    between atoms: C_20  and  C_21 
REMARK   10  A    between atoms: C_21  and  N_22 
REMARK       I    between atoms: C_23  and  N_25 
REMARK   11  A    between atoms: N_25  and  C_26 
ROOT
HETATM    1  C   UNL     1      42.611 -13.363   5.799  1.00  0.00    -0.017 A 
HETATM    2  C   UNL     1      41.937 -13.070   4.594  1.00  0.00     0.030 A 
HETATM    3  C   UNL     1      41.127 -14.021   3.959  1.00  0.00     0.033 A 
HETATM    4  C   UNL     1      40.979 -15.285   4.526  1.00  0.00     0.017 A 
HETATM    5  C   UNL     1      41.642 -15.595   5.714  1.00  0.00     0.011 A 
HETATM    6  C   UNL     1      42.448 -14.644   6.373  1.00  0.00    -0.020 A 
ENDROOT
BRANCH   1   7
HETATM    7  C   UNL     1      43.405 -12.292   6.424  1.00  0.00    -0.024 A 
HETATM    8  C   UNL     1      44.806 -12.341   6.466  1.00  0.00     0.012 A 
HETATM    9  C   UNL     1      45.540 -11.307   7.053  1.00  0.00     0.002 A 
HETATM   10  C   UNL     1      44.884 -10.201   7.595  1.00  0.00     0.017 A 
HETATM   11  C   UNL     1      43.488 -10.122   7.549  1.00  0.00     0.040 A 
HETATM   12  C   UNL     1      42.758 -11.171   6.971  1.00  0.00     0.030 A 
BRANCH  11  13
HETATM   13  C   UNL     1      42.817  -8.928   8.132  1.00  0.00     0.293 C 
HETATM   14  O   UNL     1      41.648  -8.641   7.933  1.00  0.00    -0.259 OA
BRANCH  13  15
HETATM   15  O   UNL     1      43.695  -8.239   8.899  1.00  0.00    -0.317 OA
BRANCH  15  16
HETATM   16  C   UNL     1      43.394  -8.132  10.300  1.00  0.00     0.181 C 
BRANCH  16  17
HETATM   17  C   UNL     1      44.140  -9.198  11.096  1.00  0.00     0.053 C 
BRANCH  17  18
HETATM   18  C   UNL     1      43.207 -10.317  11.541  1.00  0.00     0.169 C 
BRANCH  18  19
HETATM   19  O   UNL     1      41.853  -9.895  11.405  1.00  0.00    -0.396 OA
HETATM   20  C   UNL     1      41.157  -9.946  12.643  1.00  0.00     0.201 C 
ENDBRANCH  18  19
ENDBRANCH  17  18
ENDBRANCH  16  17
ENDBRANCH  15  16
ENDBRANCH  13  15
ENDBRANCH  11  13
ENDBRANCH   1   7
BRANCH   6  21
HETATM   21  C   UNL     1      43.058 -15.042   7.700  1.00  0.00     0.306 C 
BRANCH  21  22
HETATM   22  N   UNL     1      43.101 -16.492   7.852  1.00  0.00     0.082 N 
HETATM   23  H   UNL     1      42.361 -16.781   8.489  1.00  0.00     0.313 HD
HETATM   24  H   UNL     1      42.891 -16.924   6.955  1.00  0.00     0.313 HD
ENDBRANCH  21  22
ENDBRANCH   6  21
BRANCH   3  25
HETATM   25  C   UNL     1      40.350 -13.684   2.733  1.00  0.00     0.256 C 
HETATM   26  O   UNL     1      39.253 -13.155   2.867  1.00  0.00    -0.267 OA
HETATM   27  N   UNL     1      40.959 -14.030   1.539  1.00  0.00    -0.323 N 
HETATM   28  H   UNL     1      41.776 -14.626   1.596  1.00  0.00     0.169 HD
BRANCH  27  29
HETATM   29  C   UNL     1      40.526 -13.692   0.239  1.00  0.00     0.037 A 
HETATM   30  C   UNL     1      40.810 -12.480  -0.382  1.00  0.00     0.049 A 
HETATM   31  C   UNL     1      40.354 -12.277  -1.675  1.00  0.00     0.118 A 
HETATM   32  N   UNL     1      39.647 -13.188  -2.379  1.00  0.00    -0.273 NA
HETATM   33  C   UNL     1      39.383 -14.353  -1.756  1.00  0.00     0.118 A 
HETATM   34  C   UNL     1      39.799 -14.651  -0.467  1.00  0.00     0.049 A 
ENDBRANCH  27  29
ENDBRANCH   3  25
TORSDOF 11
ENDMDL
MODEL 9
REMARK VINA RESULT:      -6.9      1.726      2.351
REMARK  11 active torsions:
REMARK  status: ('A' for Active; 'I' for Inactive)
REMARK    1  A    between atoms: O_2  and  C_3 
REMARK    2  A    between atoms: C_3  and  C_4 
REMARK    3  A    between atoms: C_4  and  C_5 
REMARK    4  A    between atoms: C_5  and  O_6 
REMARK    5  A    between atoms: O_6  and  C_7 
REMARK    6  A    between atoms: C_7  and  C_9 
REMARK    7  A    between atoms: C_13  and  C_15 
REMARK    8  A    between atoms: C_17  and  C_23 
REMARK    9  A    between atoms: C_20  and  C_21 
REMARK   10  A    between atoms: C_21  and  N_22 
REMARK       I    between atoms: C_23  and  N_25 
REMARK   11  A    between atoms: N_25  and  C_26 
ROOT
HETATM    1  C   UNL     1      42.770 -12.059   5.489  1.00  0.00    -0.017 A 
HETATM    2  C   UNL     1      42.713 -13.467   5.411  1.00  0.00     0.030 A 
HETATM    3  C   UNL     1      41.862 -14.115   4.505  1.00  0.00     0.033 A 
HETATM    4  C   UNL     1      41.052 -13.358   3.662  1.00  0.00     0.017 A 
HETATM    5  C   UNL     1      41.091 -11.965   3.729  1.00  0.00     0.011 A 
HETATM    6  C   UNL     1      41.953 -11.298   4.623  1.00  0.00    -0.020 A 
ENDROOT
BRANCH   1   7
HETATM    7  C   UNL     1      43.724 -11.458   6.435  1.00  0.00    -0.024 A 
HETATM    8  C   UNL     1      45.110 -11.594   6.270  1.00  0.00     0.012 A 
HETATM    9  C   UNL     1      46.000 -11.004   7.173  1.00  0.00     0.002 A 
HETATM   10  C   UNL     1      45.515 -10.255   8.246  1.00  0.00     0.017 A 
HETATM   11  C   UNL     1      44.137 -10.090   8.421  1.00  0.00     0.040 A 
HETATM   12  C   UNL     1      43.251 -10.698   7.518  1.00  0.00     0.030 A 
BRANCH  11  13
HETATM   13  C   UNL     1      43.650  -9.283   9.573  1.00  0.00     0.293 C 
HETATM   14  O   UNL     1      44.036  -8.152   9.820  1.00  0.00    -0.259 OA
BRANCH  13  15
HETATM   15  O   UNL     1      42.734  -9.992  10.274  1.00  0.00    -0.317 OA
BRANCH  15  16
HETATM   16  C   UNL     1      41.748  -9.244  11.003  1.00  0.00     0.181 C 
BRANCH  16  17
HETATM   17  C   UNL     1      40.341  -9.614  10.545  1.00  0.00     0.053 C 
BRANCH  17  18
HETATM   18  C   UNL     1      40.014  -8.997   9.191  1.00  0.00     0.169 C 
BRANCH  18  19
HETATM   19  O   UNL     1      40.455  -7.643   9.163  1.00  0.00    -0.396 OA
HETATM   20  C   UNL     1      40.947  -7.275   7.881  1.00  0.00     0.201 C 
ENDBRANCH  18  19
ENDBRANCH  17  18
ENDBRANCH  16  17
ENDBRANCH  15  16
ENDBRANCH  13  15
ENDBRANCH  11  13
ENDBRANCH   1   7
BRANCH   6  21
HETATM   21  C   UNL     1      41.988  -9.785   4.565  1.00  0.00     0.306 C 
BRANCH  21  22
HETATM   22  N   UNL     1      40.676  -9.211   4.842  1.00  0.00     0.082 N 
HETATM   23  H   UNL     1      40.721  -8.203   4.711  1.00  0.00     0.313 HD
HETATM   24  H   UNL     1      40.012  -9.560   4.154  1.00  0.00     0.313 HD
ENDBRANCH  21  22
ENDBRANCH   6  21
BRANCH   3  25
HETATM   25  C   UNL     1      41.865 -15.598   4.365  1.00  0.00     0.256 C 
HETATM   26  O   UNL     1      40.787 -16.177   4.292  1.00  0.00    -0.267 OA
HETATM   27  N   UNL     1      43.119 -16.184   4.349  1.00  0.00    -0.323 N 
HETATM   28  H   UNL     1      43.903 -15.597   4.605  1.00  0.00     0.169 HD
BRANCH  27  29
HETATM   29  C   UNL     1      43.419 -17.536   4.073  1.00  0.00     0.037 A 
HETATM   30  C   UNL     1      43.358 -18.100   2.803  1.00  0.00     0.049 A 
HETATM   31  C   UNL     1      43.706 -19.434   2.655  1.00  0.00     0.118 A 
HETATM   32  N   UNL     1      44.103 -20.228   3.672  1.00  0.00    -0.273 NA
HETATM   33  C   UNL     1      44.152 -19.660   4.893  1.00  0.00     0.118 A 
HETATM   34  C   UNL     1      43.828 -18.335   5.141  1.00  0.00     0.049 A 
ENDBRANCH  27  29
ENDBRANCH   3  25
TORSDOF 11
ENDMDL
MODEL 10
REMARK VINA RESULT:      -6.8      2.067      2.999
REMARK  11 active torsions:
REMARK  status: ('A' for Active; 'I' for Inactive)
REMARK    1  A    between atoms: O_2  and  C_3 
REMARK    2  A    between atoms: C_3  and  C_4 
REMARK    3  A    between atoms: C_4  and  C_5 
REMARK    4  A    between atoms: C_5  and  O_6 
REMARK    5  A    between atoms: O_6  and  C_7 
REMARK    6  A    between atoms: C_7  and  C_9 
REMARK    7  A    between atoms: C_13  and  C_15 
REMARK    8  A    between atoms: C_17  and  C_23 
REMARK    9  A    between atoms: C_20  and  C_21 
REMARK   10  A    between atoms: C_21  and  N_22 
REMARK       I    between atoms: C_23  and  N_25 
REMARK   11  A    between atoms: N_25  and  C_26 
ROOT
HETATM    1  C   UNL     1      42.597 -10.271   6.823  1.00  0.00    -0.017 A 
HETATM    2  C   UNL     1      42.473 -11.573   6.293  1.00  0.00     0.030 A 
HETATM    3  C   UNL     1      41.585 -11.854   5.246  1.00  0.00     0.033 A 
HETATM    4  C   UNL     1      40.805 -10.830   4.713  1.00  0.00     0.017 A 
HETATM    5  C   UNL     1      40.910  -9.539   5.228  1.00  0.00     0.011 A 
HETATM    6  C   UNL     1      41.811  -9.236   6.270  1.00  0.00    -0.020 A 
ENDROOT
BRANCH   1   7
HETATM    7  C   UNL     1      43.587 -10.051   7.890  1.00  0.00    -0.024 A 
HETATM    8  C   UNL     1      44.940  -9.819   7.605  1.00  0.00     0.012 A 
HETATM    9  C   UNL     1      45.862  -9.600   8.633  1.00  0.00     0.002 A 
HETATM   10  C   UNL     1      45.438  -9.594   9.963  1.00  0.00     0.017 A 
HETATM   11  C   UNL     1      44.090  -9.806  10.272  1.00  0.00     0.040 A 
HETATM   12  C   UNL     1      43.176 -10.040   9.233  1.00  0.00     0.030 A 
BRANCH  11  13
HETATM   13  C   UNL     1      43.670  -9.791  11.699  1.00  0.00     0.293 C 
HETATM   14  O   UNL     1      43.290 -10.779  12.305  1.00  0.00    -0.259 OA
BRANCH  13  15
HETATM   15  O   UNL     1      43.781  -8.535  12.195  1.00  0.00    -0.317 OA
BRANCH  15  16
HETATM   16  C   UNL     1      42.569  -7.891  12.619  1.00  0.00     0.181 C 
BRANCH  16  17
HETATM   17  C   UNL     1      42.358  -8.071  14.119  1.00  0.00     0.053 C 
BRANCH  17  18
HETATM   18  C   UNL     1      41.017  -8.728  14.419  1.00  0.00     0.169 C 
BRANCH  18  19
HETATM   19  O   UNL     1      40.350  -9.036  13.198  1.00  0.00    -0.396 OA
HETATM   20  C   UNL     1      39.933 -10.394  13.153  1.00  0.00     0.201 C 
ENDBRANCH  18  19
ENDBRANCH  17  18
ENDBRANCH  16  17
ENDBRANCH  15  16
ENDBRANCH  13  15
ENDBRANCH  11  13
ENDBRANCH   1   7
BRANCH   6  21
HETATM   21  C   UNL     1      41.917  -7.789   6.706  1.00  0.00     0.306 C 
BRANCH  21  22
HETATM   22  N   UNL     1      40.600  -7.191   6.891  1.00  0.00     0.082 N 
HETATM   23  H   UNL     1      39.907  -7.932   6.974  1.00  0.00     0.313 HD
HETATM   24  H   UNL     1      40.588  -6.689   7.777  1.00  0.00     0.313 HD
ENDBRANCH  21  22
ENDBRANCH   6  21
BRANCH   3  25
HETATM   25  C   UNL     1      41.516 -13.210   4.631  1.00  0.00     0.256 C 
HETATM   26  O   UNL     1      40.420 -13.748   4.531  1.00  0.00    -0.267 OA
HETATM   27  N   UNL     1      42.734 -13.741   4.243  1.00  0.00    -0.323 N 
HETATM   28  H   UNL     1      43.566 -13.260   4.559  1.00  0.00     0.169 HD
BRANCH  27  29
HETATM   29  C   UNL     1      42.944 -14.924   3.502  1.00  0.00     0.037 A 
HETATM   30  C   UNL     1      43.106 -14.955   2.121  1.00  0.00     0.049 A 
HETATM   31  C   UNL     1      43.337 -16.177   1.509  1.00  0.00     0.118 A 
HETATM   32  N   UNL     1      43.416 -17.351   2.173  1.00  0.00    -0.273 NA
HETATM   33  C   UNL     1      43.255 -17.296   3.510  1.00  0.00     0.118 A 
HETATM   34  C   UNL     1      43.024 -16.123   4.212  1.00  0.00     0.049 A 
ENDBRANCH  27  29
ENDBRANCH   3  25
TORSDOF 11
ENDMDL
