MODEL 1
REMARK VINA RESULT:      -9.0      0.000      0.000
REMARK  8 active torsions:
REMARK  status: ('A' for Active; 'I' for Inactive)
REMARK    1  A    between atoms: C_2  and  C_3 
REMARK    2  A    between atoms: C_3  and  O_4 
REMARK    3  A    between atoms: O_4  and  C_5 
REMARK    4  A    between atoms: C_8  and  C_9 
REMARK    5  A    between atoms: N_10  and  C_11 
REMARK    6  A    between atoms: C_11  and  C_12 
REMARK    7  A    between atoms: C_25  and  C_26 
REMARK    8  A    between atoms: C_27  and  O_28 
ROOT
HETATM    1  C   UNL     1      41.559 -13.130   2.352  1.00  0.00     0.159 A 
HETATM    2  N   UNL     1      40.640 -12.540   1.341  1.00  0.00    -0.329 N 
HETATM    3  C   UNL     1      39.455 -12.027   1.886  1.00  0.00     0.273 A 
HETATM    4  O   UNL     1      38.560 -11.422   1.323  1.00  0.00    -0.266 OA
HETATM    5  C   UNL     1      39.545 -12.363   3.257  1.00  0.00     0.129 A 
HETATM    6  C   UNL     1      40.713 -12.995   3.560  1.00  0.00     0.034 A 
HETATM    7  N   UNL     1      38.815 -12.292   4.380  1.00  0.00    -0.272 N 
HETATM    8  H   UNL     1      37.891 -11.893   4.524  1.00  0.00     0.189 HD
HETATM    9  N   UNL     1      39.447 -12.890   5.425  1.00  0.00    -0.173 NA
HETATM   10  C   UNL     1      40.616 -13.345   4.915  1.00  0.00     0.101 A 
ENDROOT
BRANCH   1  11
HETATM   11  C   UNL     1      41.838 -14.605   2.189  1.00  0.00    -0.030 A 
HETATM   12  C   UNL     1      43.143 -15.014   1.859  1.00  0.00     0.012 A 
HETATM   13  C   UNL     1      43.491 -16.364   1.869  1.00  0.00     0.037 A 
HETATM   14  C   UNL     1      42.543 -17.318   2.222  1.00  0.00     0.069 A 
HETATM   15  C   UNL     1      41.223 -16.946   2.468  1.00  0.00     0.037 A 
HETATM   16  C   UNL     1      40.872 -15.594   2.452  1.00  0.00     0.012 A 
BRANCH  14  17
HETATM   17  O   UNL     1      42.962 -18.617   2.321  1.00  0.00    -0.348 OA
BRANCH  17  18
HETATM   18  C   UNL     1      44.228 -18.697   2.990  1.00  0.00     0.202 C 
BRANCH  18  19
HETATM   19  C   UNL     1      43.967 -18.661   4.466  1.00  0.00    -0.011 C 
HETATM   20  C   UNL     1      43.988 -19.728   5.275  1.00  0.00     0.009 C 
ENDBRANCH  18  19
ENDBRANCH  17  18
ENDBRANCH  14  17
ENDBRANCH   1  11
BRANCH   2  21
HETATM   21  C   UNL     1      41.082 -12.227  -0.000  1.00  0.00     0.167 C 
BRANCH  21  22
HETATM   22  C   UNL     1      40.394 -13.076  -1.032  1.00  0.00    -0.023 A 
HETATM   23  C   UNL     1      40.311 -12.672  -2.361  1.00  0.00     0.125 A 
HETATM   24  N   UNL     1      39.675 -13.370  -3.328  1.00  0.00    -0.273 NA
HETATM   25  C   UNL     1      39.094 -14.532  -2.959  1.00  0.00     0.116 A 
HETATM   26  C   UNL     1      39.121 -15.028  -1.666  1.00  0.00     0.020 A 
HETATM   27  C   UNL     1      39.780 -14.285  -0.691  1.00  0.00     0.012 A 
ENDBRANCH  21  22
ENDBRANCH   2  21
BRANCH  10  28
HETATM   28  C   UNL     1      41.552 -14.140   5.699  1.00  0.00     0.028 A 
HETATM   29  C   UNL     1      41.175 -15.334   6.328  1.00  0.00     0.078 A 
HETATM   30  C   UNL     1      42.049 -15.995   7.189  1.00  0.00     0.037 A 
HETATM   31  C   UNL     1      43.327 -15.483   7.408  1.00  0.00     0.003 A 
HETATM   32  C   UNL     1      43.731 -14.314   6.765  1.00  0.00     0.001 A 
HETATM   33  C   UNL     1      42.846 -13.645   5.914  1.00  0.00     0.017 A 
BRANCH  29  34
HETATM   34  O   UNL     1      39.951 -15.919   6.135  1.00  0.00    -0.360 OA
HETATM   35  H   UNL     1      39.580 -15.542   5.316  1.00  0.00     0.217 HD
ENDBRANCH  29  34
ENDBRANCH  10  28
TORSDOF 8
ENDMDL
MODEL 2
REMARK VINA RESULT:      -8.4      1.938      6.037
REMARK  8 active torsions:
REMARK  status: ('A' for Active; 'I' for Inactive)
REMARK    1  A    between atoms: C_2  and  C_3 
REMARK    2  A    between atoms: C_3  and  O_4 
REMARK    3  A    between atoms: O_4  and  C_5 
REMARK    4  A    between atoms: C_8  and  C_9 
REMARK    5  A    between atoms: N_10  and  C_11 
REMARK    6  A    between atoms: C_11  and  C_12 
REMARK    7  A    between atoms: C_25  and  C_26 
REMARK    8  A    between atoms: C_27  and  O_28 
ROOT
HETATM    1  C   UNL     1      40.346 -12.605   3.350  1.00  0.00     0.159 A 
HETATM    2  N   UNL     1      41.114 -12.040   4.492  1.00  0.00    -0.329 N 
HETATM    3  C   UNL     1      41.758 -10.831   4.198  1.00  0.00     0.273 A 
HETATM    4  O   UNL     1      42.387 -10.103   4.945  1.00  0.00    -0.266 OA
HETATM    5  C   UNL     1      41.492 -10.638   2.821  1.00  0.00     0.129 A 
HETATM    6  C   UNL     1      40.706 -11.621   2.302  1.00  0.00     0.034 A 
HETATM    7  N   UNL     1      41.804  -9.795   1.825  1.00  0.00    -0.272 N 
HETATM    8  H   UNL     1      42.376  -8.955   1.848  1.00  0.00     0.189 HD
HETATM    9  N   UNL     1      41.276 -10.205   0.641  1.00  0.00    -0.173 NA
HETATM   10  C   UNL     1      40.612 -11.349   0.930  1.00  0.00     0.101 A 
ENDROOT
BRANCH   1  11
HETATM   11  C   UNL     1      40.820 -13.950   2.854  1.00  0.00    -0.030 A 
HETATM   12  C   UNL     1      42.201 -14.165   2.695  1.00  0.00     0.012 A 
HETATM   13  C   UNL     1      42.697 -15.436   2.410  1.00  0.00     0.037 A 
HETATM   14  C   UNL     1      41.819 -16.508   2.295  1.00  0.00     0.069 A 
HETATM   15  C   UNL     1      40.442 -16.306   2.363  1.00  0.00     0.037 A 
HETATM   16  C   UNL     1      39.945 -15.031   2.642  1.00  0.00     0.012 A 
BRANCH  14  17
HETATM   17  O   UNL     1      42.363 -17.752   2.122  1.00  0.00    -0.348 OA
BRANCH  17  18
HETATM   18  C   UNL     1      43.425 -17.982   3.059  1.00  0.00     0.202 C 
BRANCH  18  19
HETATM   19  C   UNL     1      43.870 -19.406   2.903  1.00  0.00    -0.011 C 
HETATM   20  C   UNL     1      43.410 -20.256   1.976  1.00  0.00     0.009 C 
ENDBRANCH  18  19
ENDBRANCH  17  18
ENDBRANCH  14  17
ENDBRANCH   1  11
BRANCH   2  21
HETATM   21  C   UNL     1      40.928 -12.516   5.846  1.00  0.00     0.167 C 
BRANCH  21  22
HETATM   22  C   UNL     1      41.703 -13.776   6.111  1.00  0.00    -0.023 A 
HETATM   23  C   UNL     1      43.089 -13.761   6.224  1.00  0.00     0.125 A 
HETATM   24  N   UNL     1      43.847 -14.862   6.424  1.00  0.00    -0.273 NA
HETATM   25  C   UNL     1      43.195 -16.041   6.522  1.00  0.00     0.116 A 
HETATM   26  C   UNL     1      41.819 -16.167   6.428  1.00  0.00     0.020 A 
HETATM   27  C   UNL     1      41.066 -15.016   6.218  1.00  0.00     0.012 A 
ENDBRANCH  21  22
ENDBRANCH   2  21
BRANCH  10  28
HETATM   28  C   UNL     1      39.978 -12.163  -0.099  1.00  0.00     0.028 A 
HETATM   29  C   UNL     1      38.720 -11.849  -0.631  1.00  0.00     0.078 A 
HETATM   30  C   UNL     1      38.077 -12.723  -1.505  1.00  0.00     0.037 A 
HETATM   31  C   UNL     1      38.699 -13.912  -1.883  1.00  0.00     0.003 A 
HETATM   32  C   UNL     1      39.966 -14.224  -1.390  1.00  0.00     0.001 A 
HETATM   33  C   UNL     1      40.602 -13.353  -0.501  1.00  0.00     0.017 A 
BRANCH  29  34
HETATM   34  O   UNL     1      38.060 -10.686  -0.337  1.00  0.00    -0.360 OA
HETATM   35  H   UNL     1      37.130 -10.810  -0.602  1.00  0.00     0.217 HD
ENDBRANCH  29  34
ENDBRANCH  10  28
TORSDOF 8
ENDMDL
MODEL 3
REMARK VINA RESULT:      -8.0      2.975      6.486
REMARK  8 active torsions:
REMARK  status: ('A' for Active; 'I' for Inactive)
REMARK    1  A    between atoms: C_2  and  C_3 
REMARK    2  A    between atoms: C_3  and  O_4 
REMARK    3  A    between atoms: O_4  and  C_5 
REMARK    4  A    between atoms: C_8  and  C_9 
REMARK    5  A    between atoms: N_10  and  C_11 
REMARK    6  A    between atoms: C_11  and  C_12 
REMARK    7  A    between atoms: C_25  and  C_26 
REMARK    8  A    between atoms: C_27  and  O_28 
ROOT
HETATM    1  C   UNL     1      41.706 -14.039   5.564  1.00  0.00     0.159 A 
HETATM    2  N   UNL     1      42.587 -15.206   5.839  1.00  0.00    -0.329 N 
HETATM    3  C   UNL     1      43.798 -14.866   6.458  1.00  0.00     0.273 A 
HETATM    4  O   UNL     1      44.674 -15.605   6.870  1.00  0.00    -0.266 OA
HETATM    5  C   UNL     1      43.761 -13.453   6.510  1.00  0.00     0.129 A 
HETATM    6  C   UNL     1      42.601 -12.946   6.007  1.00  0.00     0.034 A 
HETATM    7  N   UNL     1      44.538 -12.420   6.870  1.00  0.00    -0.272 N 
HETATM    8  H   UNL     1      45.469 -12.425   7.275  1.00  0.00     0.189 HD
HETATM    9  N   UNL     1      43.943 -11.229   6.591  1.00  0.00    -0.173 NA
HETATM   10  C   UNL     1      42.751 -11.552   6.037  1.00  0.00     0.101 A 
ENDROOT
BRANCH   1  11
HETATM   11  C   UNL     1      41.407 -13.783   4.106  1.00  0.00    -0.030 A 
HETATM   12  C   UNL     1      40.113 -13.370   3.743  1.00  0.00     0.012 A 
HETATM   13  C   UNL     1      39.836 -12.955   2.441  1.00  0.00     0.037 A 
HETATM   14  C   UNL     1      40.853 -12.934   1.493  1.00  0.00     0.069 A 
HETATM   15  C   UNL     1      42.121 -13.419   1.806  1.00  0.00     0.037 A 
HETATM   16  C   UNL     1      42.397 -13.842   3.108  1.00  0.00     0.012 A 
BRANCH  14  17
HETATM   17  O   UNL     1      40.556 -12.417   0.261  1.00  0.00    -0.348 OA
BRANCH  17  18
HETATM   18  C   UNL     1      39.355 -13.001  -0.263  1.00  0.00     0.202 C 
BRANCH  18  19
HETATM   19  C   UNL     1      39.746 -14.211  -1.058  1.00  0.00    -0.011 C 
HETATM   20  C   UNL     1      39.067 -14.692  -2.108  1.00  0.00     0.009 C 
ENDBRANCH  18  19
ENDBRANCH  17  18
ENDBRANCH  14  17
ENDBRANCH   1  11
BRANCH   2  21
HETATM   21  C   UNL     1      42.093 -16.564   5.783  1.00  0.00     0.167 C 
BRANCH  21  22
HETATM   22  C   UNL     1      42.800 -17.378   4.736  1.00  0.00    -0.023 A 
HETATM   23  C   UNL     1      43.776 -18.307   5.080  1.00  0.00     0.125 A 
HETATM   24  N   UNL     1      44.474 -19.042   4.186  1.00  0.00    -0.273 NA
HETATM   25  C   UNL     1      44.187 -18.848   2.881  1.00  0.00     0.116 A 
HETATM   26  C   UNL     1      43.232 -17.952   2.430  1.00  0.00     0.020 A 
HETATM   27  C   UNL     1      42.532 -17.207   3.374  1.00  0.00     0.012 A 
ENDBRANCH  21  22
ENDBRANCH   2  21
BRANCH  10  28
HETATM   28  C   UNL     1      41.841 -10.546   5.504  1.00  0.00     0.028 A 
HETATM   29  C   UNL     1      40.739 -10.076   6.230  1.00  0.00     0.078 A 
HETATM   30  C   UNL     1      39.806  -9.224   5.641  1.00  0.00     0.037 A 
HETATM   31  C   UNL     1      39.982  -8.807   4.322  1.00  0.00     0.003 A 
HETATM   32  C   UNL     1      41.092  -9.238   3.596  1.00  0.00     0.001 A 
HETATM   33  C   UNL     1      42.017 -10.104   4.185  1.00  0.00     0.017 A 
BRANCH  29  34
HETATM   34  O   UNL     1      40.516 -10.411   7.540  1.00  0.00    -0.360 OA
HETATM   35  H   UNL     1      41.296 -10.120   8.046  1.00  0.00     0.217 HD
ENDBRANCH  29  34
ENDBRANCH  10  28
TORSDOF 8
ENDMDL
MODEL 4
REMARK VINA RESULT:      -8.0      3.090      6.389
REMARK  8 active torsions:
REMARK  status: ('A' for Active; 'I' for Inactive)
REMARK    1  A    between atoms: C_2  and  C_3 
REMARK    2  A    between atoms: C_3  and  O_4 
REMARK    3  A    between atoms: O_4  and  C_5 
REMARK    4  A    between atoms: C_8  and  C_9 
REMARK    5  A    between atoms: N_10  and  C_11 
REMARK    6  A    between atoms: C_11  and  C_12 
REMARK    7  A    between atoms: C_25  and  C_26 
REMARK    8  A    between atoms: C_27  and  O_28 
ROOT
HETATM    1  C   UNL     1      42.247 -13.395   2.619  1.00  0.00     0.159 A 
HETATM    2  N   UNL     1      42.124 -14.852   2.344  1.00  0.00    -0.329 N 
HETATM    3  C   UNL     1      40.799 -15.297   2.239  1.00  0.00     0.273 A 
HETATM    4  O   UNL     1      40.392 -16.407   1.946  1.00  0.00    -0.266 OA
HETATM    5  C   UNL     1      40.035 -14.144   2.539  1.00  0.00     0.129 A 
HETATM    6  C   UNL     1      40.814 -13.052   2.769  1.00  0.00     0.034 A 
HETATM    7  N   UNL     1      38.756 -13.779   2.713  1.00  0.00    -0.272 N 
HETATM    8  H   UNL     1      37.910 -14.336   2.629  1.00  0.00     0.189 HD
HETATM    9  N   UNL     1      38.656 -12.475   3.086  1.00  0.00    -0.173 NA
HETATM   10  C   UNL     1      39.932 -12.027   3.142  1.00  0.00     0.101 A 
ENDROOT
BRANCH   1  11
HETATM   11  C   UNL     1      42.912 -13.038   3.926  1.00  0.00    -0.030 A 
HETATM   12  C   UNL     1      43.800 -11.947   3.959  1.00  0.00     0.012 A 
HETATM   13  C   UNL     1      44.301 -11.471   5.169  1.00  0.00     0.037 A 
HETATM   14  C   UNL     1      43.908 -12.070   6.361  1.00  0.00     0.069 A 
HETATM   15  C   UNL     1      43.099 -13.204   6.350  1.00  0.00     0.037 A 
HETATM   16  C   UNL     1      42.602 -13.686   5.136  1.00  0.00     0.012 A 
BRANCH  14  17
HETATM   17  O   UNL     1      44.342 -11.499   7.527  1.00  0.00    -0.348 OA
BRANCH  17  18
HETATM   18  C   UNL     1      45.665 -10.964   7.373  1.00  0.00     0.202 C 
BRANCH  18  19
HETATM   19  C   UNL     1      45.765  -9.741   8.235  1.00  0.00    -0.011 C 
HETATM   20  C   UNL     1      45.433  -9.688   9.532  1.00  0.00     0.009 C 
ENDBRANCH  18  19
ENDBRANCH  17  18
ENDBRANCH  14  17
ENDBRANCH   1  11
BRANCH   2  21
HETATM   21  C   UNL     1      43.250 -15.642   1.896  1.00  0.00     0.167 C 
BRANCH  21  22
HETATM   22  C   UNL     1      43.514 -16.810   2.804  1.00  0.00    -0.023 A 
HETATM   23  C   UNL     1      43.525 -18.114   2.319  1.00  0.00     0.125 A 
HETATM   24  N   UNL     1      43.718 -19.208   3.088  1.00  0.00    -0.273 NA
HETATM   25  C   UNL     1      43.916 -19.000   4.407  1.00  0.00     0.116 A 
HETATM   26  C   UNL     1      43.929 -17.745   4.992  1.00  0.00     0.020 A 
HETATM   27  C   UNL     1      43.723 -16.637   4.176  1.00  0.00     0.012 A 
ENDBRANCH  21  22
ENDBRANCH   2  21
BRANCH  10  28
HETATM   28  C   UNL     1      40.268 -10.686   3.603  1.00  0.00     0.028 A 
HETATM   29  C   UNL     1      40.401  -9.605   2.723  1.00  0.00     0.078 A 
HETATM   30  C   UNL     1      40.864  -8.370   3.173  1.00  0.00     0.037 A 
HETATM   31  C   UNL     1      41.172  -8.193   4.522  1.00  0.00     0.003 A 
HETATM   32  C   UNL     1      41.013  -9.249   5.418  1.00  0.00     0.001 A 
HETATM   33  C   UNL     1      40.563 -10.491   4.960  1.00  0.00     0.017 A 
BRANCH  29  34
HETATM   34  O   UNL     1      40.086  -9.688   1.392  1.00  0.00    -0.360 OA
HETATM   35  H   UNL     1      39.356 -10.330   1.311  1.00  0.00     0.217 HD
ENDBRANCH  29  34
ENDBRANCH  10  28
TORSDOF 8
ENDMDL
MODEL 5
REMARK VINA RESULT:      -8.0      2.670      4.776
REMARK  8 active torsions:
REMARK  status: ('A' for Active; 'I' for Inactive)
REMARK    1  A    between atoms: C_2  and  C_3 
REMARK    2  A    between atoms: C_3  and  O_4 
REMARK    3  A    between atoms: O_4  and  C_5 
REMARK    4  A    between atoms: C_8  and  C_9 
REMARK    5  A    between atoms: N_10  and  C_11 
REMARK    6  A    between atoms: C_11  and  C_12 
REMARK    7  A    between atoms: C_25  and  C_26 
REMARK    8  A    between atoms: C_27  and  O_28 
ROOT
HETATM    1  C   UNL     1      40.426 -13.727   3.142  1.00  0.00     0.159 A 
HETATM    2  N   UNL     1      39.988 -13.446   1.748  1.00  0.00    -0.329 N 
HETATM    3  C   UNL     1      40.124 -14.539   0.882  1.00  0.00     0.273 A 
HETATM    4  O   UNL     1      39.780 -14.633  -0.283  1.00  0.00    -0.266 OA
HETATM    5  C   UNL     1      40.744 -15.526   1.684  1.00  0.00     0.129 A 
HETATM    6  C   UNL     1      40.941 -15.104   2.964  1.00  0.00     0.034 A 
HETATM    7  N   UNL     1      41.251 -16.764   1.579  1.00  0.00    -0.272 N 
HETATM    8  H   UNL     1      41.284 -17.379   0.771  1.00  0.00     0.189 HD
HETATM    9  N   UNL     1      41.813 -17.173   2.747  1.00  0.00    -0.173 NA
HETATM   10  C   UNL     1      41.641 -16.138   3.602  1.00  0.00     0.101 A 
ENDROOT
BRANCH   1  11
HETATM   11  C   UNL     1      41.587 -12.897   3.635  1.00  0.00    -0.030 A 
HETATM   12  C   UNL     1      41.649 -12.563   5.000  1.00  0.00     0.012 A 
HETATM   13  C   UNL     1      42.782 -11.951   5.534  1.00  0.00     0.037 A 
HETATM   14  C   UNL     1      43.871 -11.680   4.712  1.00  0.00     0.069 A 
HETATM   15  C   UNL     1      43.800 -11.922   3.342  1.00  0.00     0.037 A 
HETATM   16  C   UNL     1      42.662 -12.528   2.805  1.00  0.00     0.012 A 
BRANCH  14  17
HETATM   17  O   UNL     1      44.998 -11.178   5.304  1.00  0.00    -0.348 OA
BRANCH  17  18
HETATM   18  C   UNL     1      45.137 -11.673   6.643  1.00  0.00     0.202 C 
BRANCH  18  19
HETATM   19  C   UNL     1      45.775 -10.593   7.465  1.00  0.00    -0.011 C 
HETATM   20  C   UNL     1      45.529 -10.371   8.763  1.00  0.00     0.009 C 
ENDBRANCH  18  19
ENDBRANCH  17  18
ENDBRANCH  14  17
ENDBRANCH   1  11
BRANCH   2  21
HETATM   21  C   UNL     1      39.193 -12.283   1.418  1.00  0.00     0.167 C 
BRANCH  21  22
HETATM   22  C   UNL     1      40.039 -11.150   0.908  1.00  0.00    -0.023 A 
HETATM   23  C   UNL     1      40.118  -9.942   1.594  1.00  0.00     0.125 A 
HETATM   24  N   UNL     1      40.828  -8.873   1.170  1.00  0.00    -0.273 NA
HETATM   25  C   UNL     1      41.501  -9.011   0.007  1.00  0.00     0.116 A 
HETATM   26  C   UNL     1      41.493 -10.169  -0.751  1.00  0.00     0.020 A 
HETATM   27  C   UNL     1      40.749 -11.252  -0.292  1.00  0.00     0.012 A 
ENDBRANCH  21  22
ENDBRANCH   2  21
BRANCH  10  28
HETATM   28  C   UNL     1      42.195 -16.140   4.950  1.00  0.00     0.028 A 
HETATM   29  C   UNL     1      41.385 -16.079   6.091  1.00  0.00     0.078 A 
HETATM   30  C   UNL     1      41.946 -15.936   7.359  1.00  0.00     0.037 A 
HETATM   31  C   UNL     1      43.332 -15.883   7.503  1.00  0.00     0.003 A 
HETATM   32  C   UNL     1      44.155 -15.976   6.381  1.00  0.00     0.001 A 
HETATM   33  C   UNL     1      43.588 -16.104   5.109  1.00  0.00     0.017 A 
BRANCH  29  34
HETATM   34  O   UNL     1      40.019 -16.160   6.036  1.00  0.00    -0.360 OA
HETATM   35  H   UNL     1      39.785 -16.428   5.128  1.00  0.00     0.217 HD
ENDBRANCH  29  34
ENDBRANCH  10  28
TORSDOF 8
ENDMDL
MODEL 6
REMARK VINA RESULT:      -7.9      3.115      6.626
REMARK  8 active torsions:
REMARK  status: ('A' for Active; 'I' for Inactive)
REMARK    1  A    between atoms: C_2  and  C_3 
REMARK    2  A    between atoms: C_3  and  O_4 
REMARK    3  A    between atoms: O_4  and  C_5 
REMARK    4  A    between atoms: C_8  and  C_9 
REMARK    5  A    between atoms: N_10  and  C_11 
REMARK    6  A    between atoms: C_11  and  C_12 
REMARK    7  A    between atoms: C_25  and  C_26 
REMARK    8  A    between atoms: C_27  and  O_28 
ROOT
HETATM    1  C   UNL     1      40.789 -11.899   5.248  1.00  0.00     0.159 A 
HETATM    2  N   UNL     1      40.986 -10.506   5.733  1.00  0.00    -0.329 N 
HETATM    3  C   UNL     1      41.429  -9.620   4.741  1.00  0.00     0.273 A 
HETATM    4  O   UNL     1      41.600  -8.417   4.819  1.00  0.00    -0.266 OA
HETATM    5  C   UNL     1      41.617 -10.451   3.611  1.00  0.00     0.129 A 
HETATM    6  C   UNL     1      41.277 -11.746   3.858  1.00  0.00     0.034 A 
HETATM    7  N   UNL     1      42.072 -10.380   2.351  1.00  0.00    -0.272 N 
HETATM    8  H   UNL     1      42.416  -9.575   1.835  1.00  0.00     0.189 HD
HETATM    9  N   UNL     1      42.078 -11.602   1.754  1.00  0.00    -0.173 NA
HETATM   10  C   UNL     1      41.605 -12.455   2.693  1.00  0.00     0.101 A 
ENDROOT
BRANCH   1  11
HETATM   11  C   UNL     1      41.669 -12.940   5.898  1.00  0.00    -0.030 A 
HETATM   12  C   UNL     1      41.097 -14.167   6.279  1.00  0.00     0.012 A 
HETATM   13  C   UNL     1      41.897 -15.220   6.720  1.00  0.00     0.037 A 
HETATM   14  C   UNL     1      43.278 -15.062   6.771  1.00  0.00     0.069 A 
HETATM   15  C   UNL     1      43.860 -13.830   6.481  1.00  0.00     0.037 A 
HETATM   16  C   UNL     1      43.058 -12.773   6.046  1.00  0.00     0.012 A 
BRANCH  14  17
HETATM   17  O   UNL     1      44.026 -16.159   7.107  1.00  0.00    -0.348 OA
BRANCH  17  18
HETATM   18  C   UNL     1      43.552 -17.330   6.427  1.00  0.00     0.202 C 
BRANCH  18  19
HETATM   19  C   UNL     1      44.345 -17.477   5.164  1.00  0.00    -0.011 C 
HETATM   20  C   UNL     1      44.345 -18.563   4.380  1.00  0.00     0.009 C 
ENDBRANCH  18  19
ENDBRANCH  17  18
ENDBRANCH  14  17
ENDBRANCH   1  11
BRANCH   2  21
HETATM   21  C   UNL     1      40.448 -10.056   6.998  1.00  0.00     0.167 C 
BRANCH  21  22
HETATM   22  C   UNL     1      41.528  -9.591   7.934  1.00  0.00    -0.023 A 
HETATM   23  C   UNL     1      41.234  -8.794   9.036  1.00  0.00     0.125 A 
HETATM   24  N   UNL     1      42.162  -8.312   9.893  1.00  0.00    -0.273 NA
HETATM   25  C   UNL     1      43.448  -8.642   9.648  1.00  0.00     0.116 A 
HETATM   26  C   UNL     1      43.848  -9.432   8.583  1.00  0.00     0.020 A 
HETATM   27  C   UNL     1      42.872  -9.910   7.715  1.00  0.00     0.012 A 
ENDBRANCH  21  22
ENDBRANCH   2  21
BRANCH  10  28
HETATM   28  C   UNL     1      41.544 -13.894   2.478  1.00  0.00     0.028 A 
HETATM   29  C   UNL     1      40.342 -14.610   2.545  1.00  0.00     0.078 A 
HETATM   30  C   UNL     1      40.334 -16.002   2.481  1.00  0.00     0.037 A 
HETATM   31  C   UNL     1      41.532 -16.697   2.316  1.00  0.00     0.003 A 
HETATM   32  C   UNL     1      42.735 -15.998   2.213  1.00  0.00     0.001 A 
HETATM   33  C   UNL     1      42.741 -14.603   2.294  1.00  0.00     0.017 A 
BRANCH  29  34
HETATM   34  O   UNL     1      39.122 -13.999   2.671  1.00  0.00    -0.360 OA
HETATM   35  H   UNL     1      38.805 -14.176   3.575  1.00  0.00     0.217 HD
ENDBRANCH  29  34
ENDBRANCH  10  28
TORSDOF 8
ENDMDL
MODEL 7
REMARK VINA RESULT:      -7.8      6.299      9.412
REMARK  8 active torsions:
REMARK  status: ('A' for Active; 'I' for Inactive)
REMARK    1  A    between atoms: C_2  and  C_3 
REMARK    2  A    between atoms: C_3  and  O_4 
REMARK    3  A    between atoms: O_4  and  C_5 
REMARK    4  A    between atoms: C_8  and  C_9 
REMARK    5  A    between atoms: N_10  and  C_11 
REMARK    6  A    between atoms: C_11  and  C_12 
REMARK    7  A    between atoms: C_25  and  C_26 
REMARK    8  A    between atoms: C_27  and  O_28 
ROOT
HETATM    1  C   UNL     1      42.615 -10.621   7.651  1.00  0.00     0.159 A 
HETATM    2  N   UNL     1      43.087 -10.886   6.266  1.00  0.00    -0.329 N 
HETATM    3  C   UNL     1      44.482 -10.968   6.150  1.00  0.00     0.273 A 
HETATM    4  O   UNL     1      45.148 -11.249   5.170  1.00  0.00    -0.266 OA
HETATM    5  C   UNL     1      44.943 -10.661   7.452  1.00  0.00     0.129 A 
HETATM    6  C   UNL     1      43.921 -10.449   8.327  1.00  0.00     0.034 A 
HETATM    7  N   UNL     1      46.095 -10.468   8.113  1.00  0.00    -0.272 N 
HETATM    8  H   UNL     1      47.050 -10.535   7.774  1.00  0.00     0.189 HD
HETATM    9  N   UNL     1      45.873 -10.099   9.403  1.00  0.00    -0.173 NA
HETATM   10  C   UNL     1      44.526 -10.066   9.533  1.00  0.00     0.101 A 
ENDROOT
BRANCH   1  11
HETATM   11  C   UNL     1      41.862  -9.326   7.840  1.00  0.00    -0.030 A 
HETATM   12  C   UNL     1      40.770  -9.301   8.726  1.00  0.00     0.012 A 
HETATM   13  C   UNL     1      40.155  -8.097   9.066  1.00  0.00     0.037 A 
HETATM   14  C   UNL     1      40.635  -6.904   8.537  1.00  0.00     0.069 A 
HETATM   15  C   UNL     1      41.659  -6.911   7.592  1.00  0.00     0.037 A 
HETATM   16  C   UNL     1      42.270  -8.117   7.245  1.00  0.00     0.012 A 
BRANCH  14  17
HETATM   17  O   UNL     1      40.067  -5.742   8.985  1.00  0.00    -0.348 OA
BRANCH  17  18
HETATM   18  C   UNL     1      40.440  -5.481  10.345  1.00  0.00     0.202 C 
BRANCH  18  19
HETATM   19  C   UNL     1      41.436  -4.360  10.338  1.00  0.00    -0.011 C 
HETATM   20  C   UNL     1      42.753  -4.503  10.536  1.00  0.00     0.009 C 
ENDBRANCH  18  19
ENDBRANCH  17  18
ENDBRANCH  14  17
ENDBRANCH   1  11
BRANCH   2  21
HETATM   21  C   UNL     1      42.190 -11.349   5.229  1.00  0.00     0.167 C 
BRANCH  21  22
HETATM   22  C   UNL     1      41.580 -12.681   5.567  1.00  0.00    -0.023 A 
HETATM   23  C   UNL     1      40.287 -12.775   6.071  1.00  0.00     0.125 A 
HETATM   24  N   UNL     1      39.694 -13.936   6.429  1.00  0.00    -0.273 NA
HETATM   25  C   UNL     1      40.421 -15.064   6.276  1.00  0.00     0.116 A 
HETATM   26  C   UNL     1      41.714 -15.082   5.781  1.00  0.00     0.020 A 
HETATM   27  C   UNL     1      42.299 -13.871   5.424  1.00  0.00     0.012 A 
ENDBRANCH  21  22
ENDBRANCH   2  21
BRANCH  10  28
HETATM   28  C   UNL     1      43.872  -9.616  10.755  1.00  0.00     0.028 A 
HETATM   29  C   UNL     1      43.446 -10.510  11.746  1.00  0.00     0.078 A 
HETATM   30  C   UNL     1      42.695 -10.065  12.833  1.00  0.00     0.037 A 
HETATM   31  C   UNL     1      42.387  -8.711  12.958  1.00  0.00     0.003 A 
HETATM   32  C   UNL     1      42.833  -7.803  11.998  1.00  0.00     0.001 A 
HETATM   33  C   UNL     1      43.572  -8.254  10.901  1.00  0.00     0.017 A 
BRANCH  29  34
HETATM   34  O   UNL     1      43.738 -11.848  11.714  1.00  0.00    -0.360 OA
HETATM   35  H   UNL     1      42.927 -12.324  11.971  1.00  0.00     0.217 HD
ENDBRANCH  29  34
ENDBRANCH  10  28
TORSDOF 8
ENDMDL
MODEL 8
REMARK VINA RESULT:      -7.7      3.508      5.044
REMARK  8 active torsions:
REMARK  status: ('A' for Active; 'I' for Inactive)
REMARK    1  A    between atoms: C_2  and  C_3 
REMARK    2  A    between atoms: C_3  and  O_4 
REMARK    3  A    between atoms: O_4  and  C_5 
REMARK    4  A    between atoms: C_8  and  C_9 
REMARK    5  A    between atoms: N_10  and  C_11 
REMARK    6  A    between atoms: C_11  and  C_12 
REMARK    7  A    between atoms: C_25  and  C_26 
REMARK    8  A    between atoms: C_27  and  O_28 
ROOT
HETATM    1  C   UNL     1      43.036 -10.789   4.982  1.00  0.00     0.159 A 
HETATM    2  N   UNL     1      42.152 -10.708   3.788  1.00  0.00    -0.329 N 
HETATM    3  C   UNL     1      41.185  -9.696   3.869  1.00  0.00     0.273 A 
HETATM    4  O   UNL     1      40.383  -9.342   3.023  1.00  0.00    -0.266 OA
HETATM    5  C   UNL     1      41.369  -9.162   5.166  1.00  0.00     0.129 A 
HETATM    6  C   UNL     1      42.397  -9.757   5.831  1.00  0.00     0.034 A 
HETATM    7  N   UNL     1      40.817  -8.258   5.991  1.00  0.00    -0.272 N 
HETATM    8  H   UNL     1      40.029  -7.637   5.830  1.00  0.00     0.189 HD
HETATM    9  N   UNL     1      41.427  -8.255   7.206  1.00  0.00    -0.173 NA
HETATM   10  C   UNL     1      42.394  -9.198   7.117  1.00  0.00     0.101 A 
ENDROOT
BRANCH   1  11
HETATM   11  C   UNL     1      42.961 -12.084   5.754  1.00  0.00    -0.030 A 
HETATM   12  C   UNL     1      41.708 -12.700   5.925  1.00  0.00     0.012 A 
HETATM   13  C   UNL     1      41.609 -13.977   6.475  1.00  0.00     0.037 A 
HETATM   14  C   UNL     1      42.762 -14.658   6.846  1.00  0.00     0.069 A 
HETATM   15  C   UNL     1      44.007 -14.038   6.768  1.00  0.00     0.037 A 
HETATM   16  C   UNL     1      44.106 -12.755   6.223  1.00  0.00     0.012 A 
BRANCH  14  17
HETATM   17  O   UNL     1      42.620 -15.948   7.280  1.00  0.00    -0.348 OA
BRANCH  17  18
HETATM   18  C   UNL     1      42.382 -16.836   6.178  1.00  0.00     0.202 C 
BRANCH  18  19
HETATM   19  C   UNL     1      43.700 -17.430   5.779  1.00  0.00    -0.011 C 
HETATM   20  C   UNL     1      43.922 -18.111   4.647  1.00  0.00     0.009 C 
ENDBRANCH  18  19
ENDBRANCH  17  18
ENDBRANCH  14  17
ENDBRANCH   1  11
BRANCH   2  21
HETATM   21  C   UNL     1      42.483 -11.374   2.547  1.00  0.00     0.167 C 
BRANCH  21  22
HETATM   22  C   UNL     1      42.142 -12.837   2.587  1.00  0.00    -0.023 A 
HETATM   23  C   UNL     1      40.821 -13.272   2.563  1.00  0.00     0.125 A 
HETATM   24  N   UNL     1      40.446 -14.569   2.633  1.00  0.00    -0.273 NA
HETATM   25  C   UNL     1      41.435 -15.484   2.728  1.00  0.00     0.116 A 
HETATM   26  C   UNL     1      42.780 -15.160   2.755  1.00  0.00     0.020 A 
HETATM   27  C   UNL     1      43.135 -13.816   2.685  1.00  0.00     0.012 A 
ENDBRANCH  21  22
ENDBRANCH   2  21
BRANCH  10  28
HETATM   28  C   UNL     1      43.221  -9.575   8.255  1.00  0.00     0.028 A 
HETATM   29  C   UNL     1      42.684  -9.791   9.531  1.00  0.00     0.078 A 
HETATM   30  C   UNL     1      43.515 -10.007  10.629  1.00  0.00     0.037 A 
HETATM   31  C   UNL     1      44.899 -10.040  10.457  1.00  0.00     0.003 A 
HETATM   32  C   UNL     1      45.449  -9.860   9.189  1.00  0.00     0.001 A 
HETATM   33  C   UNL     1      44.613  -9.628   8.092  1.00  0.00     0.017 A 
BRANCH  29  34
HETATM   34  O   UNL     1      41.336  -9.810   9.775  1.00  0.00    -0.360 OA
HETATM   35  H   UNL     1      41.178  -9.236  10.547  1.00  0.00     0.217 HD
ENDBRANCH  29  34
ENDBRANCH  10  28
TORSDOF 8
ENDMDL
MODEL 9
REMARK VINA RESULT:      -7.5     15.188     16.738
REMARK  8 active torsions:
REMARK  status: ('A' for Active; 'I' for Inactive)
REMARK    1  A    between atoms: C_2  and  C_3 
REMARK    2  A    between atoms: C_3  and  O_4 
REMARK    3  A    between atoms: O_4  and  C_5 
REMARK    4  A    between atoms: C_8  and  C_9 
REMARK    5  A    between atoms: N_10  and  C_11 
REMARK    6  A    between atoms: C_11  and  C_12 
REMARK    7  A    between atoms: C_25  and  C_26 
REMARK    8  A    between atoms: C_27  and  O_28 
ROOT
HETATM    1  C   UNL     1      45.214 -30.234  -1.603  1.00  0.00     0.159 A 
HETATM    2  N   UNL     1      44.705 -29.562  -2.828  1.00  0.00    -0.329 N 
HETATM    3  C   UNL     1      45.433 -28.419  -3.189  1.00  0.00     0.273 A 
HETATM    4  O   UNL     1      45.303 -27.716  -4.175  1.00  0.00    -0.266 OA
HETATM    5  C   UNL     1      46.375 -28.280  -2.143  1.00  0.00     0.129 A 
HETATM    6  C   UNL     1      46.279 -29.278  -1.222  1.00  0.00     0.034 A 
HETATM    7  N   UNL     1      47.334 -27.435  -1.733  1.00  0.00    -0.272 N 
HETATM    8  H   UNL     1      47.669 -26.581  -2.169  1.00  0.00     0.189 HD
HETATM    9  N   UNL     1      47.863 -27.823  -0.542  1.00  0.00    -0.173 NA
HETATM   10  C   UNL     1      47.196 -28.954  -0.212  1.00  0.00     0.101 A 
ENDROOT
BRANCH   1  11
HETATM   11  C   UNL     1      44.248 -30.282  -0.443  1.00  0.00    -0.030 A 
HETATM   12  C   UNL     1      44.251 -31.413   0.394  1.00  0.00     0.012 A 
HETATM   13  C   UNL     1      43.506 -31.430   1.573  1.00  0.00     0.037 A 
HETATM   14  C   UNL     1      42.762 -30.312   1.933  1.00  0.00     0.069 A 
HETATM   15  C   UNL     1      42.673 -29.215   1.079  1.00  0.00     0.037 A 
HETATM   16  C   UNL     1      43.414 -29.200  -0.105  1.00  0.00     0.012 A 
BRANCH  14  17
HETATM   17  O   UNL     1      42.135 -30.338   3.150  1.00  0.00    -0.348 OA
BRANCH  17  18
HETATM   18  C   UNL     1      40.922 -31.102   3.085  1.00  0.00     0.202 C 
BRANCH  18  19
HETATM   19  C   UNL     1      40.511 -31.423   4.491  1.00  0.00    -0.011 C 
HETATM   20  C   UNL     1      41.306 -31.325   5.564  1.00  0.00     0.009 C 
ENDBRANCH  18  19
ENDBRANCH  17  18
ENDBRANCH  14  17
ENDBRANCH   1  11
BRANCH   2  21
HETATM   21  C   UNL     1      43.781 -30.215  -3.729  1.00  0.00     0.167 C 
BRANCH  21  22
HETATM   22  C   UNL     1      44.483 -30.825  -4.910  1.00  0.00    -0.023 A 
HETATM   23  C   UNL     1      43.924 -30.782  -6.183  1.00  0.00     0.125 A 
HETATM   24  N   UNL     1      44.485 -31.342  -7.278  1.00  0.00    -0.273 NA
HETATM   25  C   UNL     1      45.665 -31.975  -7.102  1.00  0.00     0.116 A 
HETATM   26  C   UNL     1      46.308 -32.073  -5.880  1.00  0.00     0.020 A 
HETATM   27  C   UNL     1      45.705 -31.489  -4.770  1.00  0.00     0.012 A 
ENDBRANCH  21  22
ENDBRANCH   2  21
BRANCH  10  28
HETATM   28  C   UNL     1      47.403 -29.638   1.058  1.00  0.00     0.028 A 
HETATM   29  C   UNL     1      46.834 -29.182   2.254  1.00  0.00     0.078 A 
HETATM   30  C   UNL     1      47.166 -29.770   3.473  1.00  0.00     0.037 A 
HETATM   31  C   UNL     1      48.051 -30.847   3.507  1.00  0.00     0.003 A 
HETATM   32  C   UNL     1      48.600 -31.336   2.322  1.00  0.00     0.001 A 
HETATM   33  C   UNL     1      48.277 -30.734   1.102  1.00  0.00     0.017 A 
BRANCH  29  34
HETATM   34  O   UNL     1      45.931 -28.153   2.300  1.00  0.00    -0.360 OA
HETATM   35  H   UNL     1      46.373 -27.367   1.929  1.00  0.00     0.217 HD
ENDBRANCH  29  34
ENDBRANCH  10  28
TORSDOF 8
ENDMDL
MODEL 10
REMARK VINA RESULT:      -7.5      7.663     11.553
REMARK  8 active torsions:
REMARK  status: ('A' for Active; 'I' for Inactive)
REMARK    1  A    between atoms: C_2  and  C_3 
REMARK    2  A    between atoms: C_3  and  O_4 
REMARK    3  A    between atoms: O_4  and  C_5 
REMARK    4  A    between atoms: C_8  and  C_9 
REMARK    5  A    between atoms: N_10  and  C_11 
REMARK    6  A    between atoms: C_11  and  C_12 
REMARK    7  A    between atoms: C_25  and  C_26 
REMARK    8  A    between atoms: C_27  and  O_28 
ROOT
HETATM    1  C   UNL     1      43.032  -7.924  11.350  1.00  0.00     0.159 A 
HETATM    2  N   UNL     1      42.114  -7.877  12.520  1.00  0.00    -0.329 N 
HETATM    3  C   UNL     1      42.042  -9.084  13.231  1.00  0.00     0.273 A 
HETATM    4  O   UNL     1      41.444  -9.322  14.264  1.00  0.00    -0.266 OA
HETATM    5  C   UNL     1      42.846  -9.966  12.471  1.00  0.00     0.129 A 
HETATM    6  C   UNL     1      43.416  -9.354  11.396  1.00  0.00     0.034 A 
HETATM    7  N   UNL     1      43.209 -11.258  12.446  1.00  0.00    -0.272 N 
HETATM    8  H   UNL     1      42.966 -12.008  13.088  1.00  0.00     0.189 HD
HETATM    9  N   UNL     1      43.981 -11.538  11.362  1.00  0.00    -0.173 NA
HETATM   10  C   UNL     1      44.094 -10.364  10.698  1.00  0.00     0.101 A 
ENDROOT
BRANCH   1  11
HETATM   11  C   UNL     1      42.378  -7.701  10.007  1.00  0.00    -0.030 A 
HETATM   12  C   UNL     1      41.287  -8.510   9.642  1.00  0.00     0.012 A 
HETATM   13  C   UNL     1      40.543  -8.230   8.497  1.00  0.00     0.037 A 
HETATM   14  C   UNL     1      40.873  -7.131   7.712  1.00  0.00     0.069 A 
HETATM   15  C   UNL     1      42.000  -6.365   8.005  1.00  0.00     0.037 A 
HETATM   16  C   UNL     1      42.750  -6.650   9.149  1.00  0.00     0.012 A 
BRANCH  14  17
HETATM   17  O   UNL     1      40.048  -6.836   6.661  1.00  0.00    -0.348 OA
BRANCH  17  18
HETATM   18  C   UNL     1      39.044  -7.849   6.498  1.00  0.00     0.202 C 
BRANCH  18  19
HETATM   19  C   UNL     1      39.104  -8.326   5.078  1.00  0.00    -0.011 C 
HETATM   20  C   UNL     1      40.160  -8.927   4.515  1.00  0.00     0.009 C 
ENDBRANCH  18  19
ENDBRANCH  17  18
ENDBRANCH  14  17
ENDBRANCH   1  11
BRANCH   2  21
HETATM   21  C   UNL     1      41.625  -6.626  13.056  1.00  0.00     0.167 C 
BRANCH  21  22
HETATM   22  C   UNL     1      40.146  -6.463  12.842  1.00  0.00    -0.023 A 
HETATM   23  C   UNL     1      39.234  -6.750  13.852  1.00  0.00     0.125 A 
HETATM   24  N   UNL     1      37.893  -6.660  13.712  1.00  0.00    -0.273 NA
HETATM   25  C   UNL     1      37.431  -6.260  12.508  1.00  0.00     0.116 A 
HETATM   26  C   UNL     1      38.250  -5.946  11.438  1.00  0.00     0.020 A 
HETATM   27  C   UNL     1      39.627  -6.051  11.610  1.00  0.00     0.012 A 
ENDBRANCH  21  22
ENDBRANCH   2  21
BRANCH  10  28
HETATM   28  C   UNL     1      44.773 -10.257   9.413  1.00  0.00     0.028 A 
HETATM   29  C   UNL     1      44.591 -11.199   8.392  1.00  0.00     0.078 A 
HETATM   30  C   UNL     1      45.363 -11.152   7.232  1.00  0.00     0.037 A 
HETATM   31  C   UNL     1      46.307 -10.140   7.066  1.00  0.00     0.003 A 
HETATM   32  C   UNL     1      46.477  -9.174   8.058  1.00  0.00     0.001 A 
HETATM   33  C   UNL     1      45.713  -9.233   9.227  1.00  0.00     0.017 A 
BRANCH  29  34
HETATM   34  O   UNL     1      43.660 -12.202   8.464  1.00  0.00    -0.360 OA
HETATM   35  H   UNL     1      43.999 -12.860   9.098  1.00  0.00     0.217 HD
ENDBRANCH  29  34
ENDBRANCH  10  28
TORSDOF 8
ENDMDL
