MODEL 1
REMARK VINA RESULT:     -10.2      0.000      0.000
REMARK  6 active torsions:
REMARK  status: ('A' for Active; 'I' for Inactive)
REMARK    1  A    between atoms: C_4  and  C_5 
REMARK    2  A    between atoms: C_6  and  N_7 
REMARK    3  A    between atoms: C_9  and  C_10 
REMARK       I    between atoms: C_10  and  N_11 
REMARK    4  A    between atoms: N_11  and  C_12 
REMARK    5  A    between atoms: C_12  and  C_13 
REMARK    6  A    between atoms: C_13  and  N_14 
ROOT
HETATM    1  C   UNL     1      42.470 -16.312   4.462  1.00  0.00     0.019 A 
HETATM    2  C   UNL     1      42.335 -15.661   5.651  1.00  0.00     0.111 A 
HETATM    3  C   UNL     1      42.861 -16.338   6.919  1.00  0.00     0.273 A 
HETATM    4  O   UNL     1      42.823 -15.796   8.025  1.00  0.00    -0.266 OA
HETATM    5  N   UNL     1      43.387 -17.590   6.807  1.00  0.00    -0.321 N 
HETATM    6  C   UNL     1      43.507 -18.278   5.605  1.00  0.00     0.046 A 
HETATM    7  C   UNL     1      43.076 -17.672   4.420  1.00  0.00     0.006 A 
HETATM    8  C   UNL     1      44.062 -19.560   5.610  1.00  0.00     0.032 A 
HETATM    9  C   UNL     1      44.197 -20.259   4.412  1.00  0.00     0.026 A 
HETATM   10  C   UNL     1      43.783 -19.668   3.222  1.00  0.00     0.035 A 
HETATM   11 CL   UNL     1      43.950 -20.527   1.741  1.00  0.00    -0.084 Cl
HETATM   12  C   UNL     1      43.230 -18.385   3.220  1.00  0.00     0.038 A 
HETATM   13  H   UNL     1      43.704 -18.009   7.671  1.00  0.00     0.169 HD
ENDROOT
BRANCH   2  14
HETATM   14  N   UNL     1      41.709 -14.391   5.796  1.00  0.00    -0.375 N 
HETATM   15  C   UNL     1      42.458 -13.258   6.371  1.00  0.00     0.137 C 
HETATM   16  C   UNL     1      41.844 -11.933   5.909  1.00  0.00     0.096 C 
HETATM   17  C   UNL     1      40.355 -11.874   6.274  1.00  0.00     0.017 C 
HETATM   18  C   UNL     1      39.619 -13.104   5.748  1.00  0.00     0.021 C 
HETATM   19  C   UNL     1      40.292 -14.388   6.224  1.00  0.00     0.123 C 
BRANCH  16  20
HETATM   20  C   UNL     1      42.618 -10.804   6.569  1.00  0.00     0.223 C 
HETATM   21  N   UNL     1      43.326 -11.165   7.692  1.00  0.00    -0.359 N 
HETATM   22  H   UNL     1      43.201 -12.120   8.022  1.00  0.00     0.162 HD
HETATM   23  O   UNL     1      42.602  -9.641   6.167  1.00  0.00    -0.273 OA
BRANCH  21  24
HETATM   24  C   UNL     1      43.911 -10.224   8.644  1.00  0.00     0.150 C 
BRANCH  24  25
HETATM   25  C   UNL     1      43.878 -10.629  10.136  1.00  0.00     0.254 C 
BRANCH  25  26
HETATM   26  N   UNL     1      42.549 -10.354  10.797  1.00  0.00    -0.066 N 
HETATM   27  H   UNL     1      41.970 -11.205  10.629  1.00  0.00     0.280 HD
HETATM   28  C   UNL     1      42.606 -10.175  12.304  1.00  0.00     0.261 C 
HETATM   29  C   UNL     1      41.190  -9.971  12.853  1.00  0.00     0.195 C 
HETATM   30  O   UNL     1      40.557  -8.848  12.229  1.00  0.00    -0.388 OA
HETATM   31  C   UNL     1      40.423  -9.047  10.816  1.00  0.00     0.195 C 
HETATM   32  C   UNL     1      41.795  -9.203  10.152  1.00  0.00     0.261 C 
ENDBRANCH  25  26
ENDBRANCH  24  25
ENDBRANCH  21  24
ENDBRANCH  16  20
ENDBRANCH   2  14
BRANCH   1  33
HETATM   33  C   UNL     1      42.017 -15.608   3.231  1.00  0.00    -0.023 A 
HETATM   34  C   UNL     1      40.759 -15.890   2.681  1.00  0.00     0.012 A 
HETATM   35  C   UNL     1      40.316 -15.205   1.547  1.00  0.00     0.001 A 
HETATM   36  C   UNL     1      41.126 -14.238   0.956  1.00  0.00     0.000 A 
HETATM   37  C   UNL     1      42.378 -13.949   1.497  1.00  0.00     0.001 A 
HETATM   38  C   UNL     1      42.822 -14.628   2.634  1.00  0.00     0.012 A 
ENDBRANCH   1  33
TORSDOF 6
ENDMDL
MODEL 2
REMARK VINA RESULT:     -10.0      0.819      1.275
REMARK  6 active torsions:
REMARK  status: ('A' for Active; 'I' for Inactive)
REMARK    1  A    between atoms: C_4  and  C_5 
REMARK    2  A    between atoms: C_6  and  N_7 
REMARK    3  A    between atoms: C_9  and  C_10 
REMARK       I    between atoms: C_10  and  N_11 
REMARK    4  A    between atoms: N_11  and  C_12 
REMARK    5  A    between atoms: C_12  and  C_13 
REMARK    6  A    between atoms: C_13  and  N_14 
ROOT
HETATM    1  C   UNL     1      42.495 -16.318   4.362  1.00  0.00     0.019 A 
HETATM    2  C   UNL     1      42.430 -15.668   5.557  1.00  0.00     0.111 A 
HETATM    3  C   UNL     1      43.004 -16.357   6.798  1.00  0.00     0.273 A 
HETATM    4  O   UNL     1      43.030 -15.817   7.904  1.00  0.00    -0.266 OA
HETATM    5  N   UNL     1      43.502 -17.618   6.658  1.00  0.00    -0.321 N 
HETATM    6  C   UNL     1      43.551 -18.305   5.451  1.00  0.00     0.046 A 
HETATM    7  C   UNL     1      43.074 -17.688   4.289  1.00  0.00     0.006 A 
HETATM    8  C   UNL     1      44.083 -19.597   5.426  1.00  0.00     0.032 A 
HETATM    9  C   UNL     1      44.146 -20.296   4.223  1.00  0.00     0.026 A 
HETATM   10  C   UNL     1      43.685 -19.694   3.055  1.00  0.00     0.035 A 
HETATM   11 CL   UNL     1      43.765 -20.553   1.566  1.00  0.00    -0.084 Cl
HETATM   12  C   UNL     1      43.157 -18.402   3.082  1.00  0.00     0.038 A 
HETATM   13  H   UNL     1      43.853 -18.044   7.505  1.00  0.00     0.169 HD
ENDROOT
BRANCH   2  14
HETATM   14  N   UNL     1      41.834 -14.387   5.734  1.00  0.00    -0.375 N 
HETATM   15  C   UNL     1      42.642 -13.258   6.230  1.00  0.00     0.137 C 
HETATM   16  C   UNL     1      42.010 -11.930   5.800  1.00  0.00     0.096 C 
HETATM   17  C   UNL     1      40.557 -11.845   6.284  1.00  0.00     0.017 C 
HETATM   18  C   UNL     1      39.764 -13.071   5.838  1.00  0.00     0.021 C 
HETATM   19  C   UNL     1      40.458 -14.358   6.276  1.00  0.00     0.123 C 
BRANCH  16  20
HETATM   20  C   UNL     1      42.850 -10.803   6.378  1.00  0.00     0.223 C 
HETATM   21  N   UNL     1      44.172 -11.118   6.594  1.00  0.00    -0.359 N 
HETATM   22  H   UNL     1      44.443 -12.085   6.430  1.00  0.00     0.162 HD
HETATM   23  O   UNL     1      42.399  -9.696   6.669  1.00  0.00    -0.273 OA
BRANCH  21  24
HETATM   24  C   UNL     1      45.099 -10.313   7.386  1.00  0.00     0.150 C 
BRANCH  24  25
HETATM   25  C   UNL     1      45.091 -10.540   8.915  1.00  0.00     0.254 C 
BRANCH  25  26
HETATM   26  N   UNL     1      43.876  -9.959   9.595  1.00  0.00    -0.066 N 
HETATM   27  H   UNL     1      43.062 -10.235   9.004  1.00  0.00     0.280 HD
HETATM   28  C   UNL     1      43.591 -10.509  10.983  1.00  0.00     0.261 C 
HETATM   29  C   UNL     1      42.301  -9.888  11.529  1.00  0.00     0.195 C 
HETATM   30  O   UNL     1      42.391  -8.459  11.555  1.00  0.00    -0.388 OA
HETATM   31  C   UNL     1      42.575  -7.927  10.237  1.00  0.00     0.195 C 
HETATM   32  C   UNL     1      43.879  -8.440   9.616  1.00  0.00     0.261 C 
ENDBRANCH  25  26
ENDBRANCH  24  25
ENDBRANCH  21  24
ENDBRANCH  16  20
ENDBRANCH   2  14
BRANCH   1  33
HETATM   33  C   UNL     1      41.995 -15.604   3.155  1.00  0.00    -0.023 A 
HETATM   34  C   UNL     1      42.814 -14.676   2.497  1.00  0.00     0.012 A 
HETATM   35  C   UNL     1      42.362 -14.031   1.344  1.00  0.00     0.001 A 
HETATM   36  C   UNL     1      41.092 -14.308   0.842  1.00  0.00     0.000 A 
HETATM   37  C   UNL     1      40.271 -15.232   1.488  1.00  0.00     0.001 A 
HETATM   38  C   UNL     1      40.722 -15.882   2.639  1.00  0.00     0.012 A 
ENDBRANCH   1  33
TORSDOF 6
ENDMDL
MODEL 3
REMARK VINA RESULT:      -9.0      1.833      2.436
REMARK  6 active torsions:
REMARK  status: ('A' for Active; 'I' for Inactive)
REMARK    1  A    between atoms: C_4  and  C_5 
REMARK    2  A    between atoms: C_6  and  N_7 
REMARK    3  A    between atoms: C_9  and  C_10 
REMARK       I    between atoms: C_10  and  N_11 
REMARK    4  A    between atoms: N_11  and  C_12 
REMARK    5  A    between atoms: C_12  and  C_13 
REMARK    6  A    between atoms: C_13  and  N_14 
ROOT
HETATM    1  C   UNL     1      42.509 -16.439   4.353  1.00  0.00     0.019 A 
HETATM    2  C   UNL     1      42.410 -15.789   5.546  1.00  0.00     0.111 A 
HETATM    3  C   UNL     1      42.956 -16.475   6.800  1.00  0.00     0.273 A 
HETATM    4  O   UNL     1      42.950 -15.936   7.907  1.00  0.00    -0.266 OA
HETATM    5  N   UNL     1      43.463 -17.734   6.673  1.00  0.00    -0.321 N 
HETATM    6  C   UNL     1      43.546 -18.420   5.467  1.00  0.00     0.046 A 
HETATM    7  C   UNL     1      43.096 -17.806   4.294  1.00  0.00     0.006 A 
HETATM    8  C   UNL     1      44.086 -19.710   5.457  1.00  0.00     0.032 A 
HETATM    9  C   UNL     1      44.183 -20.408   4.255  1.00  0.00     0.026 A 
HETATM   10  C   UNL     1      43.749 -19.808   3.076  1.00  0.00     0.035 A 
HETATM   11 CL   UNL     1      43.871 -20.666   1.590  1.00  0.00    -0.084 Cl
HETATM   12  C   UNL     1      43.213 -18.519   3.089  1.00  0.00     0.038 A 
HETATM   13  H   UNL     1      43.795 -18.159   7.529  1.00  0.00     0.169 HD
ENDROOT
BRANCH   2  14
HETATM   14  N   UNL     1      41.803 -14.511   5.707  1.00  0.00    -0.375 N 
HETATM   15  C   UNL     1      42.605 -13.365   6.173  1.00  0.00     0.137 C 
HETATM   16  C   UNL     1      41.955 -12.052   5.728  1.00  0.00     0.096 C 
HETATM   17  C   UNL     1      40.506 -11.973   6.228  1.00  0.00     0.017 C 
HETATM   18  C   UNL     1      39.721 -13.214   5.813  1.00  0.00     0.021 C 
HETATM   19  C   UNL     1      40.433 -14.486   6.265  1.00  0.00     0.123 C 
BRANCH  16  20
HETATM   20  C   UNL     1      42.790 -10.907   6.276  1.00  0.00     0.223 C 
HETATM   21  N   UNL     1      42.726 -10.743   7.641  1.00  0.00    -0.359 N 
HETATM   22  H   UNL     1      42.070 -11.340   8.141  1.00  0.00     0.162 HD
HETATM   23  O   UNL     1      43.455 -10.150   5.571  1.00  0.00    -0.273 OA
BRANCH  21  24
HETATM   24  C   UNL     1      43.206  -9.566   8.360  1.00  0.00     0.150 C 
BRANCH  24  25
HETATM   25  C   UNL     1      42.133  -8.613   8.936  1.00  0.00     0.254 C 
BRANCH  25  26
HETATM   26  N   UNL     1      42.093  -7.274   8.241  1.00  0.00    -0.066 N 
HETATM   27  H   UNL     1      43.075  -6.922   8.251  1.00  0.00     0.280 HD
HETATM   28  C   UNL     1      41.679  -7.321   6.780  1.00  0.00     0.261 C 
HETATM   29  C   UNL     1      41.746  -5.912   6.180  1.00  0.00     0.195 C 
HETATM   30  O   UNL     1      40.920  -5.003   6.917  1.00  0.00    -0.388 OA
HETATM   31  C   UNL     1      41.358  -4.889   8.277  1.00  0.00     0.195 C 
HETATM   32  C   UNL     1      41.273  -6.241   8.994  1.00  0.00     0.261 C 
ENDBRANCH  25  26
ENDBRANCH  24  25
ENDBRANCH  21  24
ENDBRANCH  16  20
ENDBRANCH   2  14
BRANCH   1  33
HETATM   33  C   UNL     1      42.036 -15.727   3.133  1.00  0.00    -0.023 A 
HETATM   34  C   UNL     1      40.768 -16.002   2.604  1.00  0.00     0.012 A 
HETATM   35  C   UNL     1      40.308 -15.310   1.482  1.00  0.00     0.001 A 
HETATM   36  C   UNL     1      41.109 -14.341   0.883  1.00  0.00     0.000 A 
HETATM   37  C   UNL     1      42.371 -14.058   1.404  1.00  0.00     0.001 A 
HETATM   38  C   UNL     1      42.833 -14.744   2.529  1.00  0.00     0.012 A 
ENDBRANCH   1  33
TORSDOF 6
ENDMDL
MODEL 4
REMARK VINA RESULT:      -8.4      3.043      4.616
REMARK  6 active torsions:
REMARK  status: ('A' for Active; 'I' for Inactive)
REMARK    1  A    between atoms: C_4  and  C_5 
REMARK    2  A    between atoms: C_6  and  N_7 
REMARK    3  A    between atoms: C_9  and  C_10 
REMARK       I    between atoms: C_10  and  N_11 
REMARK    4  A    between atoms: N_11  and  C_12 
REMARK    5  A    between atoms: C_12  and  C_13 
REMARK    6  A    between atoms: C_13  and  N_14 
ROOT
HETATM    1  C   UNL     1      41.566 -13.042   4.132  1.00  0.00     0.019 A 
HETATM    2  C   UNL     1      40.553 -12.144   3.982  1.00  0.00     0.111 A 
HETATM    3  C   UNL     1      39.333 -12.549   3.152  1.00  0.00     0.273 A 
HETATM    4  O   UNL     1      38.354 -11.815   3.009  1.00  0.00    -0.266 OA
HETATM    5  N   UNL     1      39.344 -13.772   2.551  1.00  0.00    -0.321 N 
HETATM    6  C   UNL     1      40.381 -14.688   2.673  1.00  0.00     0.046 A 
HETATM    7  C   UNL     1      41.493 -14.369   3.459  1.00  0.00     0.006 A 
HETATM    8  C   UNL     1      40.284 -15.915   2.009  1.00  0.00     0.032 A 
HETATM    9  C   UNL     1      41.312 -16.848   2.127  1.00  0.00     0.026 A 
HETATM   10  C   UNL     1      42.422 -16.550   2.914  1.00  0.00     0.035 A 
HETATM   11 CL   UNL     1      43.692 -17.701   3.065  1.00  0.00    -0.084 Cl
HETATM   12  C   UNL     1      42.514 -15.325   3.578  1.00  0.00     0.038 A 
HETATM   13  H   UNL     1      38.528 -13.992   1.996  1.00  0.00     0.169 HD
ENDROOT
BRANCH   2  14
HETATM   14  N   UNL     1      40.567 -10.830   4.532  1.00  0.00    -0.375 N 
HETATM   15  C   UNL     1      39.834 -10.543   5.778  1.00  0.00     0.137 C 
HETATM   16  C   UNL     1      40.434  -9.314   6.470  1.00  0.00     0.096 C 
HETATM   17  C   UNL     1      40.436  -8.110   5.520  1.00  0.00     0.017 C 
HETATM   18  C   UNL     1      41.118  -8.461   4.201  1.00  0.00     0.021 C 
HETATM   19  C   UNL     1      40.490  -9.704   3.576  1.00  0.00     0.123 C 
BRANCH  16  20
HETATM   20  C   UNL     1      39.612  -9.032   7.717  1.00  0.00     0.223 C 
HETATM   21  N   UNL     1      39.895  -9.840   8.793  1.00  0.00    -0.359 N 
HETATM   22  H   UNL     1      40.558 -10.597   8.634  1.00  0.00     0.162 HD
HETATM   23  O   UNL     1      38.732  -8.174   7.773  1.00  0.00    -0.273 OA
BRANCH  21  24
HETATM   24  C   UNL     1      39.065  -9.951   9.991  1.00  0.00     0.150 C 
BRANCH  24  25
HETATM   25  C   UNL     1      39.799  -9.939  11.352  1.00  0.00     0.254 C 
BRANCH  25  26
HETATM   26  N   UNL     1      41.099  -9.173  11.319  1.00  0.00    -0.066 N 
HETATM   27  H   UNL     1      41.207  -8.843  10.336  1.00  0.00     0.280 HD
HETATM   28  C   UNL     1      41.133  -7.926  12.187  1.00  0.00     0.261 C 
HETATM   29  C   UNL     1      42.476  -7.211  12.010  1.00  0.00     0.195 C 
HETATM   30  O   UNL     1      43.566  -8.084  12.328  1.00  0.00    -0.388 OA
HETATM   31  C   UNL     1      43.591  -9.222  11.457  1.00  0.00     0.195 C 
HETATM   32  C   UNL     1      42.308 -10.049  11.599  1.00  0.00     0.261 C 
ENDBRANCH  25  26
ENDBRANCH  24  25
ENDBRANCH  21  24
ENDBRANCH  16  20
ENDBRANCH   2  14
BRANCH   1  33
HETATM   33  C   UNL     1      42.713 -12.657   5.001  1.00  0.00    -0.023 A 
HETATM   34  C   UNL     1      42.809 -13.161   6.305  1.00  0.00     0.012 A 
HETATM   35  C   UNL     1      43.901 -12.830   7.109  1.00  0.00     0.001 A 
HETATM   36  C   UNL     1      44.903 -11.996   6.617  1.00  0.00     0.000 A 
HETATM   37  C   UNL     1      44.817 -11.492   5.320  1.00  0.00     0.001 A 
HETATM   38  C   UNL     1      43.728 -11.824   4.511  1.00  0.00     0.012 A 
ENDBRANCH   1  33
TORSDOF 6
ENDMDL
MODEL 5
REMARK VINA RESULT:      -8.2      4.028      9.957
REMARK  6 active torsions:
REMARK  status: ('A' for Active; 'I' for Inactive)
REMARK    1  A    between atoms: C_4  and  C_5 
REMARK    2  A    between atoms: C_6  and  N_7 
REMARK    3  A    between atoms: C_9  and  C_10 
REMARK       I    between atoms: C_10  and  N_11 
REMARK    4  A    between atoms: N_11  and  C_12 
REMARK    5  A    between atoms: C_12  and  C_13 
REMARK    6  A    between atoms: C_13  and  N_14 
ROOT
HETATM    1  C   UNL     1      42.312  -8.823  10.449  1.00  0.00     0.019 A 
HETATM    2  C   UNL     1      43.228  -9.827  10.360  1.00  0.00     0.111 A 
HETATM    3  C   UNL     1      43.563 -10.626  11.622  1.00  0.00     0.273 A 
HETATM    4  O   UNL     1      44.341 -11.580  11.617  1.00  0.00    -0.266 OA
HETATM    5  N   UNL     1      42.970 -10.254  12.792  1.00  0.00    -0.321 N 
HETATM    6  C   UNL     1      42.054  -9.215  12.904  1.00  0.00     0.046 A 
HETATM    7  C   UNL     1      41.693  -8.491  11.763  1.00  0.00     0.006 A 
HETATM    8  C   UNL     1      41.510  -8.922  14.158  1.00  0.00     0.032 A 
HETATM    9  C   UNL     1      40.585  -7.888  14.285  1.00  0.00     0.026 A 
HETATM   10  C   UNL     1      40.206  -7.164  13.158  1.00  0.00     0.035 A 
HETATM   11 CL   UNL     1      39.061  -5.889  13.311  1.00  0.00    -0.084 Cl
HETATM   12  C   UNL     1      40.749  -7.461  11.906  1.00  0.00     0.038 A 
HETATM   13  H   UNL     1      43.234 -10.795  13.605  1.00  0.00     0.169 HD
ENDROOT
BRANCH   2  14
HETATM   14  N   UNL     1      43.920 -10.169   9.164  1.00  0.00    -0.375 N 
HETATM   15  C   UNL     1      43.476 -11.321   8.357  1.00  0.00     0.137 C 
HETATM   16  C   UNL     1      43.942 -11.157   6.906  1.00  0.00     0.096 C 
HETATM   17  C   UNL     1      45.464 -10.974   6.848  1.00  0.00     0.017 C 
HETATM   18  C   UNL     1      45.908  -9.836   7.763  1.00  0.00     0.021 C 
HETATM   19  C   UNL     1      45.394 -10.047   9.185  1.00  0.00     0.123 C 
BRANCH  16  20
HETATM   20  C   UNL     1      43.504 -12.390   6.133  1.00  0.00     0.223 C 
HETATM   21  N   UNL     1      42.930 -13.380   6.897  1.00  0.00    -0.359 N 
HETATM   22  H   UNL     1      42.927 -13.234   7.904  1.00  0.00     0.162 HD
HETATM   23  O   UNL     1      43.671 -12.530   4.922  1.00  0.00    -0.273 OA
BRANCH  21  24
HETATM   24  C   UNL     1      42.688 -14.746   6.441  1.00  0.00     0.150 C 
BRANCH  24  25
HETATM   25  C   UNL     1      43.902 -15.705   6.434  1.00  0.00     0.254 C 
BRANCH  25  26
HETATM   26  N   UNL     1      44.036 -16.484   5.148  1.00  0.00    -0.066 N 
HETATM   27  H   UNL     1      44.981 -16.248   4.774  1.00  0.00     0.280 HD
HETATM   28  C   UNL     1      44.013 -17.995   5.307  1.00  0.00     0.261 C 
HETATM   29  C   UNL     1      44.225 -18.659   3.942  1.00  0.00     0.195 C 
HETATM   30  O   UNL     1      43.233 -18.228   3.003  1.00  0.00    -0.388 OA
HETATM   31  C   UNL     1      43.306 -16.814   2.784  1.00  0.00     0.195 C 
HETATM   32  C   UNL     1      43.045 -16.045   4.084  1.00  0.00     0.261 C 
ENDBRANCH  25  26
ENDBRANCH  24  25
ENDBRANCH  21  24
ENDBRANCH  16  20
ENDBRANCH   2  14
BRANCH   1  33
HETATM   33  C   UNL     1      41.948  -8.103   9.198  1.00  0.00    -0.023 A 
HETATM   34  C   UNL     1      40.910  -8.583   8.386  1.00  0.00     0.012 A 
HETATM   35  C   UNL     1      40.542  -7.891   7.231  1.00  0.00     0.001 A 
HETATM   36  C   UNL     1      41.206  -6.717   6.880  1.00  0.00     0.000 A 
HETATM   37  C   UNL     1      42.237  -6.230   7.682  1.00  0.00     0.001 A 
HETATM   38  C   UNL     1      42.605  -6.917   8.841  1.00  0.00     0.012 A 
ENDBRANCH   1  33
TORSDOF 6
ENDMDL
MODEL 6
REMARK VINA RESULT:      -8.2      3.420      5.376
REMARK  6 active torsions:
REMARK  status: ('A' for Active; 'I' for Inactive)
REMARK    1  A    between atoms: C_4  and  C_5 
REMARK    2  A    between atoms: C_6  and  N_7 
REMARK    3  A    between atoms: C_9  and  C_10 
REMARK       I    between atoms: C_10  and  N_11 
REMARK    4  A    between atoms: N_11  and  C_12 
REMARK    5  A    between atoms: C_12  and  C_13 
REMARK    6  A    between atoms: C_13  and  N_14 
ROOT
HETATM    1  C   UNL     1      40.771 -12.799   2.537  1.00  0.00     0.019 A 
HETATM    2  C   UNL     1      41.787 -13.618   2.928  1.00  0.00     0.111 A 
HETATM    3  C   UNL     1      42.311 -14.658   1.935  1.00  0.00     0.273 A 
HETATM    4  O   UNL     1      43.259 -15.402   2.192  1.00  0.00    -0.266 OA
HETATM    5  N   UNL     1      41.694 -14.757   0.723  1.00  0.00    -0.321 N 
HETATM    6  C   UNL     1      40.639 -13.947   0.321  1.00  0.00     0.046 A 
HETATM    7  C   UNL     1      40.163 -12.957   1.186  1.00  0.00     0.006 A 
HETATM    8  C   UNL     1      40.083 -14.139  -0.947  1.00  0.00     0.032 A 
HETATM    9  C   UNL     1      39.030 -13.330  -1.369  1.00  0.00     0.026 A 
HETATM   10  C   UNL     1      38.549 -12.333  -0.524  1.00  0.00     0.035 A 
HETATM   11 CL   UNL     1      37.251 -11.330  -1.044  1.00  0.00    -0.084 Cl
HETATM   12  C   UNL     1      39.110 -12.142   0.740  1.00  0.00     0.038 A 
HETATM   13  H   UNL     1      42.058 -15.470   0.106  1.00  0.00     0.169 HD
ENDROOT
BRANCH   2  14
HETATM   14  N   UNL     1      42.382 -13.585   4.220  1.00  0.00    -0.375 N 
HETATM   15  C   UNL     1      43.570 -12.746   4.466  1.00  0.00     0.137 C 
HETATM   16  C   UNL     1      43.676 -12.409   5.957  1.00  0.00     0.096 C 
HETATM   17  C   UNL     1      43.701 -13.692   6.798  1.00  0.00     0.017 C 
HETATM   18  C   UNL     1      42.512 -14.587   6.458  1.00  0.00     0.021 C 
HETATM   19  C   UNL     1      42.451 -14.865   4.959  1.00  0.00     0.123 C 
BRANCH  16  20
HETATM   20  C   UNL     1      44.939 -11.590   6.163  1.00  0.00     0.223 C 
HETATM   21  N   UNL     1      45.215 -11.267   7.471  1.00  0.00    -0.359 N 
HETATM   22  H   UNL     1      44.515 -11.529   8.162  1.00  0.00     0.162 HD
HETATM   23  O   UNL     1      45.659 -11.205   5.242  1.00  0.00    -0.273 OA
BRANCH  21  24
HETATM   24  C   UNL     1      46.197 -10.272   7.892  1.00  0.00     0.150 C 
BRANCH  24  25
HETATM   25  C   UNL     1      45.647  -8.956   8.490  1.00  0.00     0.254 C 
BRANCH  25  26
HETATM   26  N   UNL     1      44.407  -9.157   9.327  1.00  0.00    -0.066 N 
HETATM   27  H   UNL     1      43.817  -9.836   8.799  1.00  0.00     0.280 HD
HETATM   28  C   UNL     1      44.648  -9.783  10.690  1.00  0.00     0.261 C 
HETATM   29  C   UNL     1      43.308  -9.993  11.405  1.00  0.00     0.195 C 
HETATM   30  O   UNL     1      42.596  -8.757  11.529  1.00  0.00    -0.388 OA
HETATM   31  C   UNL     1      42.290  -8.203  10.243  1.00  0.00     0.195 C 
HETATM   32  C   UNL     1      43.572  -7.895   9.461  1.00  0.00     0.261 C 
ENDBRANCH  25  26
ENDBRANCH  24  25
ENDBRANCH  21  24
ENDBRANCH  16  20
ENDBRANCH   2  14
BRANCH   1  33
HETATM   33  C   UNL     1      40.321 -11.747   3.490  1.00  0.00    -0.023 A 
HETATM   34  C   UNL     1      39.449 -12.072   4.538  1.00  0.00     0.012 A 
HETATM   35  C   UNL     1      39.055 -11.096   5.454  1.00  0.00     0.001 A 
HETATM   36  C   UNL     1      39.528  -9.791   5.331  1.00  0.00     0.000 A 
HETATM   37  C   UNL     1      40.398  -9.459   4.293  1.00  0.00     0.001 A 
HETATM   38  C   UNL     1      40.799 -10.434   3.377  1.00  0.00     0.012 A 
ENDBRANCH   1  33
TORSDOF 6
ENDMDL
MODEL 7
REMARK VINA RESULT:      -7.9      2.784      4.997
REMARK  6 active torsions:
REMARK  status: ('A' for Active; 'I' for Inactive)
REMARK    1  A    between atoms: C_4  and  C_5 
REMARK    2  A    between atoms: C_6  and  N_7 
REMARK    3  A    between atoms: C_9  and  C_10 
REMARK       I    between atoms: C_10  and  N_11 
REMARK    4  A    between atoms: N_11  and  C_12 
REMARK    5  A    between atoms: C_12  and  C_13 
REMARK    6  A    between atoms: C_13  and  N_14 
ROOT
HETATM    1  C   UNL     1      42.265 -13.174   4.569  1.00  0.00     0.019 A 
HETATM    2  C   UNL     1      42.664 -11.908   4.876  1.00  0.00     0.111 A 
HETATM    3  C   UNL     1      42.177 -10.754   3.997  1.00  0.00     0.273 A 
HETATM    4  O   UNL     1      42.451  -9.577   4.235  1.00  0.00    -0.266 OA
HETATM    5  N   UNL     1      41.413 -11.055   2.909  1.00  0.00    -0.321 N 
HETATM    6  C   UNL     1      41.020 -12.344   2.568  1.00  0.00     0.046 A 
HETATM    7  C   UNL     1      41.411 -13.418   3.374  1.00  0.00     0.006 A 
HETATM    8  C   UNL     1      40.236 -12.534   1.427  1.00  0.00     0.032 A 
HETATM    9  C   UNL     1      39.827 -13.819   1.076  1.00  0.00     0.026 A 
HETATM   10  C   UNL     1      40.199 -14.899   1.872  1.00  0.00     0.035 A 
HETATM   11 CL   UNL     1      39.693 -16.487   1.443  1.00  0.00    -0.084 Cl
HETATM   12  C   UNL     1      40.980 -14.705   3.013  1.00  0.00     0.038 A 
HETATM   13  H   UNL     1      41.129 -10.266   2.344  1.00  0.00     0.169 HD
ENDROOT
BRANCH   2  14
HETATM   14  N   UNL     1      43.533 -11.588   5.958  1.00  0.00    -0.375 N 
HETATM   15  C   UNL     1      43.063 -10.719   7.052  1.00  0.00     0.137 C 
HETATM   16  C   UNL     1      43.885 -10.977   8.319  1.00  0.00     0.096 C 
HETATM   17  C   UNL     1      45.380 -10.782   8.039  1.00  0.00     0.017 C 
HETATM   18  C   UNL     1      45.823 -11.620   6.843  1.00  0.00     0.021 C 
HETATM   19  C   UNL     1      44.952 -11.333   5.623  1.00  0.00     0.123 C 
BRANCH  16  20
HETATM   20  C   UNL     1      43.395 -10.024   9.396  1.00  0.00     0.223 C 
HETATM   21  N   UNL     1      42.783  -8.884   8.927  1.00  0.00    -0.359 N 
HETATM   22  H   UNL     1      42.789  -8.746   7.919  1.00  0.00     0.162 HD
HETATM   23  O   UNL     1      43.553 -10.217  10.601  1.00  0.00    -0.273 OA
BRANCH  21  24
HETATM   24  C   UNL     1      42.484  -7.707   9.739  1.00  0.00     0.150 C 
BRANCH  24  25
HETATM   25  C   UNL     1      41.134  -7.703  10.493  1.00  0.00     0.254 C 
BRANCH  25  26
HETATM   26  N   UNL     1      41.111  -8.639  11.676  1.00  0.00    -0.066 N 
HETATM   27  H   UNL     1      41.861  -9.341  11.495  1.00  0.00     0.280 HD
HETATM   28  C   UNL     1      41.452  -7.996  13.010  1.00  0.00     0.261 C 
HETATM   29  C   UNL     1      41.460  -9.063  14.110  1.00  0.00     0.195 C 
HETATM   30  O   UNL     1      40.198  -9.738  14.176  1.00  0.00    -0.388 OA
HETATM   31  C   UNL     1      39.909 -10.419  12.948  1.00  0.00     0.195 C 
HETATM   32  C   UNL     1      39.818  -9.428  11.781  1.00  0.00     0.261 C 
ENDBRANCH  25  26
ENDBRANCH  24  25
ENDBRANCH  21  24
ENDBRANCH  16  20
ENDBRANCH   2  14
BRANCH   1  33
HETATM   33  C   UNL     1      42.691 -14.275   5.477  1.00  0.00    -0.023 A 
HETATM   34  C   UNL     1      41.970 -14.541   6.649  1.00  0.00     0.012 A 
HETATM   35  C   UNL     1      42.345 -15.595   7.483  1.00  0.00     0.001 A 
HETATM   36  C   UNL     1      43.442 -16.390   7.153  1.00  0.00     0.000 A 
HETATM   37  C   UNL     1      44.164 -16.135   5.988  1.00  0.00     0.001 A 
HETATM   38  C   UNL     1      43.789 -15.084   5.149  1.00  0.00     0.012 A 
ENDBRANCH   1  33
TORSDOF 6
ENDMDL
MODEL 8
REMARK VINA RESULT:      -7.7     16.309     18.742
REMARK  6 active torsions:
REMARK  status: ('A' for Active; 'I' for Inactive)
REMARK    1  A    between atoms: C_4  and  C_5 
REMARK    2  A    between atoms: C_6  and  N_7 
REMARK    3  A    between atoms: C_9  and  C_10 
REMARK       I    between atoms: C_10  and  N_11 
REMARK    4  A    between atoms: N_11  and  C_12 
REMARK    5  A    between atoms: C_12  and  C_13 
REMARK    6  A    between atoms: C_13  and  N_14 
ROOT
HETATM    1  C   UNL     1      44.198 -30.456   0.568  1.00  0.00     0.019 A 
HETATM    2  C   UNL     1      45.280 -29.658   0.789  1.00  0.00     0.111 A 
HETATM    3  C   UNL     1      45.370 -28.898   2.115  1.00  0.00     0.273 A 
HETATM    4  O   UNL     1      46.337 -28.197   2.413  1.00  0.00    -0.266 OA
HETATM    5  N   UNL     1      44.330 -29.009   2.989  1.00  0.00    -0.321 N 
HETATM    6  C   UNL     1      43.208 -29.797   2.766  1.00  0.00     0.046 A 
HETATM    7  C   UNL     1      43.113 -30.540   1.584  1.00  0.00     0.006 A 
HETATM    8  C   UNL     1      42.201 -29.834   3.735  1.00  0.00     0.032 A 
HETATM    9  C   UNL     1      41.073 -30.626   3.530  1.00  0.00     0.026 A 
HETATM   10  C   UNL     1      40.966 -31.378   2.364  1.00  0.00     0.035 A 
HETATM   11 CL   UNL     1      39.576 -32.360   2.109  1.00  0.00    -0.084 Cl
HETATM   12  C   UNL     1      41.975 -31.342   1.399  1.00  0.00     0.038 A 
HETATM   13  H   UNL     1      44.420 -28.475   3.843  1.00  0.00     0.169 HD
ENDROOT
BRANCH   2  14
HETATM   14  N   UNL     1      46.331 -29.465  -0.152  1.00  0.00    -0.375 N 
HETATM   15  C   UNL     1      47.665 -30.041   0.100  1.00  0.00     0.137 C 
HETATM   16  C   UNL     1      48.419 -30.219  -1.222  1.00  0.00     0.096 C 
HETATM   17  C   UNL     1      48.508 -28.885  -1.974  1.00  0.00     0.017 C 
HETATM   18  C   UNL     1      47.125 -28.262  -2.139  1.00  0.00     0.021 C 
HETATM   19  C   UNL     1      46.419 -28.134  -0.792  1.00  0.00     0.123 C 
BRANCH  16  20
HETATM   20  C   UNL     1      49.800 -30.765  -0.901  1.00  0.00     0.223 C 
HETATM   21  N   UNL     1      49.812 -32.021  -0.340  1.00  0.00    -0.359 N 
HETATM   22  H   UNL     1      48.906 -32.428  -0.116  1.00  0.00     0.162 HD
HETATM   23  O   UNL     1      50.842 -30.138  -1.090  1.00  0.00    -0.273 OA
BRANCH  21  24
HETATM   24  C   UNL     1      50.972 -32.634   0.301  1.00  0.00     0.150 C 
BRANCH  24  25
HETATM   25  C   UNL     1      51.065 -32.512   1.840  1.00  0.00     0.254 C 
BRANCH  25  26
HETATM   26  N   UNL     1      50.021 -31.594   2.427  1.00  0.00    -0.066 N 
HETATM   27  H   UNL     1      49.477 -31.231   1.615  1.00  0.00     0.280 HD
HETATM   28  C   UNL     1      49.011 -32.271   3.339  1.00  0.00     0.261 C 
HETATM   29  C   UNL     1      47.973 -31.246   3.809  1.00  0.00     0.195 C 
HETATM   30  O   UNL     1      48.606 -30.146   4.474  1.00  0.00    -0.388 OA
HETATM   31  C   UNL     1      49.498 -29.451   3.594  1.00  0.00     0.195 C 
HETATM   32  C   UNL     1      50.619 -30.376   3.108  1.00  0.00     0.261 C 
ENDBRANCH  25  26
ENDBRANCH  24  25
ENDBRANCH  21  24
ENDBRANCH  16  20
ENDBRANCH   2  14
BRANCH   1  33
HETATM   33  C   UNL     1      44.162 -31.242  -0.696  1.00  0.00    -0.023 A 
HETATM   34  C   UNL     1      44.063 -30.586  -1.931  1.00  0.00     0.012 A 
HETATM   35  C   UNL     1      44.065 -31.318  -3.120  1.00  0.00     0.001 A 
HETATM   36  C   UNL     1      44.167 -32.707  -3.083  1.00  0.00     0.000 A 
HETATM   37  C   UNL     1      44.270 -33.369  -1.860  1.00  0.00     0.001 A 
HETATM   38  C   UNL     1      44.273 -32.639  -0.669  1.00  0.00     0.012 A 
ENDBRANCH   1  33
TORSDOF 6
ENDMDL
MODEL 9
REMARK VINA RESULT:      -7.6     17.212     21.064
REMARK  6 active torsions:
REMARK  status: ('A' for Active; 'I' for Inactive)
REMARK    1  A    between atoms: C_4  and  C_5 
REMARK    2  A    between atoms: C_6  and  N_7 
REMARK    3  A    between atoms: C_9  and  C_10 
REMARK       I    between atoms: C_10  and  N_11 
REMARK    4  A    between atoms: N_11  and  C_12 
REMARK    5  A    between atoms: C_12  and  C_13 
REMARK    6  A    between atoms: C_13  and  N_14 
ROOT
HETATM    1  C   UNL     1      46.446 -30.009   0.723  1.00  0.00     0.019 A 
HETATM    2  C   UNL     1      46.983 -29.683  -0.485  1.00  0.00     0.111 A 
HETATM    3  C   UNL     1      48.498 -29.494  -0.585  1.00  0.00     0.273 A 
HETATM    4  O   UNL     1      49.068 -29.248  -1.649  1.00  0.00    -0.266 OA
HETATM    5  N   UNL     1      49.235 -29.602   0.557  1.00  0.00    -0.321 N 
HETATM    6  C   UNL     1      48.698 -29.907   1.802  1.00  0.00     0.046 A 
HETATM    7  C   UNL     1      47.322 -30.130   1.922  1.00  0.00     0.006 A 
HETATM    8  C   UNL     1      49.550 -29.991   2.906  1.00  0.00     0.032 A 
HETATM    9  C   UNL     1      49.029 -30.305   4.159  1.00  0.00     0.026 A 
HETATM   10  C   UNL     1      47.663 -30.539   4.295  1.00  0.00     0.035 A 
HETATM   11 CL   UNL     1      47.016 -30.929   5.841  1.00  0.00    -0.084 Cl
HETATM   12  C   UNL     1      46.814 -30.457   3.190  1.00  0.00     0.038 A 
HETATM   13  H   UNL     1      50.229 -29.450   0.451  1.00  0.00     0.169 HD
ENDROOT
BRANCH   2  14
HETATM   14  N   UNL     1      46.216 -29.481  -1.668  1.00  0.00    -0.375 N 
HETATM   15  C   UNL     1      46.174 -30.525  -2.709  1.00  0.00     0.137 C 
HETATM   16  C   UNL     1      44.904 -30.375  -3.553  1.00  0.00     0.096 C 
HETATM   17  C   UNL     1      44.822 -28.966  -4.155  1.00  0.00     0.017 C 
HETATM   18  C   UNL     1      44.962 -27.903  -3.069  1.00  0.00     0.021 C 
HETATM   19  C   UNL     1      46.232 -28.122  -2.252  1.00  0.00     0.123 C 
BRANCH  16  20
HETATM   20  C   UNL     1      44.936 -31.438  -4.638  1.00  0.00     0.223 C 
HETATM   21  N   UNL     1      45.362 -30.997  -5.870  1.00  0.00    -0.359 N 
HETATM   22  H   UNL     1      45.534 -29.997  -5.961  1.00  0.00     0.162 HD
HETATM   23  O   UNL     1      44.580 -32.602  -4.462  1.00  0.00    -0.273 OA
BRANCH  21  24
HETATM   24  C   UNL     1      45.218 -31.744  -7.116  1.00  0.00     0.150 C 
BRANCH  24  25
HETATM   25  C   UNL     1      44.096 -31.287  -8.078  1.00  0.00     0.254 C 
BRANCH  25  26
HETATM   26  N   UNL     1      43.958 -32.174  -9.292  1.00  0.00    -0.066 N 
HETATM   27  H   UNL     1      43.706 -31.537 -10.079  1.00  0.00     0.280 HD
HETATM   28  C   UNL     1      45.232 -32.883  -9.718  1.00  0.00     0.261 C 
HETATM   29  C   UNL     1      44.971 -33.691 -10.994  1.00  0.00     0.195 C 
HETATM   30  O   UNL     1      43.906 -34.628 -10.796  1.00  0.00    -0.388 OA
HETATM   31  C   UNL     1      42.679 -33.960 -10.477  1.00  0.00     0.195 C 
HETATM   32  C   UNL     1      42.812 -33.163  -9.174  1.00  0.00     0.261 C 
ENDBRANCH  25  26
ENDBRANCH  24  25
ENDBRANCH  21  24
ENDBRANCH  16  20
ENDBRANCH   2  14
BRANCH   1  33
HETATM   33  C   UNL     1      44.979 -30.259   0.786  1.00  0.00    -0.023 A 
HETATM   34  C   UNL     1      44.480 -31.562   0.653  1.00  0.00     0.012 A 
HETATM   35  C   UNL     1      43.108 -31.804   0.748  1.00  0.00     0.001 A 
HETATM   36  C   UNL     1      42.227 -30.748   0.976  1.00  0.00     0.000 A 
HETATM   37  C   UNL     1      42.715 -29.448   1.112  1.00  0.00     0.001 A 
HETATM   38  C   UNL     1      44.087 -29.204   1.023  1.00  0.00     0.012 A 
ENDBRANCH   1  33
TORSDOF 6
ENDMDL
MODEL 10
REMARK VINA RESULT:      -7.4      5.207      6.774
REMARK  6 active torsions:
REMARK  status: ('A' for Active; 'I' for Inactive)
REMARK    1  A    between atoms: C_4  and  C_5 
REMARK    2  A    between atoms: C_6  and  N_7 
REMARK    3  A    between atoms: C_9  and  C_10 
REMARK       I    between atoms: C_10  and  N_11 
REMARK    4  A    between atoms: N_11  and  C_12 
REMARK    5  A    between atoms: C_12  and  C_13 
REMARK    6  A    between atoms: C_13  and  N_14 
ROOT
HETATM    1  C   UNL     1      41.875 -13.638   3.468  1.00  0.00     0.019 A 
HETATM    2  C   UNL     1      40.913 -13.036   2.715  1.00  0.00     0.111 A 
HETATM    3  C   UNL     1      40.150 -13.880   1.692  1.00  0.00     0.273 A 
HETATM    4  O   UNL     1      39.233 -13.424   1.008  1.00  0.00    -0.266 OA
HETATM    5  N   UNL     1      40.513 -15.185   1.540  1.00  0.00    -0.321 N 
HETATM    6  C   UNL     1      41.510 -15.806   2.281  1.00  0.00     0.046 A 
HETATM    7  C   UNL     1      42.198 -15.076   3.256  1.00  0.00     0.006 A 
HETATM    8  C   UNL     1      41.797 -17.152   2.038  1.00  0.00     0.032 A 
HETATM    9  C   UNL     1      42.789 -17.792   2.779  1.00  0.00     0.026 A 
HETATM   10  C   UNL     1      43.477 -17.083   3.760  1.00  0.00     0.035 A 
HETATM   11 CL   UNL     1      44.700 -17.871   4.679  1.00  0.00    -0.084 Cl
HETATM   12  C   UNL     1      43.186 -15.739   4.002  1.00  0.00     0.038 A 
HETATM   13  H   UNL     1      39.997 -15.702   0.839  1.00  0.00     0.169 HD
ENDROOT
BRANCH   2  14
HETATM   14  N   UNL     1      40.585 -11.653   2.802  1.00  0.00    -0.375 N 
HETATM   15  C   UNL     1      39.404 -11.220   3.572  1.00  0.00     0.137 C 
HETATM   16  C   UNL     1      39.567  -9.761   4.010  1.00  0.00     0.096 C 
HETATM   17  C   UNL     1      39.816  -8.860   2.794  1.00  0.00     0.017 C 
HETATM   18  C   UNL     1      40.984  -9.381   1.962  1.00  0.00     0.021 C 
HETATM   19  C   UNL     1      40.770 -10.843   1.578  1.00  0.00     0.123 C 
BRANCH  16  20
HETATM   20  C   UNL     1      38.306  -9.352   4.752  1.00  0.00     0.223 C 
HETATM   21  N   UNL     1      37.680  -8.231   4.258  1.00  0.00    -0.359 N 
HETATM   22  H   UNL     1      38.157  -7.737   3.506  1.00  0.00     0.162 HD
HETATM   23  O   UNL     1      37.876  -9.943   5.742  1.00  0.00    -0.273 OA
BRANCH  21  24
HETATM   24  C   UNL     1      36.630  -7.491   4.953  1.00  0.00     0.150 C 
BRANCH  24  25
HETATM   25  C   UNL     1      35.420  -7.034   4.106  1.00  0.00     0.254 C 
BRANCH  25  26
HETATM   26  N   UNL     1      34.104  -7.571   4.612  1.00  0.00    -0.066 N 
HETATM   27  H   UNL     1      34.232  -8.603   4.691  1.00  0.00     0.280 HD
HETATM   28  C   UNL     1      33.705  -7.091   5.997  1.00  0.00     0.261 C 
HETATM   29  C   UNL     1      32.391  -7.760   6.416  1.00  0.00     0.195 C 
HETATM   30  O   UNL     1      31.355  -7.493   5.464  1.00  0.00    -0.388 OA
HETATM   31  C   UNL     1      31.688  -8.018   4.173  1.00  0.00     0.195 C 
HETATM   32  C   UNL     1      32.964  -7.367   3.629  1.00  0.00     0.261 C 
ENDBRANCH  25  26
ENDBRANCH  24  25
ENDBRANCH  21  24
ENDBRANCH  16  20
ENDBRANCH   2  14
BRANCH   1  33
HETATM   33  C   UNL     1      42.558 -12.818   4.508  1.00  0.00    -0.023 A 
HETATM   34  C   UNL     1      42.068 -12.796   5.821  1.00  0.00     0.012 A 
HETATM   35  C   UNL     1      42.727 -12.057   6.805  1.00  0.00     0.001 A 
HETATM   36  C   UNL     1      43.876 -11.337   6.486  1.00  0.00     0.000 A 
HETATM   37  C   UNL     1      44.372 -11.355   5.183  1.00  0.00     0.001 A 
HETATM   38  C   UNL     1      43.719 -12.096   4.196  1.00  0.00     0.012 A 
ENDBRANCH   1  33
TORSDOF 6
ENDMDL
