MODEL 1
REMARK VINA RESULT:      -9.9      0.000      0.000
REMARK  3 active torsions:
REMARK  status: ('A' for Active; 'I' for Inactive)
REMARK    1  A    between atoms: C_3  and  C_4 
REMARK       I    between atoms: C_4  and  N_5 
REMARK    2  A    between atoms: N_5  and  C_6 
REMARK    3  A    between atoms: C_13  and  C_14 
REMARK       I    between atoms: C_14  and  N_15 
ROOT
HETATM    1  C   UNL     1      42.615 -14.545   4.184  1.00  0.00     0.262 C 
HETATM    2  N   UNL     1      41.346 -14.414   4.712  1.00  0.00    -0.323 N 
HETATM    3  O   UNL     1      43.251 -13.632   3.665  1.00  0.00    -0.267 OA
HETATM    4  H   UNL     1      40.889 -15.276   5.011  1.00  0.00     0.169 HD
ENDROOT
BRANCH   2   5
HETATM    5  C   UNL     1      40.524 -13.266   4.729  1.00  0.00     0.036 A 
HETATM    6  C   UNL     1      40.312 -12.469   5.862  1.00  0.00     0.046 A 
HETATM    7  C   UNL     1      39.509 -11.310   5.760  1.00  0.00     0.030 A 
HETATM    8  C   UNL     1      38.933 -10.999   4.535  1.00  0.00     0.063 A 
HETATM    9  C   UNL     1      39.092 -10.267   6.641  1.00  0.00     0.156 A 
HETATM   10  N   UNL     1      38.238  -9.842   4.744  1.00  0.00    -0.277 N 
HETATM   11  C   UNL     1      39.104 -11.782   3.392  1.00  0.00     0.034 A 
HETATM   12  H   UNL     1      37.695  -9.322   4.064  1.00  0.00     0.189 HD
HETATM   13  N   UNL     1      38.311  -9.367   5.998  1.00  0.00    -0.168 NA
HETATM   14  C   UNL     1      39.912 -12.917   3.517  1.00  0.00     0.032 A 
BRANCH   9  15
HETATM   15  C   UNL     1      39.424 -10.105   8.063  1.00  0.00     0.270 C 
HETATM   16  N   UNL     1      40.726  -9.753   8.294  1.00  0.00    -0.365 N 
HETATM   17  H   UNL     1      41.346  -9.641   7.501  1.00  0.00     0.159 HD
HETATM   18  H   UNL     1      41.051  -9.633   9.240  1.00  0.00     0.159 HD
HETATM   19  O   UNL     1      38.637 -10.264   8.989  1.00  0.00    -0.266 OA
ENDBRANCH   9  15
ENDBRANCH   2   5
BRANCH   1  20
HETATM   20  C   UNL     1      43.186 -15.949   4.210  1.00  0.00     0.114 C 
HETATM   21  C   UNL     1      43.150 -16.721   3.095  1.00  0.00    -0.027 C 
HETATM   22  C   UNL     1      42.804 -16.211   1.715  1.00  0.00     0.050 C 
HETATM   23  C   UNL     1      43.466 -18.162   3.210  1.00  0.00     0.005 A 
HETATM   24  C   UNL     1      43.903 -18.662   4.433  1.00  0.00     0.090 A 
HETATM   25  C   UNL     1      43.296 -19.088   2.169  1.00  0.00     0.015 A 
HETATM   26  O   UNL     1      44.071 -17.824   5.541  1.00  0.00    -0.274 OA
HETATM   27  C   UNL     1      44.188 -20.013   4.637  1.00  0.00     0.038 A 
HETATM   28  C   UNL     1      43.740 -16.485   5.480  1.00  0.00     0.304 C 
HETATM   29  O   UNL     1      43.947 -15.757   6.449  1.00  0.00    -0.259 OA
HETATM   30  C   UNL     1      44.022 -20.912   3.589  1.00  0.00     0.003 A 
HETATM   31  C   UNL     1      43.573 -20.449   2.355  1.00  0.00     0.001 A 
ENDBRANCH   1  20
TORSDOF 3
ENDMDL
MODEL 2
REMARK VINA RESULT:      -9.7      2.836      3.309
REMARK  3 active torsions:
REMARK  status: ('A' for Active; 'I' for Inactive)
REMARK    1  A    between atoms: C_3  and  C_4 
REMARK       I    between atoms: C_4  and  N_5 
REMARK    2  A    between atoms: N_5  and  C_6 
REMARK    3  A    between atoms: C_13  and  C_14 
REMARK       I    between atoms: C_14  and  N_15 
ROOT
HETATM    1  C   UNL     1      42.605 -15.009   5.405  1.00  0.00     0.262 C 
HETATM    2  N   UNL     1      43.549 -14.034   5.654  1.00  0.00    -0.323 N 
HETATM    3  O   UNL     1      41.392 -14.848   5.510  1.00  0.00    -0.267 OA
HETATM    4  H   UNL     1      44.525 -14.333   5.637  1.00  0.00     0.169 HD
ENDROOT
BRANCH   2   5
HETATM    5  C   UNL     1      43.338 -12.713   6.108  1.00  0.00     0.036 A 
HETATM    6  C   UNL     1      43.644 -12.268   7.401  1.00  0.00     0.046 A 
HETATM    7  C   UNL     1      43.441 -10.911   7.738  1.00  0.00     0.030 A 
HETATM    8  C   UNL     1      42.923 -10.051   6.778  1.00  0.00     0.063 A 
HETATM    9  C   UNL     1      43.645 -10.096   8.893  1.00  0.00     0.156 A 
HETATM   10  N   UNL     1      42.852  -8.829   7.385  1.00  0.00    -0.277 N 
HETATM   11  C   UNL     1      42.587 -10.464   5.488  1.00  0.00     0.034 A 
HETATM   12  H   UNL     1      42.523  -7.961   6.978  1.00  0.00     0.189 HD
HETATM   13  N   UNL     1      43.280  -8.814   8.658  1.00  0.00    -0.168 NA
HETATM   14  C   UNL     1      42.808 -11.809   5.176  1.00  0.00     0.032 A 
BRANCH   9  15
HETATM   15  C   UNL     1      44.182 -10.505  10.198  1.00  0.00     0.270 C 
HETATM   16  N   UNL     1      43.226 -10.867  11.106  1.00  0.00    -0.365 N 
HETATM   17  H   UNL     1      42.252 -10.822  10.829  1.00  0.00     0.159 HD
HETATM   18  H   UNL     1      43.498 -11.150  12.034  1.00  0.00     0.159 HD
HETATM   19  O   UNL     1      45.373 -10.531  10.488  1.00  0.00    -0.266 OA
ENDBRANCH   9  15
ENDBRANCH   2   5
BRANCH   1  20
HETATM   20  C   UNL     1      43.161 -16.373   5.048  1.00  0.00     0.114 C 
HETATM   21  C   UNL     1      43.121 -16.812   3.764  1.00  0.00    -0.027 C 
HETATM   22  C   UNL     1      42.785 -15.942   2.575  1.00  0.00     0.050 C 
HETATM   23  C   UNL     1      43.421 -18.233   3.483  1.00  0.00     0.005 A 
HETATM   24  C   UNL     1      43.848 -19.052   4.524  1.00  0.00     0.090 A 
HETATM   25  C   UNL     1      43.245 -18.839   2.229  1.00  0.00     0.015 A 
HETATM   26  O   UNL     1      44.021 -18.549   5.818  1.00  0.00    -0.274 OA
HETATM   27  C   UNL     1      44.118 -20.411   4.352  1.00  0.00     0.038 A 
HETATM   28  C   UNL     1      43.704 -17.241   6.124  1.00  0.00     0.304 C 
HETATM   29  O   UNL     1      43.916 -16.806   7.255  1.00  0.00    -0.259 OA
HETATM   30  C   UNL     1      43.946 -20.989   3.099  1.00  0.00     0.003 A 
HETATM   31  C   UNL     1      43.507 -20.202   2.038  1.00  0.00     0.001 A 
ENDBRANCH   1  20
TORSDOF 3
ENDMDL
MODEL 3
REMARK VINA RESULT:      -9.4      3.470      5.174
REMARK  3 active torsions:
REMARK  status: ('A' for Active; 'I' for Inactive)
REMARK    1  A    between atoms: C_3  and  C_4 
REMARK       I    between atoms: C_4  and  N_5 
REMARK    2  A    between atoms: N_5  and  C_6 
REMARK    3  A    between atoms: C_13  and  C_14 
REMARK       I    between atoms: C_14  and  N_15 
ROOT
HETATM    1  C   UNL     1      42.203 -14.548   3.276  1.00  0.00     0.262 C 
HETATM    2  N   UNL     1      40.948 -14.711   2.727  1.00  0.00    -0.323 N 
HETATM    3  O   UNL     1      42.886 -13.534   3.168  1.00  0.00    -0.267 OA
HETATM    4  H   UNL     1      40.538 -15.643   2.799  1.00  0.00     0.169 HD
ENDROOT
BRANCH   2   5
HETATM    5  C   UNL     1      40.226 -13.803   1.920  1.00  0.00     0.036 A 
HETATM    6  C   UNL     1      40.283 -13.780   0.520  1.00  0.00     0.046 A 
HETATM    7  C   UNL     1      39.482 -12.863  -0.196  1.00  0.00     0.030 A 
HETATM    8  C   UNL     1      38.665 -11.991   0.512  1.00  0.00     0.063 A 
HETATM    9  C   UNL     1      39.245 -12.558  -1.571  1.00  0.00     0.156 A 
HETATM   10  N   UNL     1      38.017 -11.250  -0.436  1.00  0.00    -0.277 N 
HETATM   11  C   UNL     1      38.599 -11.970   1.906  1.00  0.00     0.034 A 
HETATM   12  H   UNL     1      37.337 -10.515  -0.281  1.00  0.00     0.189 HD
HETATM   13  N   UNL     1      38.337 -11.563  -1.703  1.00  0.00    -0.168 NA
HETATM   14  C   UNL     1      39.394 -12.895   2.591  1.00  0.00     0.032 A 
BRANCH   9  15
HETATM   15  C   UNL     1      39.852 -13.193  -2.749  1.00  0.00     0.270 C 
HETATM   16  N   UNL     1      41.197 -12.976  -2.868  1.00  0.00    -0.365 N 
HETATM   17  H   UNL     1      41.661 -12.409  -2.168  1.00  0.00     0.159 HD
HETATM   18  H   UNL     1      41.698 -13.360  -3.653  1.00  0.00     0.159 HD
HETATM   19  O   UNL     1      39.243 -13.862  -3.576  1.00  0.00    -0.266 OA
ENDBRANCH   9  15
ENDBRANCH   2   5
BRANCH   1  20
HETATM   20  C   UNL     1      42.759 -15.763   3.993  1.00  0.00     0.114 C 
HETATM   21  C   UNL     1      43.225 -16.821   3.282  1.00  0.00    -0.027 C 
HETATM   22  C   UNL     1      43.476 -16.804   1.792  1.00  0.00     0.050 C 
HETATM   23  C   UNL     1      43.513 -18.088   3.989  1.00  0.00     0.005 A 
HETATM   24  C   UNL     1      43.410 -18.126   5.377  1.00  0.00     0.090 A 
HETATM   25  C   UNL     1      43.831 -19.293   3.342  1.00  0.00     0.015 A 
HETATM   26  O   UNL     1      43.065 -16.986   6.110  1.00  0.00    -0.274 OA
HETATM   27  C   UNL     1      43.630 -19.290   6.117  1.00  0.00     0.038 A 
HETATM   28  C   UNL     1      42.743 -15.801   5.478  1.00  0.00     0.304 C 
HETATM   29  O   UNL     1      42.496 -14.798   6.144  1.00  0.00    -0.259 OA
HETATM   30  C   UNL     1      43.953 -20.469   5.456  1.00  0.00     0.003 A 
HETATM   31  C   UNL     1      44.052 -20.471   4.068  1.00  0.00     0.001 A 
ENDBRANCH   1  20
TORSDOF 3
ENDMDL
MODEL 4
REMARK VINA RESULT:      -9.1      2.468      3.196
REMARK  3 active torsions:
REMARK  status: ('A' for Active; 'I' for Inactive)
REMARK    1  A    between atoms: C_3  and  C_4 
REMARK       I    between atoms: C_4  and  N_5 
REMARK    2  A    between atoms: N_5  and  C_6 
REMARK    3  A    between atoms: C_13  and  C_14 
REMARK       I    between atoms: C_14  and  N_15 
ROOT
HETATM    1  C   UNL     1      42.651 -14.779   5.677  1.00  0.00     0.262 C 
HETATM    2  N   UNL     1      43.596 -13.778   5.772  1.00  0.00    -0.323 N 
HETATM    3  O   UNL     1      41.466 -14.651   5.974  1.00  0.00    -0.267 OA
HETATM    4  H   UNL     1      44.564 -14.051   5.600  1.00  0.00     0.169 HD
ENDROOT
BRANCH   2   5
HETATM    5  C   UNL     1      43.424 -12.460   6.251  1.00  0.00     0.036 A 
HETATM    6  C   UNL     1      42.610 -11.501   5.634  1.00  0.00     0.046 A 
HETATM    7  C   UNL     1      42.467 -10.225   6.222  1.00  0.00     0.030 A 
HETATM    8  C   UNL     1      43.155  -9.946   7.396  1.00  0.00     0.063 A 
HETATM    9  C   UNL     1      41.739  -9.031   5.929  1.00  0.00     0.156 A 
HETATM   10  N   UNL     1      42.815  -8.664   7.722  1.00  0.00    -0.277 N 
HETATM   11  C   UNL     1      43.992 -10.869   8.026  1.00  0.00     0.034 A 
HETATM   12  H   UNL     1      43.129  -8.131   8.524  1.00  0.00     0.189 HD
HETATM   13  N   UNL     1      41.961  -8.079   6.865  1.00  0.00    -0.168 NA
HETATM   14  C   UNL     1      44.108 -12.129   7.429  1.00  0.00     0.032 A 
BRANCH   9  15
HETATM   15  C   UNL     1      40.838  -8.785   4.794  1.00  0.00     0.270 C 
HETATM   16  N   UNL     1      41.476  -8.692   3.587  1.00  0.00    -0.365 N 
HETATM   17  H   UNL     1      42.484  -8.788   3.563  1.00  0.00     0.159 HD
HETATM   18  H   UNL     1      40.942  -8.510   2.752  1.00  0.00     0.159 HD
HETATM   19  O   UNL     1      39.621  -8.664   4.878  1.00  0.00    -0.266 OA
ENDBRANCH   9  15
ENDBRANCH   2   5
BRANCH   1  20
HETATM   20  C   UNL     1      43.180 -16.130   5.239  1.00  0.00     0.114 C 
HETATM   21  C   UNL     1      43.067 -16.520   3.944  1.00  0.00    -0.027 C 
HETATM   22  C   UNL     1      42.668 -15.606   2.809  1.00  0.00     0.050 C 
HETATM   23  C   UNL     1      43.344 -17.931   3.594  1.00  0.00     0.005 A 
HETATM   24  C   UNL     1      43.825 -18.789   4.578  1.00  0.00     0.090 A 
HETATM   25  C   UNL     1      43.095 -18.488   2.329  1.00  0.00     0.015 A 
HETATM   26  O   UNL     1      44.073 -18.336   5.878  1.00  0.00    -0.274 OA
HETATM   27  C   UNL     1      44.079 -20.142   4.340  1.00  0.00     0.038 A 
HETATM   28  C   UNL     1      43.779 -17.039   6.249  1.00  0.00     0.304 C 
HETATM   29  O   UNL     1      44.056 -16.648   7.382  1.00  0.00    -0.259 OA
HETATM   30  C   UNL     1      43.835 -20.671   3.077  1.00  0.00     0.003 A 
HETATM   31  C   UNL     1      43.340 -19.844   2.073  1.00  0.00     0.001 A 
ENDBRANCH   1  20
TORSDOF 3
ENDMDL
MODEL 5
REMARK VINA RESULT:      -8.7      3.198      4.161
REMARK  3 active torsions:
REMARK  status: ('A' for Active; 'I' for Inactive)
REMARK    1  A    between atoms: C_3  and  C_4 
REMARK       I    between atoms: C_4  and  N_5 
REMARK    2  A    between atoms: N_5  and  C_6 
REMARK    3  A    between atoms: C_13  and  C_14 
REMARK       I    between atoms: C_14  and  N_15 
ROOT
HETATM    1  C   UNL     1      41.380 -13.739   5.602  1.00  0.00     0.262 C 
HETATM    2  N   UNL     1      42.255 -12.699   5.364  1.00  0.00    -0.323 N 
HETATM    3  O   UNL     1      40.449 -13.697   6.402  1.00  0.00    -0.267 OA
HETATM    4  H   UNL     1      43.050 -12.905   4.757  1.00  0.00     0.169 HD
ENDROOT
BRANCH   2   5
HETATM    5  C   UNL     1      42.297 -11.434   5.991  1.00  0.00     0.036 A 
HETATM    6  C   UNL     1      43.351 -10.994   6.802  1.00  0.00     0.046 A 
HETATM    7  C   UNL     1      43.318  -9.688   7.342  1.00  0.00     0.030 A 
HETATM    8  C   UNL     1      42.225  -8.876   7.067  1.00  0.00     0.063 A 
HETATM    9  C   UNL     1      44.175  -8.890   8.159  1.00  0.00     0.156 A 
HETATM   10  N   UNL     1      42.480  -7.695   7.705  1.00  0.00    -0.277 N 
HETATM   11  C   UNL     1      41.147  -9.289   6.283  1.00  0.00     0.034 A 
HETATM   12  H   UNL     1      41.896  -6.867   7.719  1.00  0.00     0.189 HD
HETATM   13  N   UNL     1      43.646  -7.663   8.371  1.00  0.00    -0.168 NA
HETATM   14  C   UNL     1      41.209 -10.581   5.751  1.00  0.00     0.032 A 
BRANCH   9  15
HETATM   15  C   UNL     1      45.477  -9.264   8.728  1.00  0.00     0.270 C 
HETATM   16  N   UNL     1      46.510  -9.220   7.833  1.00  0.00    -0.365 N 
HETATM   17  H   UNL     1      46.311  -8.950   6.876  1.00  0.00     0.159 HD
HETATM   18  H   UNL     1      47.439  -9.474   8.128  1.00  0.00     0.159 HD
HETATM   19  O   UNL     1      45.663  -9.596   9.894  1.00  0.00    -0.266 OA
ENDBRANCH   9  15
ENDBRANCH   2   5
BRANCH   1  20
HETATM   20  C   UNL     1      41.677 -15.021   4.850  1.00  0.00     0.114 C 
HETATM   21  C   UNL     1      42.509 -15.949   5.386  1.00  0.00    -0.027 C 
HETATM   22  C   UNL     1      42.995 -15.936   6.817  1.00  0.00     0.050 C 
HETATM   23  C   UNL     1      42.991 -17.057   4.532  1.00  0.00     0.005 A 
HETATM   24  C   UNL     1      42.486 -17.184   3.241  1.00  0.00     0.090 A 
HETATM   25  C   UNL     1      43.982 -17.973   4.920  1.00  0.00     0.015 A 
HETATM   26  O   UNL     1      41.519 -16.300   2.751  1.00  0.00    -0.274 OA
HETATM   27  C   UNL     1      42.912 -18.179   2.359  1.00  0.00     0.038 A 
HETATM   28  C   UNL     1      41.085 -15.228   3.504  1.00  0.00     0.304 C 
HETATM   29  O   UNL     1      40.194 -14.496   3.073  1.00  0.00    -0.259 OA
HETATM   30  C   UNL     1      43.889 -19.081   2.767  1.00  0.00     0.003 A 
HETATM   31  C   UNL     1      44.426 -18.976   4.047  1.00  0.00     0.001 A 
ENDBRANCH   1  20
TORSDOF 3
ENDMDL
MODEL 6
REMARK VINA RESULT:      -8.5      4.086      8.094
REMARK  3 active torsions:
REMARK  status: ('A' for Active; 'I' for Inactive)
REMARK    1  A    between atoms: C_3  and  C_4 
REMARK       I    between atoms: C_4  and  N_5 
REMARK    2  A    between atoms: N_5  and  C_6 
REMARK    3  A    between atoms: C_13  and  C_14 
REMARK       I    between atoms: C_14  and  N_15 
ROOT
HETATM    1  C   UNL     1      41.285 -13.430   1.719  1.00  0.00     0.262 C 
HETATM    2  N   UNL     1      42.544 -13.964   1.898  1.00  0.00    -0.323 N 
HETATM    3  O   UNL     1      40.252 -13.910   2.177  1.00  0.00    -0.267 OA
HETATM    4  H   UNL     1      43.301 -13.529   1.371  1.00  0.00     0.169 HD
ENDROOT
BRANCH   2   5
HETATM    5  C   UNL     1      42.898 -15.151   2.579  1.00  0.00     0.036 A 
HETATM    6  C   UNL     1      43.056 -15.241   3.969  1.00  0.00     0.046 A 
HETATM    7  C   UNL     1      43.363 -16.489   4.556  1.00  0.00     0.030 A 
HETATM    8  C   UNL     1      43.519 -17.597   3.734  1.00  0.00     0.063 A 
HETATM    9  C   UNL     1      43.569 -16.979   5.882  1.00  0.00     0.156 A 
HETATM   10  N   UNL     1      43.794 -18.638   4.575  1.00  0.00    -0.277 N 
HETATM   11  C   UNL     1      43.391 -17.540   2.346  1.00  0.00     0.034 A 
HETATM   12  H   UNL     1      43.963 -19.604   4.321  1.00  0.00     0.189 HD
HETATM   13  N   UNL     1      43.830 -18.307   5.877  1.00  0.00    -0.168 NA
HETATM   14  C   UNL     1      43.076 -16.296   1.790  1.00  0.00     0.032 A 
BRANCH   9  15
HETATM   15  C   UNL     1      43.513 -16.221   7.139  1.00  0.00     0.270 C 
HETATM   16  N   UNL     1      43.770 -16.971   8.254  1.00  0.00    -0.365 N 
HETATM   17  H   UNL     1      43.966 -17.958   8.140  1.00  0.00     0.159 HD
HETATM   18  H   UNL     1      43.740 -16.540   9.164  1.00  0.00     0.159 HD
HETATM   19  O   UNL     1      43.259 -15.025   7.225  1.00  0.00    -0.266 OA
ENDBRANCH   9  15
ENDBRANCH   2   5
BRANCH   1  20
HETATM   20  C   UNL     1      41.222 -12.205   0.828  1.00  0.00     0.114 C 
HETATM   21  C   UNL     1      40.683 -12.291  -0.414  1.00  0.00    -0.027 C 
HETATM   22  C   UNL     1      39.893 -13.476  -0.921  1.00  0.00     0.050 C 
HETATM   23  C   UNL     1      40.870 -11.166  -1.356  1.00  0.00     0.005 A 
HETATM   24  C   UNL     1      41.489 -10.004  -0.906  1.00  0.00     0.090 A 
HETATM   25  C   UNL     1      40.511 -11.211  -2.713  1.00  0.00     0.015 A 
HETATM   26  O   UNL     1      41.913  -9.876   0.421  1.00  0.00    -0.274 OA
HETATM   27  C   UNL     1      41.736  -8.910  -1.738  1.00  0.00     0.038 A 
HETATM   28  C   UNL     1      41.798 -10.924   1.312  1.00  0.00     0.304 C 
HETATM   29  O   UNL     1      42.127 -10.770   2.487  1.00  0.00    -0.259 OA
HETATM   30  C   UNL     1      41.364  -8.972  -3.077  1.00  0.00     0.003 A 
HETATM   31  C   UNL     1      40.754 -10.124  -3.564  1.00  0.00     0.001 A 
ENDBRANCH   1  20
TORSDOF 3
ENDMDL
MODEL 7
REMARK VINA RESULT:      -8.4      3.547      8.899
REMARK  3 active torsions:
REMARK  status: ('A' for Active; 'I' for Inactive)
REMARK    1  A    between atoms: C_3  and  C_4 
REMARK       I    between atoms: C_4  and  N_5 
REMARK    2  A    between atoms: N_5  and  C_6 
REMARK    3  A    between atoms: C_13  and  C_14 
REMARK       I    between atoms: C_14  and  N_15 
ROOT
HETATM    1  C   UNL     1      43.353 -11.679   6.375  1.00  0.00     0.262 C 
HETATM    2  N   UNL     1      42.785 -12.913   6.615  1.00  0.00    -0.323 N 
HETATM    3  O   UNL     1      44.112 -11.430   5.442  1.00  0.00    -0.267 OA
HETATM    4  H   UNL     1      42.263 -13.011   7.486  1.00  0.00     0.169 HD
ENDROOT
BRANCH   2   5
HETATM    5  C   UNL     1      42.978 -14.116   5.899  1.00  0.00     0.036 A 
HETATM    6  C   UNL     1      42.380 -14.399   4.664  1.00  0.00     0.046 A 
HETATM    7  C   UNL     1      42.680 -15.613   4.006  1.00  0.00     0.030 A 
HETATM    8  C   UNL     1      43.552 -16.508   4.612  1.00  0.00     0.063 A 
HETATM    9  C   UNL     1      42.312 -16.234   2.773  1.00  0.00     0.156 A 
HETATM   10  N   UNL     1      43.651 -17.561   3.748  1.00  0.00    -0.277 N 
HETATM   11  C   UNL     1      44.149 -16.269   5.851  1.00  0.00     0.034 A 
HETATM   12  H   UNL     1      44.208 -18.400   3.865  1.00  0.00     0.189 HD
HETATM   13  N   UNL     1      42.922 -17.433   2.627  1.00  0.00    -0.168 NA
HETATM   14  C   UNL     1      43.844 -15.055   6.477  1.00  0.00     0.032 A 
BRANCH   9  15
HETATM   15  C   UNL     1      41.409 -15.711   1.739  1.00  0.00     0.270 C 
HETATM   16  N   UNL     1      41.996 -14.816   0.887  1.00  0.00    -0.365 N 
HETATM   17  H   UNL     1      42.972 -14.580   1.028  1.00  0.00     0.159 HD
HETATM   18  H   UNL     1      41.451 -14.392   0.153  1.00  0.00     0.159 HD
HETATM   19  O   UNL     1      40.229 -16.020   1.617  1.00  0.00    -0.266 OA
ENDBRANCH   9  15
ENDBRANCH   2   5
BRANCH   1  20
HETATM   20  C   UNL     1      43.041 -10.611   7.404  1.00  0.00     0.114 C 
HETATM   21  C   UNL     1      43.926 -10.341   8.397  1.00  0.00    -0.027 C 
HETATM   22  C   UNL     1      45.348 -10.851   8.435  1.00  0.00     0.050 C 
HETATM   23  C   UNL     1      43.494  -9.494   9.531  1.00  0.00     0.005 A 
HETATM   24  C   UNL     1      42.234  -8.904   9.492  1.00  0.00     0.090 A 
HETATM   25  C   UNL     1      44.257  -9.289  10.692  1.00  0.00     0.015 A 
HETATM   26  O   UNL     1      41.386  -9.077   8.393  1.00  0.00    -0.274 OA
HETATM   27  C   UNL     1      41.736  -8.121  10.535  1.00  0.00     0.038 A 
HETATM   28  C   UNL     1      41.739  -9.899   7.341  1.00  0.00     0.304 C 
HETATM   29  O   UNL     1      41.001  -9.993   6.361  1.00  0.00    -0.259 OA
HETATM   30  C   UNL     1      42.512  -7.923  11.672  1.00  0.00     0.003 A 
HETATM   31  C   UNL     1      43.772  -8.509  11.750  1.00  0.00     0.001 A 
ENDBRANCH   1  20
TORSDOF 3
ENDMDL
MODEL 8
REMARK VINA RESULT:      -8.3      4.506      9.775
REMARK  3 active torsions:
REMARK  status: ('A' for Active; 'I' for Inactive)
REMARK    1  A    between atoms: C_3  and  C_4 
REMARK       I    between atoms: C_4  and  N_5 
REMARK    2  A    between atoms: N_5  and  C_6 
REMARK    3  A    between atoms: C_13  and  C_14 
REMARK       I    between atoms: C_14  and  N_15 
ROOT
HETATM    1  C   UNL     1      44.150 -10.311   8.756  1.00  0.00     0.262 C 
HETATM    2  N   UNL     1      43.163 -10.524   7.816  1.00  0.00    -0.323 N 
HETATM    3  O   UNL     1      45.219 -10.914   8.794  1.00  0.00    -0.267 OA
HETATM    4  H   UNL     1      42.280 -10.035   7.966  1.00  0.00     0.169 HD
ENDROOT
BRANCH   2   5
HETATM    5  C   UNL     1      43.149 -11.469   6.766  1.00  0.00     0.036 A 
HETATM    6  C   UNL     1      43.294 -12.851   6.951  1.00  0.00     0.046 A 
HETATM    7  C   UNL     1      43.216 -13.716   5.837  1.00  0.00     0.030 A 
HETATM    8  C   UNL     1      43.014 -13.170   4.576  1.00  0.00     0.063 A 
HETATM    9  C   UNL     1      43.282 -15.126   5.622  1.00  0.00     0.156 A 
HETATM   10  N   UNL     1      42.972 -14.234   3.721  1.00  0.00    -0.277 N 
HETATM   11  C   UNL     1      42.888 -11.798   4.351  1.00  0.00     0.034 A 
HETATM   12  H   UNL     1      42.835 -14.210   2.717  1.00  0.00     0.189 HD
HETATM   13  N   UNL     1      43.127 -15.431   4.313  1.00  0.00    -0.168 NA
HETATM   14  C   UNL     1      42.958 -10.964   5.472  1.00  0.00     0.032 A 
BRANCH   9  15
HETATM   15  C   UNL     1      43.480 -16.179   6.628  1.00  0.00     0.270 C 
HETATM   16  N   UNL     1      42.409 -16.364   7.459  1.00  0.00    -0.365 N 
HETATM   17  H   UNL     1      41.591 -15.780   7.333  1.00  0.00     0.159 HD
HETATM   18  H   UNL     1      42.456 -17.056   8.190  1.00  0.00     0.159 HD
HETATM   19  O   UNL     1      44.497 -16.853   6.748  1.00  0.00    -0.266 OA
ENDBRANCH   9  15
ENDBRANCH   2   5
BRANCH   1  20
HETATM   20  C   UNL     1      43.810  -9.303   9.836  1.00  0.00     0.114 C 
HETATM   21  C   UNL     1      43.589  -9.715  11.110  1.00  0.00    -0.027 C 
HETATM   22  C   UNL     1      43.899 -11.103  11.624  1.00  0.00     0.050 C 
HETATM   23  C   UNL     1      43.005  -8.764  12.080  1.00  0.00     0.005 A 
HETATM   24  C   UNL     1      42.806  -7.441  11.693  1.00  0.00     0.090 A 
HETATM   25  C   UNL     1      42.574  -9.121  13.368  1.00  0.00     0.015 A 
HETATM   26  O   UNL     1      43.171  -6.996  10.419  1.00  0.00    -0.274 OA
HETATM   27  C   UNL     1      42.228  -6.489  12.535  1.00  0.00     0.038 A 
HETATM   28  C   UNL     1      43.674  -7.869   9.474  1.00  0.00     0.304 C 
HETATM   29  O   UNL     1      44.039  -7.444   8.379  1.00  0.00    -0.259 OA
HETATM   30  C   UNL     1      41.818  -6.862  13.810  1.00  0.00     0.003 A 
HETATM   31  C   UNL     1      41.989  -8.180  14.225  1.00  0.00     0.001 A 
ENDBRANCH   1  20
TORSDOF 3
ENDMDL
MODEL 9
REMARK VINA RESULT:      -8.3      1.532      2.376
REMARK  3 active torsions:
REMARK  status: ('A' for Active; 'I' for Inactive)
REMARK    1  A    between atoms: C_3  and  C_4 
REMARK       I    between atoms: C_4  and  N_5 
REMARK    2  A    between atoms: N_5  and  C_6 
REMARK    3  A    between atoms: C_13  and  C_14 
REMARK       I    between atoms: C_14  and  N_15 
ROOT
HETATM    1  C   UNL     1      41.766 -13.627   4.339  1.00  0.00     0.262 C 
HETATM    2  N   UNL     1      40.456 -13.299   4.619  1.00  0.00    -0.323 N 
HETATM    3  O   UNL     1      42.705 -12.836   4.364  1.00  0.00    -0.267 OA
HETATM    4  H   UNL     1      39.760 -14.027   4.453  1.00  0.00     0.169 HD
ENDROOT
BRANCH   2   5
HETATM    5  C   UNL     1      39.925 -12.029   4.939  1.00  0.00     0.036 A 
HETATM    6  C   UNL     1      39.943 -11.471   6.224  1.00  0.00     0.046 A 
HETATM    7  C   UNL     1      39.429 -10.171   6.427  1.00  0.00     0.030 A 
HETATM    8  C   UNL     1      38.901  -9.481   5.343  1.00  0.00     0.063 A 
HETATM    9  C   UNL     1      39.297  -9.278   7.534  1.00  0.00     0.156 A 
HETATM   10  N   UNL     1      38.503  -8.273   5.841  1.00  0.00    -0.277 N 
HETATM   11  C   UNL     1      38.847 -10.014   4.054  1.00  0.00     0.034 A 
HETATM   12  H   UNL     1      38.074  -7.510   5.329  1.00  0.00     0.189 HD
HETATM   13  N   UNL     1      38.727  -8.110   7.155  1.00  0.00    -0.168 NA
HETATM   14  C   UNL     1      39.371 -11.298   3.878  1.00  0.00     0.032 A 
BRANCH   9  15
HETATM   15  C   UNL     1      39.705  -9.507   8.926  1.00  0.00     0.270 C 
HETATM   16  N   UNL     1      41.059  -9.563   9.108  1.00  0.00    -0.365 N 
HETATM   17  H   UNL     1      41.662  -9.454   8.301  1.00  0.00     0.159 HD
HETATM   18  H   UNL     1      41.434  -9.731  10.028  1.00  0.00     0.159 HD
HETATM   19  O   UNL     1      38.933  -9.644   9.870  1.00  0.00    -0.266 OA
ENDBRANCH   9  15
ENDBRANCH   2   5
BRANCH   1  20
HETATM   20  C   UNL     1      41.997 -15.062   3.907  1.00  0.00     0.114 C 
HETATM   21  C   UNL     1      42.657 -15.923   4.722  1.00  0.00    -0.027 C 
HETATM   22  C   UNL     1      42.983 -15.645   6.172  1.00  0.00     0.050 C 
HETATM   23  C   UNL     1      43.100 -17.226   4.180  1.00  0.00     0.005 A 
HETATM   24  C   UNL     1      42.726 -17.582   2.888  1.00  0.00     0.090 A 
HETATM   25  C   UNL     1      43.935 -18.120   4.870  1.00  0.00     0.015 A 
HETATM   26  O   UNL     1      41.924 -16.744   2.108  1.00  0.00    -0.274 OA
HETATM   27  C   UNL     1      43.131 -18.777   2.289  1.00  0.00     0.038 A 
HETATM   28  C   UNL     1      41.534 -15.501   2.566  1.00  0.00     0.304 C 
HETATM   29  O   UNL     1      40.783 -14.804   1.884  1.00  0.00    -0.259 OA
HETATM   30  C   UNL     1      43.950 -19.652   2.993  1.00  0.00     0.003 A 
HETATM   31  C   UNL     1      44.354 -19.322   4.284  1.00  0.00     0.001 A 
ENDBRANCH   1  20
TORSDOF 3
ENDMDL
MODEL 10
REMARK VINA RESULT:      -8.1      4.371      9.606
REMARK  3 active torsions:
REMARK  status: ('A' for Active; 'I' for Inactive)
REMARK    1  A    between atoms: C_3  and  C_4 
REMARK       I    between atoms: C_4  and  N_5 
REMARK    2  A    between atoms: N_5  and  C_6 
REMARK    3  A    between atoms: C_13  and  C_14 
REMARK       I    between atoms: C_14  and  N_15 
ROOT
HETATM    1  C   UNL     1      43.775 -10.035   8.219  1.00  0.00     0.262 C 
HETATM    2  N   UNL     1      42.821 -10.834   7.623  1.00  0.00    -0.323 N 
HETATM    3  O   UNL     1      44.892  -9.819   7.757  1.00  0.00    -0.267 OA
HETATM    4  H   UNL     1      41.978 -11.017   8.168  1.00  0.00     0.169 HD
ENDROOT
BRANCH   2   5
HETATM    5  C   UNL     1      42.933 -11.580   6.428  1.00  0.00     0.036 A 
HETATM    6  C   UNL     1      42.969 -12.980   6.377  1.00  0.00     0.046 A 
HETATM    7  C   UNL     1      43.032 -13.631   5.124  1.00  0.00     0.030 A 
HETATM    8  C   UNL     1      43.074 -12.861   3.969  1.00  0.00     0.063 A 
HETATM    9  C   UNL     1      43.058 -14.984   4.668  1.00  0.00     0.156 A 
HETATM   10  N   UNL     1      43.119 -13.755   2.938  1.00  0.00    -0.277 N 
HETATM   11  C   UNL     1      43.062 -11.465   3.983  1.00  0.00     0.034 A 
HETATM   12  H   UNL     1      43.153 -13.546   1.946  1.00  0.00     0.189 HD
HETATM   13  N   UNL     1      43.108 -15.044   3.317  1.00  0.00    -0.168 NA
HETATM   14  C   UNL     1      42.988 -10.845   5.235  1.00  0.00     0.032 A 
BRANCH   9  15
HETATM   15  C   UNL     1      43.027 -16.207   5.481  1.00  0.00     0.270 C 
HETATM   16  N   UNL     1      44.127 -17.006   5.328  1.00  0.00    -0.365 N 
HETATM   17  H   UNL     1      44.853 -16.713   4.685  1.00  0.00     0.159 HD
HETATM   18  H   UNL     1      44.188 -17.874   5.836  1.00  0.00     0.159 HD
HETATM   19  O   UNL     1      42.116 -16.522   6.238  1.00  0.00    -0.266 OA
ENDBRANCH   9  15
ENDBRANCH   2   5
BRANCH   1  20
HETATM   20  C   UNL     1      43.391  -9.465   9.570  1.00  0.00     0.114 C 
HETATM   21  C   UNL     1      42.870  -8.216   9.661  1.00  0.00    -0.027 C 
HETATM   22  C   UNL     1      42.394  -7.401   8.480  1.00  0.00     0.050 C 
HETATM   23  C   UNL     1      42.751  -7.584  10.994  1.00  0.00     0.005 A 
HETATM   24  C   UNL     1      43.066  -8.331  12.126  1.00  0.00     0.090 A 
HETATM   25  C   UNL     1      42.393  -6.242  11.197  1.00  0.00     0.015 A 
HETATM   26  O   UNL     1      43.467  -9.667  12.024  1.00  0.00    -0.274 OA
HETATM   27  C   UNL     1      43.015  -7.801  13.416  1.00  0.00     0.038 A 
HETATM   28  C   UNL     1      43.634 -10.271  10.794  1.00  0.00     0.304 C 
HETATM   29  O   UNL     1      43.934 -11.462  10.731  1.00  0.00    -0.259 OA
HETATM   30  C   UNL     1      42.648  -6.471  13.595  1.00  0.00     0.003 A 
HETATM   31  C   UNL     1      42.339  -5.692  12.485  1.00  0.00     0.001 A 
ENDBRANCH   1  20
TORSDOF 3
ENDMDL
