MODEL 1
REMARK VINA RESULT:      -9.2      0.000      0.000
REMARK  6 active torsions:
REMARK  status: ('A' for Active; 'I' for Inactive)
REMARK    1  A    between atoms: C_5  and  N_6 
REMARK    2  A    between atoms: N_6  and  N_7 
REMARK       I    between atoms: N_7  and  C_8 
REMARK    3  A    between atoms: C_8  and  C_9 
REMARK    4  A    between atoms: C_9  and  N_10 
REMARK    5  A    between atoms: N_10  and  C_11 
REMARK    6  A    between atoms: C_13  and  C_14 
ROOT
HETATM    1  C   UNL     1      40.083 -11.684   2.551  1.00  0.00     0.203 A 
HETATM    2  N   UNL     1      40.785 -12.811   2.663  1.00  0.00    -0.217 NA
HETATM    3  C   UNL     1      40.716 -13.693   1.638  1.00  0.00     0.083 A 
HETATM    4  C   UNL     1      39.914 -13.480   0.503  1.00  0.00     0.023 A 
HETATM    5  C   UNL     1      39.240 -12.257   0.499  1.00  0.00     0.072 A 
HETATM    6  N   UNL     1      39.322 -11.375   1.498  1.00  0.00    -0.218 NA
HETATM    7  C   UNL     1      39.729 -14.382  -0.582  1.00  0.00     0.023 A 
HETATM    8  C   UNL     1      38.901 -14.060  -1.662  1.00  0.00    -0.061 A 
HETATM    9  C   UNL     1      38.726 -15.004  -2.815  1.00  0.00     0.048 C 
HETATM   10  C   UNL     1      38.266 -12.822  -1.665  1.00  0.00     0.009 A 
HETATM   11  C   UNL     1      38.435 -11.945  -0.590  1.00  0.00     0.033 A 
ENDROOT
BRANCH   1  12
HETATM   12  N   UNL     1      40.055 -10.759   3.586  1.00  0.00    -0.252 NA
HETATM   13  H   UNL     1      40.921 -10.925   4.092  1.00  0.00     0.131 HD
BRANCH  12  14
HETATM   14  C   UNL     1      38.863 -10.792   4.425  1.00  0.00     0.199 C 
BRANCH  14  15
HETATM   15  C   UNL     1      39.041 -11.691   5.653  1.00  0.00     0.245 C 
HETATM   16  N   UNL     1      39.274 -13.022   5.326  1.00  0.00    -0.286 N 
HETATM   17  H   UNL     1      39.614 -13.301   4.410  1.00  0.00     0.184 HD
HETATM   18  O   UNL     1      38.950 -11.304   6.819  1.00  0.00    -0.271 OA
BRANCH  16  19
HETATM   19  N   UNL     1      39.610 -13.895   6.380  1.00  0.00    -0.203 NA
HETATM   20  H   UNL     1      38.826 -14.547   6.545  1.00  0.00     0.153 HD
BRANCH  19  21
HETATM   21  C   UNL     1      40.770 -14.679   6.132  1.00  0.00     0.027 A 
HETATM   22  C   UNL     1      41.918 -14.014   5.680  1.00  0.00     0.026 A 
HETATM   23  C   UNL     1      43.120 -14.701   5.480  1.00  0.00     0.008 A 
HETATM   24  C   UNL     1      43.202 -16.071   5.740  1.00  0.00    -0.062 A 
HETATM   25  C   UNL     1      44.498 -16.806   5.573  1.00  0.00     0.048 C 
HETATM   26  C   UNL     1      42.070 -16.735   6.226  1.00  0.00     0.008 A 
HETATM   27  C   UNL     1      40.868 -16.046   6.421  1.00  0.00     0.026 A 
ENDBRANCH  19  21
ENDBRANCH  16  19
ENDBRANCH  14  15
ENDBRANCH  12  14
ENDBRANCH   1  12
BRANCH   3  28
HETATM   28  C   UNL     1      41.548 -14.893   1.841  1.00  0.00    -0.006 A 
HETATM   29  C   UNL     1      40.981 -16.077   2.344  1.00  0.00     0.014 A 
HETATM   30  C   UNL     1      41.756 -17.223   2.541  1.00  0.00     0.001 A 
HETATM   31  C   UNL     1      43.116 -17.203   2.244  1.00  0.00     0.000 A 
HETATM   32  C   UNL     1      43.704 -16.036   1.762  1.00  0.00     0.001 A 
HETATM   33  C   UNL     1      42.929 -14.889   1.571  1.00  0.00     0.014 A 
ENDBRANCH   3  28
TORSDOF 6
ENDMDL
MODEL 2
REMARK VINA RESULT:      -8.9      4.624      6.999
REMARK  6 active torsions:
REMARK  status: ('A' for Active; 'I' for Inactive)
REMARK    1  A    between atoms: C_5  and  N_6 
REMARK    2  A    between atoms: N_6  and  N_7 
REMARK       I    between atoms: N_7  and  C_8 
REMARK    3  A    between atoms: C_8  and  C_9 
REMARK    4  A    between atoms: C_9  and  N_10 
REMARK    5  A    between atoms: N_10  and  C_11 
REMARK    6  A    between atoms: C_13  and  C_14 
ROOT
HETATM    1  C   UNL     1      43.312 -15.297   5.642  1.00  0.00     0.203 A 
HETATM    2  N   UNL     1      42.654 -14.905   4.551  1.00  0.00    -0.217 NA
HETATM    3  C   UNL     1      42.514 -15.805   3.550  1.00  0.00     0.083 A 
HETATM    4  C   UNL     1      43.061 -17.099   3.606  1.00  0.00     0.023 A 
HETATM    5  C   UNL     1      43.714 -17.393   4.806  1.00  0.00     0.072 A 
HETATM    6  N   UNL     1      43.835 -16.514   5.805  1.00  0.00    -0.218 NA
HETATM    7  C   UNL     1      43.023 -18.079   2.576  1.00  0.00     0.023 A 
HETATM    8  C   UNL     1      43.608 -19.338   2.747  1.00  0.00    -0.061 A 
HETATM    9  C   UNL     1      43.545 -20.376   1.667  1.00  0.00     0.048 C 
HETATM   10  C   UNL     1      44.221 -19.624   3.963  1.00  0.00     0.009 A 
HETATM   11  C   UNL     1      44.273 -18.654   4.967  1.00  0.00     0.033 A 
ENDROOT
BRANCH   1  12
HETATM   12  N   UNL     1      43.548 -14.412   6.685  1.00  0.00    -0.252 NA
HETATM   13  H   UNL     1      42.966 -14.760   7.444  1.00  0.00     0.131 HD
BRANCH  12  14
HETATM   14  C   UNL     1      43.338 -13.004   6.373  1.00  0.00     0.199 C 
BRANCH  14  15
HETATM   15  C   UNL     1      44.328 -12.092   7.105  1.00  0.00     0.245 C 
HETATM   16  N   UNL     1      43.810 -11.556   8.278  1.00  0.00    -0.286 N 
HETATM   17  H   UNL     1      43.018 -11.972   8.758  1.00  0.00     0.184 HD
HETATM   18  O   UNL     1      45.455 -11.815   6.694  1.00  0.00    -0.271 OA
BRANCH  16  19
HETATM   19  N   UNL     1      44.698 -10.835   9.103  1.00  0.00    -0.203 NA
HETATM   20  H   UNL     1      45.169 -10.108   8.542  1.00  0.00     0.153 HD
BRANCH  19  21
HETATM   21  C   UNL     1      44.066 -10.185  10.198  1.00  0.00     0.027 A 
HETATM   22  C   UNL     1      43.659 -10.979  11.279  1.00  0.00     0.026 A 
HETATM   23  C   UNL     1      43.095 -10.409  12.424  1.00  0.00     0.008 A 
HETATM   24  C   UNL     1      42.935  -9.024  12.518  1.00  0.00    -0.062 A 
HETATM   25  C   UNL     1      42.374  -8.400  13.761  1.00  0.00     0.048 C 
HETATM   26  C   UNL     1      43.372  -8.221  11.459  1.00  0.00     0.008 A 
HETATM   27  C   UNL     1      43.932  -8.795  10.313  1.00  0.00     0.026 A 
ENDBRANCH  19  21
ENDBRANCH  16  19
ENDBRANCH  14  15
ENDBRANCH  12  14
ENDBRANCH   1  12
BRANCH   3  28
HETATM   28  C   UNL     1      41.748 -15.288   2.400  1.00  0.00    -0.006 A 
HETATM   29  C   UNL     1      42.130 -14.091   1.770  1.00  0.00     0.014 A 
HETATM   30  C   UNL     1      41.416 -13.589   0.679  1.00  0.00     0.001 A 
HETATM   31  C   UNL     1      40.300 -14.272   0.203  1.00  0.00     0.000 A 
HETATM   32  C   UNL     1      39.892 -15.451   0.823  1.00  0.00     0.001 A 
HETATM   33  C   UNL     1      40.605 -15.950   1.917  1.00  0.00     0.014 A 
ENDBRANCH   3  28
TORSDOF 6
ENDMDL
MODEL 3
REMARK VINA RESULT:      -8.5      2.329      6.052
REMARK  6 active torsions:
REMARK  status: ('A' for Active; 'I' for Inactive)
REMARK    1  A    between atoms: C_5  and  N_6 
REMARK    2  A    between atoms: N_6  and  N_7 
REMARK       I    between atoms: N_7  and  C_8 
REMARK    3  A    between atoms: C_8  and  C_9 
REMARK    4  A    between atoms: C_9  and  N_10 
REMARK    5  A    between atoms: N_10  and  C_11 
REMARK    6  A    between atoms: C_13  and  C_14 
ROOT
HETATM    1  C   UNL     1      43.149 -14.837   5.637  1.00  0.00     0.203 A 
HETATM    2  N   UNL     1      42.502 -14.528   4.513  1.00  0.00    -0.217 NA
HETATM    3  C   UNL     1      42.414 -15.486   3.561  1.00  0.00     0.083 A 
HETATM    4  C   UNL     1      43.003 -16.755   3.700  1.00  0.00     0.023 A 
HETATM    5  C   UNL     1      43.639 -16.960   4.927  1.00  0.00     0.072 A 
HETATM    6  N   UNL     1      43.709 -16.024   5.878  1.00  0.00    -0.218 NA
HETATM    7  C   UNL     1      43.020 -17.792   2.726  1.00  0.00     0.023 A 
HETATM    8  C   UNL     1      43.643 -19.018   2.979  1.00  0.00    -0.061 A 
HETATM    9  C   UNL     1      43.639 -20.116   1.957  1.00  0.00     0.048 C 
HETATM   10  C   UNL     1      44.239 -19.216   4.220  1.00  0.00     0.009 A 
HETATM   11  C   UNL     1      44.237 -18.190   5.170  1.00  0.00     0.033 A 
ENDROOT
BRANCH   1  12
HETATM   12  N   UNL     1      43.333 -13.888   6.633  1.00  0.00    -0.252 NA
HETATM   13  H   UNL     1      42.408 -13.487   6.770  1.00  0.00     0.131 HD
BRANCH  12  14
HETATM   14  C   UNL     1      44.374 -12.901   6.375  1.00  0.00     0.199 C 
BRANCH  14  15
HETATM   15  C   UNL     1      43.801 -11.559   5.908  1.00  0.00     0.245 C 
HETATM   16  N   UNL     1      43.527 -11.527   4.546  1.00  0.00    -0.286 N 
HETATM   17  H   UNL     1      43.405 -12.375   4.000  1.00  0.00     0.184 HD
HETATM   18  O   UNL     1      43.630 -10.582   6.639  1.00  0.00    -0.271 OA
BRANCH  16  19
HETATM   19  N   UNL     1      42.848 -10.395   4.052  1.00  0.00    -0.203 NA
HETATM   20  H   UNL     1      43.407  -9.964   3.298  1.00  0.00     0.153 HD
BRANCH  19  21
HETATM   21  C   UNL     1      41.562 -10.681   3.516  1.00  0.00     0.027 A 
HETATM   22  C   UNL     1      41.228 -10.103   2.284  1.00  0.00     0.026 A 
HETATM   23  C   UNL     1      40.012 -10.391   1.656  1.00  0.00     0.008 A 
HETATM   24  C   UNL     1      39.105 -11.275   2.245  1.00  0.00    -0.062 A 
HETATM   25  C   UNL     1      37.820 -11.626   1.556  1.00  0.00     0.048 C 
HETATM   26  C   UNL     1      39.447 -11.886   3.456  1.00  0.00     0.008 A 
HETATM   27  C   UNL     1      40.663 -11.593   4.084  1.00  0.00     0.026 A 
ENDBRANCH  19  21
ENDBRANCH  16  19
ENDBRANCH  14  15
ENDBRANCH  12  14
ENDBRANCH   1  12
BRANCH   3  28
HETATM   28  C   UNL     1      41.656 -15.061   2.369  1.00  0.00    -0.006 A 
HETATM   29  C   UNL     1      40.513 -15.770   1.961  1.00  0.00     0.014 A 
HETATM   30  C   UNL     1      39.784 -15.379   0.836  1.00  0.00     0.001 A 
HETATM   31  C   UNL     1      40.189 -14.273   0.093  1.00  0.00     0.000 A 
HETATM   32  C   UNL     1      41.329 -13.565   0.468  1.00  0.00     0.001 A 
HETATM   33  C   UNL     1      42.060 -13.961   1.590  1.00  0.00     0.014 A 
ENDBRANCH   3  28
TORSDOF 6
ENDMDL
MODEL 4
REMARK VINA RESULT:      -8.3      2.046      2.248
REMARK  6 active torsions:
REMARK  status: ('A' for Active; 'I' for Inactive)
REMARK    1  A    between atoms: C_5  and  N_6 
REMARK    2  A    between atoms: N_6  and  N_7 
REMARK       I    between atoms: N_7  and  C_8 
REMARK    3  A    between atoms: C_8  and  C_9 
REMARK    4  A    between atoms: C_9  and  N_10 
REMARK    5  A    between atoms: N_10  and  C_11 
REMARK    6  A    between atoms: C_13  and  C_14 
ROOT
HETATM    1  C   UNL     1      42.471 -11.299   2.724  1.00  0.00     0.203 A 
HETATM    2  N   UNL     1      42.569 -12.620   2.866  1.00  0.00    -0.217 NA
HETATM    3  C   UNL     1      42.010 -13.393   1.905  1.00  0.00     0.083 A 
HETATM    4  C   UNL     1      41.313 -12.860   0.808  1.00  0.00     0.023 A 
HETATM    5  C   UNL     1      41.293 -11.464   0.765  1.00  0.00     0.072 A 
HETATM    6  N   UNL     1      41.861 -10.697   1.700  1.00  0.00    -0.218 NA
HETATM    7  C   UNL     1      40.638 -13.596  -0.205  1.00  0.00     0.023 A 
HETATM    8  C   UNL     1      39.972 -12.952  -1.253  1.00  0.00    -0.061 A 
HETATM    9  C   UNL     1      39.281 -13.733  -2.331  1.00  0.00     0.048 C 
HETATM   10  C   UNL     1      39.995 -11.561  -1.297  1.00  0.00     0.009 A 
HETATM   11  C   UNL     1      40.643 -10.839  -0.292  1.00  0.00     0.033 A 
ENDROOT
BRANCH   1  12
HETATM   12  N   UNL     1      42.965 -10.442   3.698  1.00  0.00    -0.252 NA
HETATM   13  H   UNL     1      43.908 -10.781   3.873  1.00  0.00     0.131 HD
BRANCH  12  14
HETATM   14  C   UNL     1      42.147 -10.319   4.898  1.00  0.00     0.199 C 
BRANCH  14  15
HETATM   15  C   UNL     1      42.755 -11.056   6.096  1.00  0.00     0.245 C 
HETATM   16  N   UNL     1      42.351 -12.384   6.181  1.00  0.00    -0.286 N 
HETATM   17  H   UNL     1      41.978 -12.887   5.381  1.00  0.00     0.184 HD
HETATM   18  O   UNL     1      43.495 -10.537   6.932  1.00  0.00    -0.271 OA
BRANCH  16  19
HETATM   19  N   UNL     1      42.981 -13.188   7.152  1.00  0.00    -0.203 NA
HETATM   20  H   UNL     1      42.469 -13.108   8.045  1.00  0.00     0.153 HD
BRANCH  19  21
HETATM   21  C   UNL     1      43.032 -14.568   6.813  1.00  0.00     0.027 A 
HETATM   22  C   UNL     1      44.266 -15.091   6.403  1.00  0.00     0.026 A 
HETATM   23  C   UNL     1      44.417 -16.452   6.121  1.00  0.00     0.008 A 
HETATM   24  C   UNL     1      43.334 -17.325   6.252  1.00  0.00    -0.062 A 
HETATM   25  C   UNL     1      43.498 -18.794   5.996  1.00  0.00     0.048 C 
HETATM   26  C   UNL     1      42.108 -16.817   6.696  1.00  0.00     0.008 A 
HETATM   27  C   UNL     1      41.960 -15.454   6.975  1.00  0.00     0.026 A 
ENDBRANCH  19  21
ENDBRANCH  16  19
ENDBRANCH  14  15
ENDBRANCH  12  14
ENDBRANCH   1  12
BRANCH   3  28
HETATM   28  C   UNL     1      42.196 -14.838   2.134  1.00  0.00    -0.006 A 
HETATM   29  C   UNL     1      41.249 -15.570   2.872  1.00  0.00     0.014 A 
HETATM   30  C   UNL     1      41.410 -16.940   3.097  1.00  0.00     0.001 A 
HETATM   31  C   UNL     1      42.526 -17.602   2.593  1.00  0.00     0.000 A 
HETATM   32  C   UNL     1      43.487 -16.894   1.874  1.00  0.00     0.001 A 
HETATM   33  C   UNL     1      43.328 -15.523   1.655  1.00  0.00     0.014 A 
ENDBRANCH   3  28
TORSDOF 6
ENDMDL
MODEL 5
REMARK VINA RESULT:      -8.0      2.476      6.005
REMARK  6 active torsions:
REMARK  status: ('A' for Active; 'I' for Inactive)
REMARK    1  A    between atoms: C_5  and  N_6 
REMARK    2  A    between atoms: N_6  and  N_7 
REMARK       I    between atoms: N_7  and  C_8 
REMARK    3  A    between atoms: C_8  and  C_9 
REMARK    4  A    between atoms: C_9  and  N_10 
REMARK    5  A    between atoms: N_10  and  C_11 
REMARK    6  A    between atoms: C_13  and  C_14 
ROOT
HETATM    1  C   UNL     1      40.405 -11.735   5.602  1.00  0.00     0.203 A 
HETATM    2  N   UNL     1      41.609 -11.321   5.998  1.00  0.00    -0.217 NA
HETATM    3  C   UNL     1      42.502 -12.267   6.372  1.00  0.00     0.083 A 
HETATM    4  C   UNL     1      42.195 -13.639   6.392  1.00  0.00     0.023 A 
HETATM    5  C   UNL     1      40.909 -13.945   5.941  1.00  0.00     0.072 A 
HETATM    6  N   UNL     1      40.032 -13.016   5.552  1.00  0.00    -0.218 NA
HETATM    7  C   UNL     1      43.046 -14.690   6.835  1.00  0.00     0.023 A 
HETATM    8  C   UNL     1      42.628 -16.024   6.810  1.00  0.00    -0.061 A 
HETATM    9  C   UNL     1      43.536 -17.131   7.257  1.00  0.00     0.048 C 
HETATM   10  C   UNL     1      41.356 -16.312   6.324  1.00  0.00     0.009 A 
HETATM   11  C   UNL     1      40.515 -15.277   5.905  1.00  0.00     0.033 A 
ENDROOT
BRANCH   1  12
HETATM   12  N   UNL     1      39.417 -10.822   5.263  1.00  0.00    -0.252 NA
HETATM   13  H   UNL     1      38.704 -10.948   5.978  1.00  0.00     0.131 HD
BRANCH  12  14
HETATM   14  C   UNL     1      38.912 -10.921   3.899  1.00  0.00     0.199 C 
BRANCH  14  15
HETATM   15  C   UNL     1      39.960 -11.477   2.930  1.00  0.00     0.245 C 
HETATM   16  N   UNL     1      39.723 -12.798   2.569  1.00  0.00    -0.286 N 
HETATM   17  H   UNL     1      38.807 -13.227   2.663  1.00  0.00     0.184 HD
HETATM   18  O   UNL     1      40.942 -10.850   2.531  1.00  0.00    -0.271 OA
BRANCH  16  19
HETATM   19  N   UNL     1      40.538 -13.346   1.558  1.00  0.00    -0.203 NA
HETATM   20  H   UNL     1      41.208 -12.630   1.235  1.00  0.00     0.153 HD
BRANCH  19  21
HETATM   21  C   UNL     1      41.293 -14.476   1.976  1.00  0.00     0.027 A 
HETATM   22  C   UNL     1      42.518 -14.239   2.613  1.00  0.00     0.026 A 
HETATM   23  C   UNL     1      43.287 -15.294   3.118  1.00  0.00     0.008 A 
HETATM   24  C   UNL     1      42.839 -16.612   3.004  1.00  0.00    -0.062 A 
HETATM   25  C   UNL     1      43.634 -17.744   3.583  1.00  0.00     0.048 C 
HETATM   26  C   UNL     1      41.600 -16.854   2.402  1.00  0.00     0.008 A 
HETATM   27  C   UNL     1      40.834 -15.797   1.895  1.00  0.00     0.026 A 
ENDBRANCH  19  21
ENDBRANCH  16  19
ENDBRANCH  14  15
ENDBRANCH  12  14
ENDBRANCH   1  12
BRANCH   3  28
HETATM   28  C   UNL     1      43.811 -11.714   6.764  1.00  0.00    -0.006 A 
HETATM   29  C   UNL     1      43.996 -11.161   8.043  1.00  0.00     0.014 A 
HETATM   30  C   UNL     1      45.231 -10.633   8.431  1.00  0.00     0.001 A 
HETATM   31  C   UNL     1      46.303 -10.645   7.542  1.00  0.00     0.000 A 
HETATM   32  C   UNL     1      46.138 -11.172   6.263  1.00  0.00     0.001 A 
HETATM   33  C   UNL     1      44.902 -11.694   5.875  1.00  0.00     0.014 A 
ENDBRANCH   3  28
TORSDOF 6
ENDMDL
MODEL 6
REMARK VINA RESULT:      -7.8      5.000      6.236
REMARK  6 active torsions:
REMARK  status: ('A' for Active; 'I' for Inactive)
REMARK    1  A    between atoms: C_5  and  N_6 
REMARK    2  A    between atoms: N_6  and  N_7 
REMARK       I    between atoms: N_7  and  C_8 
REMARK    3  A    between atoms: C_8  and  C_9 
REMARK    4  A    between atoms: C_9  and  N_10 
REMARK    5  A    between atoms: N_10  and  C_11 
REMARK    6  A    between atoms: C_13  and  C_14 
ROOT
HETATM    1  C   UNL     1      42.144 -12.066   5.893  1.00  0.00     0.203 A 
HETATM    2  N   UNL     1      42.562 -13.319   6.073  1.00  0.00    -0.217 NA
HETATM    3  C   UNL     1      42.261 -14.221   5.110  1.00  0.00     0.083 A 
HETATM    4  C   UNL     1      41.505 -13.896   3.970  1.00  0.00     0.023 A 
HETATM    5  C   UNL     1      41.139 -12.550   3.891  1.00  0.00     0.072 A 
HETATM    6  N   UNL     1      41.452 -11.652   4.829  1.00  0.00    -0.218 NA
HETATM    7  C   UNL     1      41.085 -14.793   2.949  1.00  0.00     0.023 A 
HETATM    8  C   UNL     1      40.330 -14.352   1.858  1.00  0.00    -0.061 A 
HETATM    9  C   UNL     1      39.908 -15.296   0.773  1.00  0.00     0.048 C 
HETATM   10  C   UNL     1      40.006 -13.000   1.779  1.00  0.00     0.009 A 
HETATM   11  C   UNL     1      40.404 -12.124   2.792  1.00  0.00     0.033 A 
ENDROOT
BRANCH   1  12
HETATM   12  N   UNL     1      42.360 -11.099   6.865  1.00  0.00    -0.252 NA
HETATM   13  H   UNL     1      41.706 -10.357   6.628  1.00  0.00     0.131 HD
BRANCH  12  14
HETATM   14  C   UNL     1      43.740 -10.651   7.007  1.00  0.00     0.199 C 
BRANCH  14  15
HETATM   15  C   UNL     1      44.285 -10.886   8.420  1.00  0.00     0.245 C 
HETATM   16  N   UNL     1      43.300 -10.834   9.400  1.00  0.00    -0.286 N 
HETATM   17  H   UNL     1      42.316 -10.960   9.183  1.00  0.00     0.184 HD
HETATM   18  O   UNL     1      45.474 -11.063   8.688  1.00  0.00    -0.271 OA
BRANCH  16  19
HETATM   19  N   UNL     1      43.675 -11.197  10.709  1.00  0.00    -0.203 NA
HETATM   20  H   UNL     1      44.696 -11.351  10.741  1.00  0.00     0.153 HD
BRANCH  19  21
HETATM   21  C   UNL     1      43.363 -10.216  11.691  1.00  0.00     0.027 A 
HETATM   22  C   UNL     1      43.859  -8.920  11.494  1.00  0.00     0.026 A 
HETATM   23  C   UNL     1      43.538  -7.882  12.375  1.00  0.00     0.008 A 
HETATM   24  C   UNL     1      42.702  -8.117  13.470  1.00  0.00    -0.062 A 
HETATM   25  C   UNL     1      42.316  -7.000  14.393  1.00  0.00     0.048 C 
HETATM   26  C   UNL     1      42.174  -9.399  13.652  1.00  0.00     0.008 A 
HETATM   27  C   UNL     1      42.499 -10.437  12.771  1.00  0.00     0.026 A 
ENDBRANCH  19  21
ENDBRANCH  16  19
ENDBRANCH  14  15
ENDBRANCH  12  14
ENDBRANCH   1  12
BRANCH   3  28
HETATM   28  C   UNL     1      42.791 -15.570   5.384  1.00  0.00    -0.006 A 
HETATM   29  C   UNL     1      42.531 -16.201   6.614  1.00  0.00     0.014 A 
HETATM   30  C   UNL     1      43.025 -17.478   6.889  1.00  0.00     0.001 A 
HETATM   31  C   UNL     1      43.795 -18.146   5.940  1.00  0.00     0.000 A 
HETATM   32  C   UNL     1      44.080 -17.534   4.722  1.00  0.00     0.001 A 
HETATM   33  C   UNL     1      43.590 -16.254   4.450  1.00  0.00     0.014 A 
ENDBRANCH   3  28
TORSDOF 6
ENDMDL
MODEL 7
REMARK VINA RESULT:      -7.6     15.983     17.801
REMARK  6 active torsions:
REMARK  status: ('A' for Active; 'I' for Inactive)
REMARK    1  A    between atoms: C_5  and  N_6 
REMARK    2  A    between atoms: N_6  and  N_7 
REMARK       I    between atoms: N_7  and  C_8 
REMARK    3  A    between atoms: C_8  and  C_9 
REMARK    4  A    between atoms: C_9  and  N_10 
REMARK    5  A    between atoms: N_10  and  C_11 
REMARK    6  A    between atoms: C_13  and  C_14 
ROOT
HETATM    1  C   UNL     1      47.145 -28.248   1.671  1.00  0.00     0.203 A 
HETATM    2  N   UNL     1      46.041 -28.877   2.072  1.00  0.00    -0.217 NA
HETATM    3  C   UNL     1      45.150 -29.241   1.120  1.00  0.00     0.083 A 
HETATM    4  C   UNL     1      45.330 -28.949  -0.243  1.00  0.00     0.023 A 
HETATM    5  C   UNL     1      46.532 -28.300  -0.536  1.00  0.00     0.072 A 
HETATM    6  N   UNL     1      47.423 -27.958   0.398  1.00  0.00    -0.218 NA
HETATM    7  C   UNL     1      44.416 -29.230  -1.296  1.00  0.00     0.023 A 
HETATM    8  C   UNL     1      44.704 -28.888  -2.621  1.00  0.00    -0.061 A 
HETATM    9  C   UNL     1      43.748 -29.207  -3.731  1.00  0.00     0.048 C 
HETATM   10  C   UNL     1      45.923 -28.275  -2.897  1.00  0.00     0.009 A 
HETATM   11  C   UNL     1      46.812 -27.984  -1.859  1.00  0.00     0.033 A 
ENDROOT
BRANCH   1  12
HETATM   12  N   UNL     1      48.076 -27.789   2.594  1.00  0.00    -0.252 NA
HETATM   13  H   UNL     1      48.713 -27.220   2.043  1.00  0.00     0.131 HD
BRANCH  12  14
HETATM   14  C   UNL     1      48.734 -28.820   3.386  1.00  0.00     0.199 C 
BRANCH  14  15
HETATM   15  C   UNL     1      49.389 -29.896   2.512  1.00  0.00     0.245 C 
HETATM   16  N   UNL     1      48.474 -30.793   1.974  1.00  0.00    -0.286 N 
HETATM   17  H   UNL     1      47.486 -30.572   1.893  1.00  0.00     0.184 HD
HETATM   18  O   UNL     1      50.602 -29.998   2.325  1.00  0.00    -0.271 OA
BRANCH  16  19
HETATM   19  N   UNL     1      48.959 -31.719   1.029  1.00  0.00    -0.203 NA
HETATM   20  H   UNL     1      48.895 -32.672   1.422  1.00  0.00     0.153 HD
BRANCH  19  21
HETATM   21  C   UNL     1      48.245 -31.716  -0.200  1.00  0.00     0.027 A 
HETATM   22  C   UNL     1      48.917 -31.257  -1.341  1.00  0.00     0.026 A 
HETATM   23  C   UNL     1      48.309 -31.288  -2.600  1.00  0.00     0.008 A 
HETATM   24  C   UNL     1      47.014 -31.791  -2.747  1.00  0.00    -0.062 A 
HETATM   25  C   UNL     1      46.372 -31.872  -4.100  1.00  0.00     0.048 C 
HETATM   26  C   UNL     1      46.350 -32.286  -1.619  1.00  0.00     0.008 A 
HETATM   27  C   UNL     1      46.959 -32.250  -0.360  1.00  0.00     0.026 A 
ENDBRANCH  19  21
ENDBRANCH  16  19
ENDBRANCH  14  15
ENDBRANCH  12  14
ENDBRANCH   1  12
BRANCH   3  28
HETATM   28  C   UNL     1      43.977 -29.956   1.658  1.00  0.00    -0.006 A 
HETATM   29  C   UNL     1      43.998 -31.354   1.797  1.00  0.00     0.014 A 
HETATM   30  C   UNL     1      42.896 -32.046   2.306  1.00  0.00     0.001 A 
HETATM   31  C   UNL     1      41.749 -31.351   2.679  1.00  0.00     0.000 A 
HETATM   32  C   UNL     1      41.699 -29.967   2.534  1.00  0.00     0.001 A 
HETATM   33  C   UNL     1      42.799 -29.276   2.020  1.00  0.00     0.014 A 
ENDBRANCH   3  28
TORSDOF 6
ENDMDL
MODEL 8
REMARK VINA RESULT:      -7.4      4.109      5.405
REMARK  6 active torsions:
REMARK  status: ('A' for Active; 'I' for Inactive)
REMARK    1  A    between atoms: C_5  and  N_6 
REMARK    2  A    between atoms: N_6  and  N_7 
REMARK       I    between atoms: N_7  and  C_8 
REMARK    3  A    between atoms: C_8  and  C_9 
REMARK    4  A    between atoms: C_9  and  N_10 
REMARK    5  A    between atoms: N_10  and  C_11 
REMARK    6  A    between atoms: C_13  and  C_14 
ROOT
HETATM    1  C   UNL     1      42.234 -13.438   5.326  1.00  0.00     0.203 A 
HETATM    2  N   UNL     1      42.681 -14.664   5.051  1.00  0.00    -0.217 NA
HETATM    3  C   UNL     1      42.342 -15.197   3.853  1.00  0.00     0.083 A 
HETATM    4  C   UNL     1      41.521 -14.530   2.927  1.00  0.00     0.023 A 
HETATM    5  C   UNL     1      41.130 -13.250   3.326  1.00  0.00     0.072 A 
HETATM    6  N   UNL     1      41.479 -12.712   4.498  1.00  0.00    -0.218 NA
HETATM    7  C   UNL     1      41.061 -15.043   1.682  1.00  0.00     0.023 A 
HETATM    8  C   UNL     1      40.241 -14.284   0.842  1.00  0.00    -0.061 A 
HETATM    9  C   UNL     1      39.776 -14.820  -0.480  1.00  0.00     0.048 C 
HETATM   10  C   UNL     1      39.891 -12.998   1.240  1.00  0.00     0.009 A 
HETATM   11  C   UNL     1      40.330 -12.502   2.471  1.00  0.00     0.033 A 
ENDROOT
BRANCH   1  12
HETATM   12  N   UNL     1      42.487 -12.850   6.557  1.00  0.00    -0.252 NA
HETATM   13  H   UNL     1      42.061 -11.929   6.485  1.00  0.00     0.131 HD
BRANCH  12  14
HETATM   14  C   UNL     1      43.886 -12.827   6.965  1.00  0.00     0.199 C 
BRANCH  14  15
HETATM   15  C   UNL     1      44.258 -11.531   7.693  1.00  0.00     0.245 C 
HETATM   16  N   UNL     1      43.186 -10.659   7.836  1.00  0.00    -0.286 N 
HETATM   17  H   UNL     1      42.222 -10.973   7.770  1.00  0.00     0.184 HD
HETATM   18  O   UNL     1      45.392 -11.253   8.085  1.00  0.00    -0.271 OA
BRANCH  16  19
HETATM   19  N   UNL     1      43.388  -9.513   8.633  1.00  0.00    -0.203 NA
HETATM   20  H   UNL     1      43.060  -8.679   8.121  1.00  0.00     0.153 HD
BRANCH  19  21
HETATM   21  C   UNL     1      42.700  -9.548   9.877  1.00  0.00     0.027 A 
HETATM   22  C   UNL     1      41.331  -9.249   9.870  1.00  0.00     0.026 A 
HETATM   23  C   UNL     1      40.567  -9.329  11.039  1.00  0.00     0.008 A 
HETATM   24  C   UNL     1      41.158  -9.721  12.243  1.00  0.00    -0.062 A 
HETATM   25  C   UNL     1      40.337  -9.855  13.491  1.00  0.00     0.048 C 
HETATM   26  C   UNL     1      42.516 -10.056  12.251  1.00  0.00     0.008 A 
HETATM   27  C   UNL     1      43.278  -9.971  11.080  1.00  0.00     0.026 A 
ENDBRANCH  19  21
ENDBRANCH  16  19
ENDBRANCH  14  15
ENDBRANCH  12  14
ENDBRANCH   1  12
BRANCH   3  28
HETATM   28  C   UNL     1      42.908 -16.540   3.629  1.00  0.00    -0.006 A 
HETATM   29  C   UNL     1      42.554 -17.281   2.489  1.00  0.00     0.014 A 
HETATM   30  C   UNL     1      43.082 -18.555   2.262  1.00  0.00     0.001 A 
HETATM   31  C   UNL     1      43.971 -19.114   3.176  1.00  0.00     0.000 A 
HETATM   32  C   UNL     1      44.323 -18.405   4.322  1.00  0.00     0.001 A 
HETATM   33  C   UNL     1      43.790 -17.134   4.551  1.00  0.00     0.014 A 
ENDBRANCH   3  28
TORSDOF 6
ENDMDL
MODEL 9
REMARK VINA RESULT:      -7.4      2.708      4.517
REMARK  6 active torsions:
REMARK  status: ('A' for Active; 'I' for Inactive)
REMARK    1  A    between atoms: C_5  and  N_6 
REMARK    2  A    between atoms: N_6  and  N_7 
REMARK       I    between atoms: N_7  and  C_8 
REMARK    3  A    between atoms: C_8  and  C_9 
REMARK    4  A    between atoms: C_9  and  N_10 
REMARK    5  A    between atoms: N_10  and  C_11 
REMARK    6  A    between atoms: C_13  and  C_14 
ROOT
HETATM    1  C   UNL     1      41.373 -11.264   1.086  1.00  0.00     0.203 A 
HETATM    2  N   UNL     1      40.584 -12.029   0.332  1.00  0.00    -0.217 NA
HETATM    3  C   UNL     1      40.368 -11.636  -0.945  1.00  0.00     0.083 A 
HETATM    4  C   UNL     1      40.906 -10.452  -1.478  1.00  0.00     0.023 A 
HETATM    5  C   UNL     1      41.725  -9.746  -0.595  1.00  0.00     0.072 A 
HETATM    6  N   UNL     1      41.958 -10.142   0.659  1.00  0.00    -0.218 NA
HETATM    7  C   UNL     1      40.673  -9.929  -2.781  1.00  0.00     0.023 A 
HETATM    8  C   UNL     1      41.264  -8.734  -3.202  1.00  0.00    -0.061 A 
HETATM    9  C   UNL     1      41.035  -8.198  -4.584  1.00  0.00     0.048 C 
HETATM   10  C   UNL     1      42.107  -8.064  -2.320  1.00  0.00     0.009 A 
HETATM   11  C   UNL     1      42.320  -8.570  -1.034  1.00  0.00     0.033 A 
ENDROOT
BRANCH   1  12
HETATM   12  N   UNL     1      41.592 -11.568   2.422  1.00  0.00    -0.252 NA
HETATM   13  H   UNL     1      42.025 -12.489   2.400  1.00  0.00     0.131 HD
BRANCH  12  14
HETATM   14  C   UNL     1      40.421 -11.485   3.285  1.00  0.00     0.199 C 
BRANCH  14  15
HETATM   15  C   UNL     1      40.025 -12.848   3.861  1.00  0.00     0.245 C 
HETATM   16  N   UNL     1      39.972 -13.852   2.902  1.00  0.00    -0.286 N 
HETATM   17  H   UNL     1      40.453 -13.772   2.010  1.00  0.00     0.184 HD
HETATM   18  O   UNL     1      39.738 -13.049   5.042  1.00  0.00    -0.271 OA
BRANCH  16  19
HETATM   19  N   UNL     1      39.775 -15.171   3.359  1.00  0.00    -0.203 NA
HETATM   20  H   UNL     1      39.121 -15.657   2.725  1.00  0.00     0.153 HD
BRANCH  19  21
HETATM   21  C   UNL     1      40.966 -15.945   3.416  1.00  0.00     0.027 A 
HETATM   22  C   UNL     1      41.517 -16.197   4.680  1.00  0.00     0.026 A 
HETATM   23  C   UNL     1      42.647 -17.008   4.828  1.00  0.00     0.008 A 
HETATM   24  C   UNL     1      43.246 -17.595   3.711  1.00  0.00    -0.062 A 
HETATM   25  C   UNL     1      44.430 -18.504   3.866  1.00  0.00     0.048 C 
HETATM   26  C   UNL     1      42.681 -17.379   2.450  1.00  0.00     0.008 A 
HETATM   27  C   UNL     1      41.552 -16.564   2.304  1.00  0.00     0.026 A 
ENDBRANCH  19  21
ENDBRANCH  16  19
ENDBRANCH  14  15
ENDBRANCH  12  14
ENDBRANCH   1  12
BRANCH   3  28
HETATM   28  C   UNL     1      39.508 -12.562  -1.706  1.00  0.00    -0.006 A 
HETATM   29  C   UNL     1      40.049 -13.724  -2.283  1.00  0.00     0.014 A 
HETATM   30  C   UNL     1      39.248 -14.612  -3.006  1.00  0.00     0.001 A 
HETATM   31  C   UNL     1      37.890 -14.349  -3.169  1.00  0.00     0.000 A 
HETATM   32  C   UNL     1      37.335 -13.195  -2.621  1.00  0.00     0.001 A 
HETATM   33  C   UNL     1      38.139 -12.305  -1.903  1.00  0.00     0.014 A 
ENDBRANCH   3  28
TORSDOF 6
ENDMDL
MODEL 10
REMARK VINA RESULT:      -7.4     15.905     18.395
REMARK  6 active torsions:
REMARK  status: ('A' for Active; 'I' for Inactive)
REMARK    1  A    between atoms: C_5  and  N_6 
REMARK    2  A    between atoms: N_6  and  N_7 
REMARK       I    between atoms: N_7  and  C_8 
REMARK    3  A    between atoms: C_8  and  C_9 
REMARK    4  A    between atoms: C_9  and  N_10 
REMARK    5  A    between atoms: N_10  and  C_11 
REMARK    6  A    between atoms: C_13  and  C_14 
ROOT
HETATM    1  C   UNL     1      47.237 -31.570   1.146  1.00  0.00     0.203 A 
HETATM    2  N   UNL     1      45.948 -31.445   1.461  1.00  0.00    -0.217 NA
HETATM    3  C   UNL     1      45.040 -31.710   0.492  1.00  0.00     0.083 A 
HETATM    4  C   UNL     1      45.406 -32.067  -0.817  1.00  0.00     0.023 A 
HETATM    5  C   UNL     1      46.784 -32.178  -1.017  1.00  0.00     0.072 A 
HETATM    6  N   UNL     1      47.682 -31.938  -0.058  1.00  0.00    -0.218 NA
HETATM    7  C   UNL     1      44.524 -32.293  -1.911  1.00  0.00     0.023 A 
HETATM    8  C   UNL     1      45.007 -32.642  -3.175  1.00  0.00    -0.061 A 
HETATM    9  C   UNL     1      44.072 -32.901  -4.319  1.00  0.00     0.048 C 
HETATM   10  C   UNL     1      46.381 -32.783  -3.345  1.00  0.00     0.009 A 
HETATM   11  C   UNL     1      47.247 -32.544  -2.275  1.00  0.00     0.033 A 
ENDROOT
BRANCH   1  12
HETATM   12  N   UNL     1      48.226 -31.256   2.067  1.00  0.00    -0.252 NA
HETATM   13  H   UNL     1      48.318 -32.098   2.630  1.00  0.00     0.131 HD
BRANCH  12  14
HETATM   14  C   UNL     1      47.999 -30.044   2.844  1.00  0.00     0.199 C 
BRANCH  14  15
HETATM   15  C   UNL     1      47.852 -28.804   1.957  1.00  0.00     0.245 C 
HETATM   16  N   UNL     1      48.300 -29.006   0.657  1.00  0.00    -0.286 N 
HETATM   17  H   UNL     1      48.396 -29.936   0.258  1.00  0.00     0.184 HD
HETATM   18  O   UNL     1      47.422 -27.717   2.345  1.00  0.00    -0.271 OA
BRANCH  16  19
HETATM   19  N   UNL     1      48.058 -27.977  -0.276  1.00  0.00    -0.203 NA
HETATM   20  H   UNL     1      48.884 -27.869  -0.885  1.00  0.00     0.153 HD
BRANCH  19  21
HETATM   21  C   UNL     1      46.936 -28.214  -1.117  1.00  0.00     0.027 A 
HETATM   22  C   UNL     1      47.183 -28.717  -2.402  1.00  0.00     0.026 A 
HETATM   23  C   UNL     1      46.132 -29.043  -3.265  1.00  0.00     0.008 A 
HETATM   24  C   UNL     1      44.806 -28.883  -2.856  1.00  0.00    -0.062 A 
HETATM   25  C   UNL     1      43.673 -29.274  -3.757  1.00  0.00     0.048 C 
HETATM   26  C   UNL     1      44.551 -28.417  -1.562  1.00  0.00     0.008 A 
HETATM   27  C   UNL     1      45.605 -28.087  -0.701  1.00  0.00     0.026 A 
ENDBRANCH  19  21
ENDBRANCH  16  19
ENDBRANCH  14  15
ENDBRANCH  12  14
ENDBRANCH   1  12
BRANCH   3  28
HETATM   28  C   UNL     1      43.643 -31.573   0.945  1.00  0.00    -0.006 A 
HETATM   29  C   UNL     1      43.108 -30.305   1.232  1.00  0.00     0.014 A 
HETATM   30  C   UNL     1      41.787 -30.159   1.661  1.00  0.00     0.001 A 
HETATM   31  C   UNL     1      40.977 -31.281   1.816  1.00  0.00     0.000 A 
HETATM   32  C   UNL     1      41.490 -32.549   1.555  1.00  0.00     0.001 A 
HETATM   33  C   UNL     1      42.814 -32.694   1.131  1.00  0.00     0.014 A 
ENDBRANCH   3  28
TORSDOF 6
ENDMDL
