MODEL 1
REMARK VINA RESULT:      -8.0      0.000      0.000
REMARK  4 active torsions:
REMARK  status: ('A' for Active; 'I' for Inactive)
REMARK    1  A    between atoms: O_2  and  C_3 
REMARK    2  A    between atoms: C_4  and  O_5 
REMARK    3  A    between atoms: C_8  and  C_9 
REMARK    4  A    between atoms: C_9  and  N_10 
ROOT
HETATM    1  N   UNL     1      41.838 -14.220   4.614  1.00  0.00    -0.066 N 
HETATM    2  H   UNL     1      41.266 -15.069   4.486  1.00  0.00     0.280 HD
HETATM    3  C   UNL     1      41.291 -13.570   5.873  1.00  0.00     0.246 C 
HETATM    4  C   UNL     1      41.552 -12.050   5.944  1.00  0.00     0.062 C 
HETATM    5  C   UNL     1      40.996 -11.382   4.693  1.00  0.00     0.020 C 
HETATM    6  C   UNL     1      41.777 -11.917   3.503  1.00  0.00     0.031 C 
HETATM    7  C   UNL     1      43.244 -11.508   3.627  1.00  0.00     0.138 C 
HETATM    8  N   UNL     1      43.819 -11.579   4.969  1.00  0.00    -0.317 N 
HETATM    9  C   UNL     1      43.025 -11.728   6.109  1.00  0.00     0.020 A 
HETATM   10  C   UNL     1      43.579 -11.609   7.329  1.00  0.00     0.026 A 
HETATM   11  C   UNL     1      45.202 -11.348   5.046  1.00  0.00     0.247 A 
HETATM   12  O   UNL     1      45.936 -11.282   4.064  1.00  0.00    -0.268 OA
HETATM   13  C   UNL     1      45.776 -11.220   6.405  1.00  0.00     0.074 A 
HETATM   14  C   UNL     1      44.986 -11.340   7.477  1.00  0.00     0.007 A 
HETATM   15  C   UNL     1      41.584 -13.427   3.353  1.00  0.00     0.241 C 
ENDROOT
BRANCH   1  16
HETATM   16  C   UNL     1      43.221 -14.826   4.802  1.00  0.00     0.274 C 
BRANCH  16  17
HETATM   17  C   UNL     1      43.385 -16.256   4.354  1.00  0.00    -0.012 A 
HETATM   18  C   UNL     1      43.639 -17.316   5.240  1.00  0.00     0.054 A 
HETATM   19  C   UNL     1      43.768 -18.619   4.747  1.00  0.00     0.117 A 
HETATM   20 BR   UNL     1      43.800 -17.007   7.115  1.00  0.00    -0.047 Br
HETATM   21  C   UNL     1      43.680 -18.893   3.375  1.00  0.00     0.102 A 
HETATM   22  C   UNL     1      43.440 -17.846   2.493  1.00  0.00     0.040 A 
HETATM   23  C   UNL     1      43.292 -16.542   2.977  1.00  0.00     0.013 A 
BRANCH  19  24
HETATM   24  O   UNL     1      43.984 -19.663   5.610  1.00  0.00    -0.357 OA
HETATM   25  H   UNL     1      44.716 -19.382   6.197  1.00  0.00     0.218 HD
ENDBRANCH  19  24
BRANCH  21  26
HETATM   26  O   UNL     1      43.837 -20.212   3.036  1.00  0.00    -0.353 OA
HETATM   27  C   UNL     1      43.557 -20.565   1.685  1.00  0.00     0.210 C 
ENDBRANCH  21  26
ENDBRANCH  16  17
ENDBRANCH   1  16
TORSDOF 4
ENDMDL
MODEL 2
REMARK VINA RESULT:      -7.8      2.112      2.896
REMARK  4 active torsions:
REMARK  status: ('A' for Active; 'I' for Inactive)
REMARK    1  A    between atoms: O_2  and  C_3 
REMARK    2  A    between atoms: C_4  and  O_5 
REMARK    3  A    between atoms: C_8  and  C_9 
REMARK    4  A    between atoms: C_9  and  N_10 
ROOT
HETATM    1  N   UNL     1      41.415 -14.533   1.720  1.00  0.00    -0.066 N 
HETATM    2  H   UNL     1      41.564 -15.403   1.187  1.00  0.00     0.280 HD
HETATM    3  C   UNL     1      40.066 -14.716   2.393  1.00  0.00     0.246 C 
HETATM    4  C   UNL     1      39.367 -13.385   2.742  1.00  0.00     0.062 C 
HETATM    5  C   UNL     1      39.245 -12.532   1.485  1.00  0.00     0.020 C 
HETATM    6  C   UNL     1      40.654 -12.193   1.023  1.00  0.00     0.031 C 
HETATM    7  C   UNL     1      41.351 -11.344   2.086  1.00  0.00     0.138 C 
HETATM    8  N   UNL     1      41.111 -11.731   3.476  1.00  0.00    -0.317 N 
HETATM    9  C   UNL     1      40.095 -12.622   3.832  1.00  0.00     0.020 A 
HETATM   10  C   UNL     1      39.797 -12.808   5.130  1.00  0.00     0.026 A 
HETATM   11  C   UNL     1      41.872 -11.042   4.433  1.00  0.00     0.247 A 
HETATM   12  O   UNL     1      42.815 -10.308   4.152  1.00  0.00    -0.268 OA
HETATM   13  C   UNL     1      41.513 -11.272   5.852  1.00  0.00     0.074 A 
HETATM   14  C   UNL     1      40.519 -12.109   6.162  1.00  0.00     0.007 A 
HETATM   15  C   UNL     1      41.433 -13.458   0.658  1.00  0.00     0.241 C 
ENDROOT
BRANCH   1  16
HETATM   16  C   UNL     1      42.585 -14.585   2.693  1.00  0.00     0.274 C 
BRANCH  16  17
HETATM   17  C   UNL     1      43.011 -15.958   3.145  1.00  0.00    -0.012 A 
HETATM   18  C   UNL     1      43.299 -16.273   4.484  1.00  0.00     0.054 A 
HETATM   19  C   UNL     1      43.679 -17.575   4.826  1.00  0.00     0.117 A 
HETATM   20 BR   UNL     1      43.169 -14.949   5.850  1.00  0.00    -0.047 Br
HETATM   21  C   UNL     1      43.811 -18.577   3.855  1.00  0.00     0.102 A 
HETATM   22  C   UNL     1      43.538 -18.268   2.526  1.00  0.00     0.040 A 
HETATM   23  C   UNL     1      43.140 -16.973   2.176  1.00  0.00     0.013 A 
BRANCH  19  24
HETATM   24  O   UNL     1      43.931 -17.897   6.136  1.00  0.00    -0.357 OA
HETATM   25  H   UNL     1      43.055 -18.016   6.558  1.00  0.00     0.218 HD
ENDBRANCH  19  24
BRANCH  21  26
HETATM   26  O   UNL     1      44.199 -19.801   4.332  1.00  0.00    -0.353 OA
HETATM   27  C   UNL     1      43.871 -20.935   3.536  1.00  0.00     0.210 C 
ENDBRANCH  21  26
ENDBRANCH  16  17
ENDBRANCH   1  16
TORSDOF 4
ENDMDL
MODEL 3
REMARK VINA RESULT:      -7.6      2.877      7.242
REMARK  4 active torsions:
REMARK  status: ('A' for Active; 'I' for Inactive)
REMARK    1  A    between atoms: O_2  and  C_3 
REMARK    2  A    between atoms: C_4  and  O_5 
REMARK    3  A    between atoms: C_8  and  C_9 
REMARK    4  A    between atoms: C_9  and  N_10 
ROOT
HETATM    1  N   UNL     1      43.660 -15.093   6.707  1.00  0.00    -0.066 N 
HETATM    2  H   UNL     1      43.972 -14.612   7.564  1.00  0.00     0.280 HD
HETATM    3  C   UNL     1      42.289 -15.649   7.050  1.00  0.00     0.246 C 
HETATM    4  C   UNL     1      41.885 -16.866   6.191  1.00  0.00     0.062 C 
HETATM    5  C   UNL     1      42.959 -17.942   6.299  1.00  0.00     0.020 C 
HETATM    6  C   UNL     1      44.238 -17.374   5.702  1.00  0.00     0.031 C 
HETATM    7  C   UNL     1      44.026 -17.087   4.217  1.00  0.00     0.138 C 
HETATM    8  N   UNL     1      42.731 -16.513   3.852  1.00  0.00    -0.317 N 
HETATM    9  C   UNL     1      41.652 -16.492   4.740  1.00  0.00     0.020 A 
HETATM   10  C   UNL     1      40.436 -16.119   4.303  1.00  0.00     0.026 A 
HETATM   11  C   UNL     1      42.605 -16.115   2.512  1.00  0.00     0.247 A 
HETATM   12  O   UNL     1      43.548 -16.056   1.727  1.00  0.00    -0.268 OA
HETATM   13  C   UNL     1      41.250 -15.713   2.067  1.00  0.00     0.074 A 
HETATM   14  C   UNL     1      40.231 -15.729   2.932  1.00  0.00     0.007 A 
HETATM   15  C   UNL     1      44.716 -16.152   6.489  1.00  0.00     0.241 C 
ENDROOT
BRANCH   1  16
HETATM   16  C   UNL     1      43.609 -13.933   5.723  1.00  0.00     0.274 C 
BRANCH  16  17
HETATM   17  C   UNL     1      43.587 -12.552   6.328  1.00  0.00    -0.012 A 
HETATM   18  C   UNL     1      42.449 -11.729   6.325  1.00  0.00     0.054 A 
HETATM   19  C   UNL     1      42.506 -10.462   6.916  1.00  0.00     0.117 A 
HETATM   20 BR   UNL     1      40.817 -12.318   5.535  1.00  0.00    -0.047 Br
HETATM   21  C   UNL     1      43.688  -9.976   7.490  1.00  0.00     0.102 A 
HETATM   22  C   UNL     1      44.821 -10.782   7.485  1.00  0.00     0.040 A 
HETATM   23  C   UNL     1      44.770 -12.057   6.912  1.00  0.00     0.013 A 
BRANCH  19  24
HETATM   24  O   UNL     1      41.388  -9.666   6.946  1.00  0.00    -0.357 OA
HETATM   25  H   UNL     1      41.180  -9.457   6.012  1.00  0.00     0.218 HD
ENDBRANCH  19  24
BRANCH  21  26
HETATM   26  O   UNL     1      43.599  -8.716   8.022  1.00  0.00    -0.353 OA
HETATM   27  C   UNL     1      44.738  -8.237   8.732  1.00  0.00     0.210 C 
ENDBRANCH  21  26
ENDBRANCH  16  17
ENDBRANCH   1  16
TORSDOF 4
ENDMDL
MODEL 4
REMARK VINA RESULT:      -7.4      2.598      6.829
REMARK  4 active torsions:
REMARK  status: ('A' for Active; 'I' for Inactive)
REMARK    1  A    between atoms: O_2  and  C_3 
REMARK    2  A    between atoms: C_4  and  O_5 
REMARK    3  A    between atoms: C_8  and  C_9 
REMARK    4  A    between atoms: C_9  and  N_10 
ROOT
HETATM    1  N   UNL     1      42.369 -13.926   2.519  1.00  0.00    -0.066 N 
HETATM    2  H   UNL     1      42.516 -13.098   1.923  1.00  0.00     0.280 HD
HETATM    3  C   UNL     1      42.956 -15.082   1.728  1.00  0.00     0.246 C 
HETATM    4  C   UNL     1      42.353 -16.453   2.103  1.00  0.00     0.062 C 
HETATM    5  C   UNL     1      40.837 -16.398   1.955  1.00  0.00     0.020 C 
HETATM    6  C   UNL     1      40.316 -15.386   2.964  1.00  0.00     0.031 C 
HETATM    7  C   UNL     1      40.619 -15.872   4.380  1.00  0.00     0.138 C 
HETATM    8  N   UNL     1      41.928 -16.493   4.579  1.00  0.00    -0.317 N 
HETATM    9  C   UNL     1      42.734 -16.884   3.506  1.00  0.00     0.020 A 
HETATM   10  C   UNL     1      43.843 -17.610   3.735  1.00  0.00     0.026 A 
HETATM   11  C   UNL     1      42.255 -16.797   5.910  1.00  0.00     0.247 A 
HETATM   12  O   UNL     1      41.604 -16.408   6.876  1.00  0.00    -0.268 OA
HETATM   13  C   UNL     1      43.482 -17.599   6.122  1.00  0.00     0.074 A 
HETATM   14  C   UNL     1      44.218 -17.983   5.075  1.00  0.00     0.007 A 
HETATM   15  C   UNL     1      40.867 -13.988   2.675  1.00  0.00     0.241 C 
ENDROOT
BRANCH   1  16
HETATM   16  C   UNL     1      43.193 -13.555   3.743  1.00  0.00     0.274 C 
BRANCH  16  17
HETATM   17  C   UNL     1      42.821 -12.264   4.426  1.00  0.00    -0.012 A 
HETATM   18  C   UNL     1      42.931 -12.066   5.812  1.00  0.00     0.054 A 
HETATM   19  C   UNL     1      42.575 -10.833   6.370  1.00  0.00     0.117 A 
HETATM   20 BR   UNL     1      43.573 -13.455   6.950  1.00  0.00    -0.047 Br
HETATM   21  C   UNL     1      42.077  -9.790   5.578  1.00  0.00     0.102 A 
HETATM   22  C   UNL     1      41.954  -9.984   4.207  1.00  0.00     0.040 A 
HETATM   23  C   UNL     1      42.324 -11.207   3.637  1.00  0.00     0.013 A 
BRANCH  19  24
HETATM   24  O   UNL     1      42.711 -10.624   7.719  1.00  0.00    -0.357 OA
HETATM   25  H   UNL     1      43.285  -9.837   7.814  1.00  0.00     0.218 HD
ENDBRANCH  19  24
BRANCH  21  26
HETATM   26  O   UNL     1      41.759  -8.645   6.260  1.00  0.00    -0.353 OA
HETATM   27  C   UNL     1      40.381  -8.289   6.312  1.00  0.00     0.210 C 
ENDBRANCH  21  26
ENDBRANCH  16  17
ENDBRANCH   1  16
TORSDOF 4
ENDMDL
MODEL 5
REMARK VINA RESULT:      -7.3      4.506      6.380
REMARK  4 active torsions:
REMARK  status: ('A' for Active; 'I' for Inactive)
REMARK    1  A    between atoms: O_2  and  C_3 
REMARK    2  A    between atoms: C_4  and  O_5 
REMARK    3  A    between atoms: C_8  and  C_9 
REMARK    4  A    between atoms: C_9  and  N_10 
ROOT
HETATM    1  N   UNL     1      40.901 -11.639   3.140  1.00  0.00    -0.066 N 
HETATM    2  H   UNL     1      40.562 -10.746   2.750  1.00  0.00     0.280 HD
HETATM    3  C   UNL     1      41.013 -11.392   4.635  1.00  0.00     0.246 C 
HETATM    4  C   UNL     1      42.023 -12.323   5.339  1.00  0.00     0.062 C 
HETATM    5  C   UNL     1      43.381 -12.205   4.658  1.00  0.00     0.020 C 
HETATM    6  C   UNL     1      43.223 -12.709   3.231  1.00  0.00     0.031 C 
HETATM    7  C   UNL     1      42.848 -14.190   3.250  1.00  0.00     0.138 C 
HETATM    8  N   UNL     1      41.891 -14.597   4.279  1.00  0.00    -0.317 N 
HETATM    9  C   UNL     1      41.559 -13.767   5.353  1.00  0.00     0.020 A 
HETATM   10  C   UNL     1      40.816 -14.251   6.364  1.00  0.00     0.026 A 
HETATM   11  C   UNL     1      41.440 -15.923   4.191  1.00  0.00     0.247 A 
HETATM   12  O   UNL     1      41.657 -16.654   3.228  1.00  0.00    -0.268 OA
HETATM   13  C   UNL     1      40.626 -16.421   5.324  1.00  0.00     0.074 A 
HETATM   14  C   UNL     1      40.348 -15.612   6.351  1.00  0.00     0.007 A 
HETATM   15  C   UNL     1      42.230 -11.846   2.450  1.00  0.00     0.241 C 
ENDROOT
BRANCH   1  16
HETATM   16  C   UNL     1      39.758 -12.572   2.769  1.00  0.00     0.274 C 
BRANCH  16  17
HETATM   17  C   UNL     1      39.666 -12.960   1.315  1.00  0.00    -0.012 A 
HETATM   18  C   UNL     1      39.192 -12.094   0.316  1.00  0.00     0.054 A 
HETATM   19  C   UNL     1      39.146 -12.526  -1.015  1.00  0.00     0.117 A 
HETATM   20 BR   UNL     1      38.619 -10.326   0.744  1.00  0.00    -0.047 Br
HETATM   21  C   UNL     1      39.535 -13.823  -1.375  1.00  0.00     0.102 A 
HETATM   22  C   UNL     1      39.994 -14.688  -0.389  1.00  0.00     0.040 A 
HETATM   23  C   UNL     1      40.060 -14.260   0.942  1.00  0.00     0.013 A 
BRANCH  19  24
HETATM   24  O   UNL     1      38.715 -11.673  -1.999  1.00  0.00    -0.357 OA
HETATM   25  H   UNL     1      38.042 -11.097  -1.583  1.00  0.00     0.218 HD
ENDBRANCH  19  24
BRANCH  21  26
HETATM   26  O   UNL     1      39.428 -14.110  -2.711  1.00  0.00    -0.353 OA
HETATM   27  C   UNL     1      38.389 -15.006  -3.094  1.00  0.00     0.210 C 
ENDBRANCH  21  26
ENDBRANCH  16  17
ENDBRANCH   1  16
TORSDOF 4
ENDMDL
MODEL 6
REMARK VINA RESULT:      -7.3      2.482      3.787
REMARK  4 active torsions:
REMARK  status: ('A' for Active; 'I' for Inactive)
REMARK    1  A    between atoms: O_2  and  C_3 
REMARK    2  A    between atoms: C_4  and  O_5 
REMARK    3  A    between atoms: C_8  and  C_9 
REMARK    4  A    between atoms: C_9  and  N_10 
ROOT
HETATM    1  N   UNL     1      42.220 -13.735   5.703  1.00  0.00    -0.066 N 
HETATM    2  H   UNL     1      42.790 -14.236   6.401  1.00  0.00     0.280 HD
HETATM    3  C   UNL     1      42.532 -12.266   5.930  1.00  0.00     0.246 C 
HETATM    4  C   UNL     1      41.412 -11.317   5.451  1.00  0.00     0.062 C 
HETATM    5  C   UNL     1      40.098 -11.710   6.113  1.00  0.00     0.020 C 
HETATM    6  C   UNL     1      39.741 -13.108   5.630  1.00  0.00     0.031 C 
HETATM    7  C   UNL     1      39.503 -13.082   4.121  1.00  0.00     0.138 C 
HETATM    8  N   UNL     1      40.419 -12.251   3.340  1.00  0.00    -0.317 N 
HETATM    9  C   UNL     1      41.267 -11.317   3.941  1.00  0.00     0.020 A 
HETATM   10  C   UNL     1      41.958 -10.455   3.175  1.00  0.00     0.026 A 
HETATM   11  C   UNL     1      40.287 -12.354   1.947  1.00  0.00     0.247 A 
HETATM   12  O   UNL     1      39.604 -13.210   1.389  1.00  0.00    -0.268 OA
HETATM   13  C   UNL     1      41.061 -11.386   1.136  1.00  0.00     0.074 A 
HETATM   14  C   UNL     1      41.844 -10.486   1.740  1.00  0.00     0.007 A 
HETATM   15  C   UNL     1      40.803 -14.124   6.056  1.00  0.00     0.241 C 
ENDROOT
BRANCH   1  16
HETATM   16  C   UNL     1      42.802 -14.280   4.407  1.00  0.00     0.274 C 
BRANCH  16  17
HETATM   17  C   UNL     1      43.214 -15.730   4.424  1.00  0.00    -0.012 A 
HETATM   18  C   UNL     1      43.163 -16.557   3.290  1.00  0.00     0.054 A 
HETATM   19  C   UNL     1      43.573 -17.892   3.384  1.00  0.00     0.117 A 
HETATM   20 BR   UNL     1      42.552 -15.884   1.613  1.00  0.00    -0.047 Br
HETATM   21  C   UNL     1      44.008 -18.439   4.598  1.00  0.00     0.102 A 
HETATM   22  C   UNL     1      44.049 -17.627   5.727  1.00  0.00     0.040 A 
HETATM   23  C   UNL     1      43.658 -16.287   5.639  1.00  0.00     0.013 A 
BRANCH  19  24
HETATM   24  O   UNL     1      43.557 -18.696   2.272  1.00  0.00    -0.357 OA
HETATM   25  H   UNL     1      43.355 -19.599   2.594  1.00  0.00     0.218 HD
ENDBRANCH  19  24
BRANCH  21  26
HETATM   26  O   UNL     1      44.369 -19.759   4.544  1.00  0.00    -0.353 OA
HETATM   27  C   UNL     1      43.946 -20.586   5.624  1.00  0.00     0.210 C 
ENDBRANCH  21  26
ENDBRANCH  16  17
ENDBRANCH   1  16
TORSDOF 4
ENDMDL
MODEL 7
REMARK VINA RESULT:      -7.3      2.239      3.861
REMARK  4 active torsions:
REMARK  status: ('A' for Active; 'I' for Inactive)
REMARK    1  A    between atoms: O_2  and  C_3 
REMARK    2  A    between atoms: C_4  and  O_5 
REMARK    3  A    between atoms: C_8  and  C_9 
REMARK    4  A    between atoms: C_9  and  N_10 
ROOT
HETATM    1  N   UNL     1      42.501 -13.543   5.308  1.00  0.00    -0.066 N 
HETATM    2  H   UNL     1      43.068 -13.983   6.049  1.00  0.00     0.280 HD
HETATM    3  C   UNL     1      43.497 -13.182   4.221  1.00  0.00     0.246 C 
HETATM    4  C   UNL     1      43.025 -12.026   3.313  1.00  0.00     0.062 C 
HETATM    5  C   UNL     1      42.683 -10.815   4.171  1.00  0.00     0.020 C 
HETATM    6  C   UNL     1      41.508 -11.199   5.058  1.00  0.00     0.031 C 
HETATM    7  C   UNL     1      40.288 -11.503   4.189  1.00  0.00     0.138 C 
HETATM    8  N   UNL     1      40.547 -12.247   2.957  1.00  0.00    -0.317 N 
HETATM    9  C   UNL     1      41.839 -12.420   2.453  1.00  0.00     0.020 A 
HETATM   10  C   UNL     1      42.011 -12.953   1.230  1.00  0.00     0.026 A 
HETATM   11  C   UNL     1      39.406 -12.651   2.245  1.00  0.00     0.247 A 
HETATM   12  O   UNL     1      38.265 -12.576   2.692  1.00  0.00    -0.268 OA
HETATM   13  C   UNL     1      39.636 -13.231   0.903  1.00  0.00     0.074 A 
HETATM   14  C   UNL     1      40.882 -13.359   0.435  1.00  0.00     0.007 A 
HETATM   15  C   UNL     1      41.881 -12.349   5.996  1.00  0.00     0.241 C 
ENDROOT
BRANCH   1  16
HETATM   16  C   UNL     1      41.582 -14.694   4.924  1.00  0.00     0.274 C 
BRANCH  16  17
HETATM   17  C   UNL     1      42.254 -15.919   4.359  1.00  0.00    -0.012 A 
HETATM   18  C   UNL     1      42.976 -16.832   5.145  1.00  0.00     0.054 A 
HETATM   19  C   UNL     1      43.564 -17.953   4.547  1.00  0.00     0.117 A 
HETATM   20 BR   UNL     1      43.158 -16.574   7.026  1.00  0.00    -0.047 Br
HETATM   21  C   UNL     1      43.477 -18.174   3.166  1.00  0.00     0.102 A 
HETATM   22  C   UNL     1      42.773 -17.267   2.382  1.00  0.00     0.040 A 
HETATM   23  C   UNL     1      42.167 -16.152   2.972  1.00  0.00     0.013 A 
BRANCH  19  24
HETATM   24  O   UNL     1      44.243 -18.865   5.315  1.00  0.00    -0.357 OA
HETATM   25  H   UNL     1      43.566 -19.315   5.861  1.00  0.00     0.218 HD
ENDBRANCH  19  24
BRANCH  21  26
HETATM   26  O   UNL     1      44.108 -19.304   2.719  1.00  0.00    -0.353 OA
HETATM   27  C   UNL     1      43.323 -20.222   1.963  1.00  0.00     0.210 C 
ENDBRANCH  21  26
ENDBRANCH  16  17
ENDBRANCH   1  16
TORSDOF 4
ENDMDL
MODEL 8
REMARK VINA RESULT:      -7.2      2.689      6.785
REMARK  4 active torsions:
REMARK  status: ('A' for Active; 'I' for Inactive)
REMARK    1  A    between atoms: O_2  and  C_3 
REMARK    2  A    between atoms: C_4  and  O_5 
REMARK    3  A    between atoms: C_8  and  C_9 
REMARK    4  A    between atoms: C_9  and  N_10 
ROOT
HETATM    1  N   UNL     1      41.700 -13.820   2.438  1.00  0.00    -0.066 N 
HETATM    2  H   UNL     1      41.632 -12.914   1.951  1.00  0.00     0.280 HD
HETATM    3  C   UNL     1      41.697 -14.858   1.329  1.00  0.00     0.246 C 
HETATM    4  C   UNL     1      41.201 -16.246   1.786  1.00  0.00     0.062 C 
HETATM    5  C   UNL     1      39.821 -16.110   2.417  1.00  0.00     0.020 C 
HETATM    6  C   UNL     1      39.970 -15.252   3.664  1.00  0.00     0.031 C 
HETATM    7  C   UNL     1      40.865 -15.968   4.674  1.00  0.00     0.138 C 
HETATM    8  N   UNL     1      42.027 -16.663   4.122  1.00  0.00    -0.317 N 
HETATM    9  C   UNL     1      42.163 -16.909   2.753  1.00  0.00     0.020 A 
HETATM   10  C   UNL     1      43.155 -17.705   2.314  1.00  0.00     0.026 A 
HETATM   11  C   UNL     1      42.922 -17.188   5.069  1.00  0.00     0.247 A 
HETATM   12  O   UNL     1      42.869 -16.932   6.269  1.00  0.00    -0.268 OA
HETATM   13  C   UNL     1      43.999 -18.060   4.548  1.00  0.00     0.074 A 
HETATM   14  C   UNL     1      44.088 -18.300   3.236  1.00  0.00     0.007 A 
HETATM   15  C   UNL     1      40.465 -13.848   3.309  1.00  0.00     0.241 C 
ENDROOT
BRANCH   1  16
HETATM   16  C   UNL     1      43.049 -13.681   3.127  1.00  0.00     0.274 C 
BRANCH  16  17
HETATM   17  C   UNL     1      43.069 -12.847   4.382  1.00  0.00    -0.012 A 
HETATM   18  C   UNL     1      42.698 -11.492   4.412  1.00  0.00     0.054 A 
HETATM   19  C   UNL     1      42.733 -10.787   5.621  1.00  0.00     0.117 A 
HETATM   20 BR   UNL     1      42.133 -10.597   2.826  1.00  0.00    -0.047 Br
HETATM   21  C   UNL     1      43.162 -11.395   6.808  1.00  0.00     0.102 A 
HETATM   22  C   UNL     1      43.542 -12.733   6.782  1.00  0.00     0.040 A 
HETATM   23  C   UNL     1      43.494 -13.451   5.582  1.00  0.00     0.013 A 
BRANCH  19  24
HETATM   24  O   UNL     1      42.341  -9.473   5.662  1.00  0.00    -0.357 OA
HETATM   25  H   UNL     1      42.959  -8.988   5.078  1.00  0.00     0.218 HD
ENDBRANCH  19  24
BRANCH  21  26
HETATM   26  O   UNL     1      43.155 -10.582   7.911  1.00  0.00    -0.353 OA
HETATM   27  C   UNL     1      44.360 -10.514   8.668  1.00  0.00     0.210 C 
ENDBRANCH  21  26
ENDBRANCH  16  17
ENDBRANCH   1  16
TORSDOF 4
ENDMDL
MODEL 9
REMARK VINA RESULT:      -7.2      2.836      7.049
REMARK  4 active torsions:
REMARK  status: ('A' for Active; 'I' for Inactive)
REMARK    1  A    between atoms: O_2  and  C_3 
REMARK    2  A    between atoms: C_4  and  O_5 
REMARK    3  A    between atoms: C_8  and  C_9 
REMARK    4  A    between atoms: C_9  and  N_10 
ROOT
HETATM    1  N   UNL     1      43.604 -14.890   6.645  1.00  0.00    -0.066 N 
HETATM    2  H   UNL     1      43.907 -14.350   7.470  1.00  0.00     0.280 HD
HETATM    3  C   UNL     1      42.241 -15.443   7.021  1.00  0.00     0.246 C 
HETATM    4  C   UNL     1      41.858 -16.718   6.241  1.00  0.00     0.062 C 
HETATM    5  C   UNL     1      42.947 -17.769   6.419  1.00  0.00     0.020 C 
HETATM    6  C   UNL     1      44.219 -17.220   5.789  1.00  0.00     0.031 C 
HETATM    7  C   UNL     1      44.006 -17.032   4.288  1.00  0.00     0.138 C 
HETATM    8  N   UNL     1      42.704 -16.502   3.885  1.00  0.00    -0.317 N 
HETATM    9  C   UNL     1      41.623 -16.441   4.768  1.00  0.00     0.020 A 
HETATM   10  C   UNL     1      40.403 -16.115   4.306  1.00  0.00     0.026 A 
HETATM   11  C   UNL     1      42.575 -16.192   2.522  1.00  0.00     0.247 A 
HETATM   12  O   UNL     1      43.520 -16.169   1.737  1.00  0.00    -0.268 OA
HETATM   13  C   UNL     1      41.217 -15.839   2.050  1.00  0.00     0.074 A 
HETATM   14  C   UNL     1      40.196 -15.816   2.913  1.00  0.00     0.007 A 
HETATM   15  C   UNL     1      44.677 -15.944   6.497  1.00  0.00     0.241 C 
ENDROOT
BRANCH   1  16
HETATM   16  C   UNL     1      43.539 -13.795   5.590  1.00  0.00     0.274 C 
BRANCH  16  17
HETATM   17  C   UNL     1      42.708 -12.587   5.939  1.00  0.00    -0.012 A 
HETATM   18  C   UNL     1      43.219 -11.475   6.629  1.00  0.00     0.054 A 
HETATM   19  C   UNL     1      42.386 -10.386   6.908  1.00  0.00     0.117 A 
HETATM   20 BR   UNL     1      45.043 -11.422   7.185  1.00  0.00    -0.047 Br
HETATM   21  C   UNL     1      41.034 -10.387   6.540  1.00  0.00     0.102 A 
HETATM   22  C   UNL     1      40.520 -11.490   5.866  1.00  0.00     0.040 A 
HETATM   23  C   UNL     1      41.349 -12.577   5.568  1.00  0.00     0.013 A 
BRANCH  19  24
HETATM   24  O   UNL     1      42.888  -9.284   7.553  1.00  0.00    -0.357 OA
HETATM   25  H   UNL     1      42.463  -9.269   8.434  1.00  0.00     0.218 HD
ENDBRANCH  19  24
BRANCH  21  26
HETATM   26  O   UNL     1      40.337  -9.259   6.886  1.00  0.00    -0.353 OA
HETATM   27  C   UNL     1      39.731  -8.528   5.824  1.00  0.00     0.210 C 
ENDBRANCH  21  26
ENDBRANCH  16  17
ENDBRANCH   1  16
TORSDOF 4
ENDMDL
MODEL 10
REMARK VINA RESULT:      -7.1      4.221      6.979
REMARK  4 active torsions:
REMARK  status: ('A' for Active; 'I' for Inactive)
REMARK    1  A    between atoms: O_2  and  C_3 
REMARK    2  A    between atoms: C_4  and  O_5 
REMARK    3  A    between atoms: C_8  and  C_9 
REMARK    4  A    between atoms: C_9  and  N_10 
ROOT
HETATM    1  N   UNL     1      41.196 -14.958   1.612  1.00  0.00    -0.066 N 
HETATM    2  H   UNL     1      41.095 -15.216   0.619  1.00  0.00     0.280 HD
HETATM    3  C   UNL     1      42.663 -14.604   1.774  1.00  0.00     0.246 C 
HETATM    4  C   UNL     1      43.178 -14.762   3.221  1.00  0.00     0.062 C 
HETATM    5  C   UNL     1      42.895 -16.178   3.709  1.00  0.00     0.020 C 
HETATM    6  C   UNL     1      41.385 -16.356   3.746  1.00  0.00     0.031 C 
HETATM    7  C   UNL     1      40.782 -15.392   4.767  1.00  0.00     0.138 C 
HETATM    8  N   UNL     1      41.360 -14.049   4.802  1.00  0.00    -0.317 N 
HETATM    9  C   UNL     1      42.565 -13.744   4.163  1.00  0.00     0.020 A 
HETATM   10  C   UNL     1      43.146 -12.549   4.372  1.00  0.00     0.026 A 
HETATM   11  C   UNL     1      40.700 -13.130   5.633  1.00  0.00     0.247 A 
HETATM   12  O   UNL     1      39.608 -13.344   6.151  1.00  0.00    -0.268 OA
HETATM   13  C   UNL     1      41.372 -11.826   5.840  1.00  0.00     0.074 A 
HETATM   14  C   UNL     1      42.538 -11.573   5.238  1.00  0.00     0.007 A 
HETATM   15  C   UNL     1      40.779 -16.210   2.349  1.00  0.00     0.241 C 
ENDROOT
BRANCH   1  16
HETATM   16  C   UNL     1      40.273 -13.750   1.694  1.00  0.00     0.274 C 
BRANCH  16  17
HETATM   17  C   UNL     1      40.612 -12.595   0.786  1.00  0.00    -0.012 A 
HETATM   18  C   UNL     1      40.405 -12.623  -0.603  1.00  0.00     0.054 A 
HETATM   19  C   UNL     1      40.736 -11.505  -1.378  1.00  0.00     0.117 A 
HETATM   20 BR   UNL     1      39.666 -14.162  -1.452  1.00  0.00    -0.047 Br
HETATM   21  C   UNL     1      41.302 -10.360  -0.803  1.00  0.00     0.102 A 
HETATM   22  C   UNL     1      41.519 -10.332   0.570  1.00  0.00     0.040 A 
HETATM   23  C   UNL     1      41.176 -11.437   1.356  1.00  0.00     0.013 A 
BRANCH  19  24
HETATM   24  O   UNL     1      40.506 -11.514  -2.730  1.00  0.00    -0.357 OA
HETATM   25  H   UNL     1      40.846 -12.372  -3.057  1.00  0.00     0.218 HD
ENDBRANCH  19  24
BRANCH  21  26
HETATM   26  O   UNL     1      41.584  -9.348  -1.682  1.00  0.00    -0.353 OA
HETATM   27  C   UNL     1      42.689  -8.507  -1.363  1.00  0.00     0.210 C 
ENDBRANCH  21  26
ENDBRANCH  16  17
ENDBRANCH   1  16
TORSDOF 4
ENDMDL
