MODEL 1
REMARK VINA RESULT:      -7.6      0.000      0.000
REMARK  7 active torsions:
REMARK  status: ('A' for Active; 'I' for Inactive)
REMARK    1  A    between atoms: C_5  and  C_6 
REMARK    2  A    between atoms: C_6  and  C_7 
REMARK    3  A    between atoms: C_7  and  N_8 
REMARK       I    between atoms: N_8  and  C_9 
REMARK       I    between atoms: C_9  and  N_10 
REMARK    4  A    between atoms: N_10  and  N_11 
REMARK       I    between atoms: N_11  and  C_12 
REMARK    5  A    between atoms: C_12  and  C_13 
REMARK    6  A    between atoms: C_13  and  O_14 
REMARK    7  A    between atoms: O_14  and  C_15 
ROOT
HETATM    1  N   UNL     1      41.707 -13.159   5.505  1.00  0.00    -0.341 N 
HETATM    2  C   UNL     1      40.344 -13.255   5.560  1.00  0.00     0.334 C 
HETATM    3  N   UNL     1      39.760 -13.989   4.553  1.00  0.00    -0.249 N 
HETATM    4  O   UNL     1      39.651 -12.728   6.424  1.00  0.00    -0.246 OA
HETATM    5  H   UNL     1      42.028 -13.164   4.541  1.00  0.00     0.164 HD
HETATM    6  H   UNL     1      38.753 -14.078   4.627  1.00  0.00     0.192 HD
ENDROOT
BRANCH   3   7
HETATM    7  N   UNL     1      40.440 -14.947   3.768  1.00  0.00    -0.264 N 
HETATM    8  C   UNL     1      41.008 -14.584   2.556  1.00  0.00     0.260 C 
HETATM    9  O   UNL     1      41.215 -13.418   2.220  1.00  0.00    -0.269 OA
HETATM   10  H   UNL     1      40.147 -15.913   3.897  1.00  0.00     0.190 HD
BRANCH   8  11
HETATM   11  C   UNL     1      41.454 -15.767   1.710  1.00  0.00     0.280 C 
BRANCH  11  12
HETATM   12  O   UNL     1      42.858 -15.939   1.886  1.00  0.00    -0.342 OA
BRANCH  12  13
HETATM   13  C   UNL     1      43.181 -17.068   2.591  1.00  0.00     0.069 A 
HETATM   14  C   UNL     1      43.162 -18.352   2.044  1.00  0.00     0.038 A 
HETATM   15  C   UNL     1      43.512 -19.451   2.834  1.00  0.00     0.022 A 
HETATM   16  C   UNL     1      43.889 -19.258   4.162  1.00  0.00     0.011 A 
HETATM   17 BR   UNL     1      44.353 -20.747   5.230  1.00  0.00    -0.051 Br
HETATM   18  C   UNL     1      43.931 -17.976   4.705  1.00  0.00     0.022 A 
HETATM   19  C   UNL     1      43.585 -16.878   3.913  1.00  0.00     0.038 A 
ENDBRANCH  12  13
ENDBRANCH  11  12
ENDBRANCH   8  11
ENDBRANCH   3   7
BRANCH   1  20
HETATM   20  C   UNL     1      42.424 -12.240   6.372  1.00  0.00     0.130 C 
BRANCH  20  21
HETATM   21  C   UNL     1      43.817 -12.726   6.772  1.00  0.00     0.079 C 
BRANCH  21  22
HETATM   22  C   UNL     1      44.614 -11.625   7.394  1.00  0.00     0.043 A 
HETATM   23  C   UNL     1      45.630 -10.905   6.796  1.00  0.00     0.078 A 
HETATM   24  S   UNL     1      46.267  -9.758   7.898  1.00  0.00    -0.085 SA
HETATM   25  C   UNL     1      45.158 -10.305   9.089  1.00  0.00     0.071 A 
HETATM   26  C   UNL     1      45.140  -9.686  10.442  1.00  0.00     0.078 C 
HETATM   27  N   UNL     1      44.352 -11.274   8.710  1.00  0.00    -0.251 NA
ENDBRANCH  21  22
ENDBRANCH  20  21
ENDBRANCH   1  20
TORSDOF 7
ENDMDL
MODEL 2
REMARK VINA RESULT:      -7.5      4.240      6.622
REMARK  7 active torsions:
REMARK  status: ('A' for Active; 'I' for Inactive)
REMARK    1  A    between atoms: C_5  and  C_6 
REMARK    2  A    between atoms: C_6  and  C_7 
REMARK    3  A    between atoms: C_7  and  N_8 
REMARK       I    between atoms: N_8  and  C_9 
REMARK       I    between atoms: C_9  and  N_10 
REMARK    4  A    between atoms: N_10  and  N_11 
REMARK       I    between atoms: N_11  and  C_12 
REMARK    5  A    between atoms: C_12  and  C_13 
REMARK    6  A    between atoms: C_13  and  O_14 
REMARK    7  A    between atoms: O_14  and  C_15 
ROOT
HETATM    1  N   UNL     1      40.052 -13.431   4.150  1.00  0.00    -0.341 N 
HETATM    2  C   UNL     1      39.717 -12.777   5.303  1.00  0.00     0.334 C 
HETATM    3  N   UNL     1      40.312 -13.254   6.449  1.00  0.00    -0.249 N 
HETATM    4  O   UNL     1      38.936 -11.833   5.357  1.00  0.00    -0.246 OA
HETATM    5  H   UNL     1      40.231 -14.414   4.335  1.00  0.00     0.164 HD
HETATM    6  H   UNL     1      40.079 -12.736   7.290  1.00  0.00     0.192 HD
ENDROOT
BRANCH   3   7
HETATM    7  N   UNL     1      41.491 -14.031   6.471  1.00  0.00    -0.264 N 
HETATM    8  C   UNL     1      41.433 -15.383   6.774  1.00  0.00     0.260 C 
HETATM    9  O   UNL     1      40.394 -16.044   6.759  1.00  0.00    -0.269 OA
HETATM   10  H   UNL     1      42.350 -13.525   6.673  1.00  0.00     0.190 HD
BRANCH   8  11
HETATM   11  C   UNL     1      42.794 -16.013   7.028  1.00  0.00     0.280 C 
BRANCH  11  12
HETATM   12  O   UNL     1      43.630 -15.740   5.906  1.00  0.00    -0.342 OA
BRANCH  12  13
HETATM   13  C   UNL     1      43.610 -16.734   4.963  1.00  0.00     0.069 A 
HETATM   14  C   UNL     1      43.199 -16.537   3.643  1.00  0.00     0.038 A 
HETATM   15  C   UNL     1      43.215 -17.606   2.743  1.00  0.00     0.022 A 
HETATM   16  C   UNL     1      43.652 -18.861   3.164  1.00  0.00     0.011 A 
HETATM   17 BR   UNL     1      43.665 -20.307   1.946  1.00  0.00    -0.051 Br
HETATM   18  C   UNL     1      44.085 -19.055   4.474  1.00  0.00     0.022 A 
HETATM   19  C   UNL     1      44.072 -17.985   5.372  1.00  0.00     0.038 A 
ENDBRANCH  12  13
ENDBRANCH  11  12
ENDBRANCH   8  11
ENDBRANCH   3   7
BRANCH   1  20
HETATM   20  C   UNL     1      39.335 -13.175   2.913  1.00  0.00     0.130 C 
BRANCH  20  21
HETATM   21  C   UNL     1      40.234 -12.753   1.752  1.00  0.00     0.079 C 
BRANCH  21  22
HETATM   22  C   UNL     1      39.507 -12.839   0.448  1.00  0.00     0.043 A 
HETATM   23  C   UNL     1      38.614 -11.915  -0.058  1.00  0.00     0.078 A 
HETATM   24  S   UNL     1      38.016 -12.444  -1.574  1.00  0.00    -0.085 SA
HETATM   25  C   UNL     1      38.975 -13.863  -1.443  1.00  0.00     0.071 A 
HETATM   26  C   UNL     1      38.955 -14.886  -2.523  1.00  0.00     0.078 C 
HETATM   27  N   UNL     1      39.706 -13.953  -0.353  1.00  0.00    -0.251 NA
ENDBRANCH  21  22
ENDBRANCH  20  21
ENDBRANCH   1  20
TORSDOF 7
ENDMDL
MODEL 3
REMARK VINA RESULT:      -7.5      4.408      8.597
REMARK  7 active torsions:
REMARK  status: ('A' for Active; 'I' for Inactive)
REMARK    1  A    between atoms: C_5  and  C_6 
REMARK    2  A    between atoms: C_6  and  C_7 
REMARK    3  A    between atoms: C_7  and  N_8 
REMARK       I    between atoms: N_8  and  C_9 
REMARK       I    between atoms: C_9  and  N_10 
REMARK    4  A    between atoms: N_10  and  N_11 
REMARK       I    between atoms: N_11  and  C_12 
REMARK    5  A    between atoms: C_12  and  C_13 
REMARK    6  A    between atoms: C_13  and  O_14 
REMARK    7  A    between atoms: O_14  and  C_15 
ROOT
HETATM    1  N   UNL     1      42.767 -14.514   7.100  1.00  0.00    -0.341 N 
HETATM    2  C   UNL     1      42.043 -13.675   6.300  1.00  0.00     0.334 C 
HETATM    3  N   UNL     1      42.223 -12.330   6.535  1.00  0.00    -0.249 N 
HETATM    4  O   UNL     1      41.268 -14.052   5.428  1.00  0.00    -0.246 OA
HETATM    5  H   UNL     1      42.897 -14.108   8.022  1.00  0.00     0.164 HD
HETATM    6  H   UNL     1      41.704 -11.722   5.912  1.00  0.00     0.192 HD
ENDROOT
BRANCH   3   7
HETATM    7  N   UNL     1      43.343 -11.780   7.197  1.00  0.00    -0.264 N 
HETATM    8  C   UNL     1      44.435 -11.329   6.470  1.00  0.00     0.260 C 
HETATM    9  O   UNL     1      44.405 -11.107   5.259  1.00  0.00    -0.269 OA
HETATM   10  H   UNL     1      43.494 -12.100   8.151  1.00  0.00     0.190 HD
BRANCH   8  11
HETATM   11  C   UNL     1      45.656 -11.026   7.323  1.00  0.00     0.280 C 
BRANCH  11  12
HETATM   12  O   UNL     1      45.710  -9.619   7.546  1.00  0.00    -0.342 OA
BRANCH  12  13
HETATM   13  C   UNL     1      45.049  -9.226   8.679  1.00  0.00     0.069 A 
HETATM   14  C   UNL     1      44.133  -8.172   8.712  1.00  0.00     0.038 A 
HETATM   15  C   UNL     1      43.497  -7.840   9.912  1.00  0.00     0.022 A 
HETATM   16  C   UNL     1      43.771  -8.570  11.067  1.00  0.00     0.011 A 
HETATM   17 BR   UNL     1      42.915  -8.113  12.690  1.00  0.00    -0.051 Br
HETATM   18  C   UNL     1      44.667  -9.636  11.033  1.00  0.00     0.022 A 
HETATM   19  C   UNL     1      45.299  -9.970   9.833  1.00  0.00     0.038 A 
ENDBRANCH  12  13
ENDBRANCH  11  12
ENDBRANCH   8  11
ENDBRANCH   3   7
BRANCH   1  20
HETATM   20  C   UNL     1      42.509 -15.944   7.106  1.00  0.00     0.130 C 
BRANCH  20  21
HETATM   21  C   UNL     1      43.745 -16.798   6.825  1.00  0.00     0.079 C 
BRANCH  21  22
HETATM   22  C   UNL     1      43.735 -17.317   5.423  1.00  0.00     0.043 A 
HETATM   23  C   UNL     1      44.077 -18.591   5.014  1.00  0.00     0.078 A 
HETATM   24  S   UNL     1      43.932 -18.722   3.312  1.00  0.00    -0.085 SA
HETATM   25  C   UNL     1      43.439 -17.078   3.240  1.00  0.00     0.071 A 
HETATM   26  C   UNL     1      43.109 -16.448   1.933  1.00  0.00     0.078 C 
HETATM   27  N   UNL     1      43.372 -16.456   4.398  1.00  0.00    -0.251 NA
ENDBRANCH  21  22
ENDBRANCH  20  21
ENDBRANCH   1  20
TORSDOF 7
ENDMDL
MODEL 4
REMARK VINA RESULT:      -7.3      3.231      4.967
REMARK  7 active torsions:
REMARK  status: ('A' for Active; 'I' for Inactive)
REMARK    1  A    between atoms: C_5  and  C_6 
REMARK    2  A    between atoms: C_6  and  C_7 
REMARK    3  A    between atoms: C_7  and  N_8 
REMARK       I    between atoms: N_8  and  C_9 
REMARK       I    between atoms: C_9  and  N_10 
REMARK    4  A    between atoms: N_10  and  N_11 
REMARK       I    between atoms: N_11  and  C_12 
REMARK    5  A    between atoms: C_12  and  C_13 
REMARK    6  A    between atoms: C_13  and  O_14 
REMARK    7  A    between atoms: O_14  and  C_15 
ROOT
HETATM    1  N   UNL     1      45.235 -10.540   8.866  1.00  0.00    -0.341 N 
HETATM    2  C   UNL     1      45.929 -10.028   7.806  1.00  0.00     0.334 C 
HETATM    3  N   UNL     1      45.947 -10.812   6.675  1.00  0.00    -0.249 N 
HETATM    4  O   UNL     1      46.517  -8.951   7.823  1.00  0.00    -0.246 OA
HETATM    5  H   UNL     1      45.291 -11.555   8.875  1.00  0.00     0.164 HD
HETATM    6  H   UNL     1      46.437 -10.402   5.887  1.00  0.00     0.192 HD
ENDROOT
BRANCH   3   7
HETATM    7  N   UNL     1      45.010 -11.832   6.397  1.00  0.00    -0.264 N 
HETATM    8  C   UNL     1      44.341 -11.857   5.182  1.00  0.00     0.260 C 
HETATM    9  O   UNL     1      44.695 -11.214   4.194  1.00  0.00    -0.269 OA
HETATM   10  H   UNL     1      44.561 -12.252   7.207  1.00  0.00     0.190 HD
BRANCH   8  11
HETATM   11  C   UNL     1      43.180 -12.838   5.143  1.00  0.00     0.280 C 
BRANCH  11  12
HETATM   12  O   UNL     1      42.910 -13.158   3.780  1.00  0.00    -0.342 OA
BRANCH  12  13
HETATM   13  C   UNL     1      43.002 -14.498   3.512  1.00  0.00     0.069 A 
HETATM   14  C   UNL     1      42.883 -15.491   4.486  1.00  0.00     0.038 A 
HETATM   15  C   UNL     1      42.984 -16.838   4.124  1.00  0.00     0.022 A 
HETATM   16  C   UNL     1      43.192 -17.183   2.790  1.00  0.00     0.011 A 
HETATM   17 BR   UNL     1      43.336 -19.005   2.305  1.00  0.00    -0.051 Br
HETATM   18  C   UNL     1      43.288 -16.196   1.811  1.00  0.00     0.022 A 
HETATM   19  C   UNL     1      43.183 -14.851   2.174  1.00  0.00     0.038 A 
ENDBRANCH  12  13
ENDBRANCH  11  12
ENDBRANCH   8  11
ENDBRANCH   3   7
BRANCH   1  20
HETATM   20  C   UNL     1      45.319  -9.924  10.179  1.00  0.00     0.130 C 
BRANCH  20  21
HETATM   21  C   UNL     1      44.109 -10.200  11.072  1.00  0.00     0.079 C 
BRANCH  21  22
HETATM   22  C   UNL     1      43.072  -9.134  10.920  1.00  0.00     0.043 A 
HETATM   23  C   UNL     1      41.760  -9.195  11.348  1.00  0.00     0.078 A 
HETATM   24  S   UNL     1      40.940  -7.747  10.939  1.00  0.00    -0.085 SA
HETATM   25  C   UNL     1      42.379  -7.151  10.216  1.00  0.00     0.071 A 
HETATM   26  C   UNL     1      42.404  -5.800   9.593  1.00  0.00     0.078 C 
HETATM   27  N   UNL     1      43.417  -7.958  10.271  1.00  0.00    -0.251 NA
ENDBRANCH  21  22
ENDBRANCH  20  21
ENDBRANCH   1  20
TORSDOF 7
ENDMDL
MODEL 5
REMARK VINA RESULT:      -7.2      3.725      5.796
REMARK  7 active torsions:
REMARK  status: ('A' for Active; 'I' for Inactive)
REMARK    1  A    between atoms: C_5  and  C_6 
REMARK    2  A    between atoms: C_6  and  C_7 
REMARK    3  A    between atoms: C_7  and  N_8 
REMARK       I    between atoms: N_8  and  C_9 
REMARK       I    between atoms: C_9  and  N_10 
REMARK    4  A    between atoms: N_10  and  N_11 
REMARK       I    between atoms: N_11  and  C_12 
REMARK    5  A    between atoms: C_12  and  C_13 
REMARK    6  A    between atoms: C_13  and  O_14 
REMARK    7  A    between atoms: O_14  and  C_15 
ROOT
HETATM    1  N   UNL     1      41.185 -11.667   4.136  1.00  0.00    -0.341 N 
HETATM    2  C   UNL     1      41.552 -11.077   5.313  1.00  0.00     0.334 C 
HETATM    3  N   UNL     1      41.540 -11.899   6.417  1.00  0.00    -0.249 N 
HETATM    4  O   UNL     1      41.868  -9.897   5.423  1.00  0.00    -0.246 OA
HETATM    5  H   UNL     1      40.495 -12.395   4.299  1.00  0.00     0.164 HD
HETATM    6  H   UNL     1      41.847 -11.454   7.275  1.00  0.00     0.192 HD
ENDROOT
BRANCH   3   7
HETATM    7  N   UNL     1      41.595 -13.310   6.361  1.00  0.00    -0.264 N 
HETATM    8  C   UNL     1      42.743 -13.982   6.752  1.00  0.00     0.260 C 
HETATM    9  O   UNL     1      43.644 -13.469   7.415  1.00  0.00    -0.269 OA
HETATM   10  H   UNL     1      40.985 -13.749   5.676  1.00  0.00     0.190 HD
BRANCH   8  11
HETATM   11  C   UNL     1      42.747 -15.456   6.376  1.00  0.00     0.280 C 
BRANCH  11  12
HETATM   12  O   UNL     1      43.978 -15.748   5.719  1.00  0.00    -0.342 OA
BRANCH  12  13
HETATM   13  C   UNL     1      43.900 -16.830   4.882  1.00  0.00     0.069 A 
HETATM   14  C   UNL     1      44.302 -18.117   5.244  1.00  0.00     0.038 A 
HETATM   15  C   UNL     1      44.183 -19.167   4.329  1.00  0.00     0.022 A 
HETATM   16  C   UNL     1      43.653 -18.926   3.062  1.00  0.00     0.011 A 
HETATM   17 BR   UNL     1      43.502 -20.345   1.824  1.00  0.00    -0.051 Br
HETATM   18  C   UNL     1      43.230 -17.647   2.705  1.00  0.00     0.022 A 
HETATM   19  C   UNL     1      43.346 -16.600   3.622  1.00  0.00     0.038 A 
ENDBRANCH  12  13
ENDBRANCH  11  12
ENDBRANCH   8  11
ENDBRANCH   3   7
BRANCH   1  20
HETATM   20  C   UNL     1      40.945 -10.869   2.946  1.00  0.00     0.130 C 
BRANCH  20  21
HETATM   21  C   UNL     1      41.767 -11.302   1.733  1.00  0.00     0.079 C 
BRANCH  21  22
HETATM   22  C   UNL     1      41.127 -12.458   1.032  1.00  0.00     0.043 A 
HETATM   23  C   UNL     1      40.695 -12.488  -0.280  1.00  0.00     0.078 A 
HETATM   24  S   UNL     1      40.009 -14.017  -0.638  1.00  0.00    -0.085 SA
HETATM   25  C   UNL     1      40.324 -14.522   0.973  1.00  0.00     0.071 A 
HETATM   26  C   UNL     1      39.953 -15.892   1.418  1.00  0.00     0.078 C 
HETATM   27  N   UNL     1      40.909 -13.629   1.742  1.00  0.00    -0.251 NA
ENDBRANCH  21  22
ENDBRANCH  20  21
ENDBRANCH   1  20
TORSDOF 7
ENDMDL
MODEL 6
REMARK VINA RESULT:      -7.2      3.516      5.178
REMARK  7 active torsions:
REMARK  status: ('A' for Active; 'I' for Inactive)
REMARK    1  A    between atoms: C_5  and  C_6 
REMARK    2  A    between atoms: C_6  and  C_7 
REMARK    3  A    between atoms: C_7  and  N_8 
REMARK       I    between atoms: N_8  and  C_9 
REMARK       I    between atoms: C_9  and  N_10 
REMARK    4  A    between atoms: N_10  and  N_11 
REMARK       I    between atoms: N_11  and  C_12 
REMARK    5  A    between atoms: C_12  and  C_13 
REMARK    6  A    between atoms: C_13  and  O_14 
REMARK    7  A    between atoms: O_14  and  C_15 
ROOT
HETATM    1  N   UNL     1      44.588  -9.859   8.627  1.00  0.00    -0.341 N 
HETATM    2  C   UNL     1      45.716  -9.892   7.856  1.00  0.00     0.334 C 
HETATM    3  N   UNL     1      45.915 -11.054   7.145  1.00  0.00    -0.249 N 
HETATM    4  O   UNL     1      46.528  -8.975   7.784  1.00  0.00    -0.246 OA
HETATM    5  H   UNL     1      44.363 -10.787   8.974  1.00  0.00     0.164 HD
HETATM    6  H   UNL     1      46.738 -11.049   6.553  1.00  0.00     0.192 HD
ENDROOT
BRANCH   3   7
HETATM    7  N   UNL     1      44.895 -11.980   6.831  1.00  0.00    -0.264 N 
HETATM    8  C   UNL     1      44.205 -11.882   5.632  1.00  0.00     0.260 C 
HETATM    9  O   UNL     1      44.590 -11.212   4.674  1.00  0.00    -0.269 OA
HETATM   10  H   UNL     1      44.429 -12.410   7.626  1.00  0.00     0.190 HD
BRANCH   8  11
HETATM   11  C   UNL     1      42.969 -12.766   5.564  1.00  0.00     0.280 C 
BRANCH  11  12
HETATM   12  O   UNL     1      43.182 -13.899   6.402  1.00  0.00    -0.342 OA
BRANCH  12  13
HETATM   13  C   UNL     1      43.388 -15.058   5.702  1.00  0.00     0.069 A 
HETATM   14  C   UNL     1      44.230 -16.084   6.137  1.00  0.00     0.038 A 
HETATM   15  C   UNL     1      44.379 -17.238   5.363  1.00  0.00     0.022 A 
HETATM   16  C   UNL     1      43.678 -17.365   4.164  1.00  0.00     0.011 A 
HETATM   17 BR   UNL     1      43.888 -18.923   3.115  1.00  0.00    -0.051 Br
HETATM   18  C   UNL     1      42.820 -16.353   3.738  1.00  0.00     0.022 A 
HETATM   19  C   UNL     1      42.668 -15.202   4.515  1.00  0.00     0.038 A 
ENDBRANCH  12  13
ENDBRANCH  11  12
ENDBRANCH   8  11
ENDBRANCH   3   7
BRANCH   1  20
HETATM   20  C   UNL     1      44.373  -8.792   9.588  1.00  0.00     0.130 C 
BRANCH  20  21
HETATM   21  C   UNL     1      43.944  -9.280  10.971  1.00  0.00     0.079 C 
BRANCH  21  22
HETATM   22  C   UNL     1      42.457  -9.412  11.059  1.00  0.00     0.043 A 
HETATM   23  C   UNL     1      41.536  -8.989  10.121  1.00  0.00     0.078 A 
HETATM   24  S   UNL     1      39.947  -9.333  10.660  1.00  0.00    -0.085 SA
HETATM   25  C   UNL     1      40.595 -10.008  12.101  1.00  0.00     0.071 A 
HETATM   26  C   UNL     1      39.691 -10.568  13.142  1.00  0.00     0.078 C 
HETATM   27  N   UNL     1      41.907  -9.994  12.192  1.00  0.00    -0.251 NA
ENDBRANCH  21  22
ENDBRANCH  20  21
ENDBRANCH   1  20
TORSDOF 7
ENDMDL
MODEL 7
REMARK VINA RESULT:      -7.1      4.342      8.732
REMARK  7 active torsions:
REMARK  status: ('A' for Active; 'I' for Inactive)
REMARK    1  A    between atoms: C_5  and  C_6 
REMARK    2  A    between atoms: C_6  and  C_7 
REMARK    3  A    between atoms: C_7  and  N_8 
REMARK       I    between atoms: N_8  and  C_9 
REMARK       I    between atoms: C_9  and  N_10 
REMARK    4  A    between atoms: N_10  and  N_11 
REMARK       I    between atoms: N_11  and  C_12 
REMARK    5  A    between atoms: C_12  and  C_13 
REMARK    6  A    between atoms: C_13  and  O_14 
REMARK    7  A    between atoms: O_14  and  C_15 
ROOT
HETATM    1  N   UNL     1      41.309 -14.862   4.684  1.00  0.00    -0.341 N 
HETATM    2  C   UNL     1      40.957 -15.195   5.962  1.00  0.00     0.334 C 
HETATM    3  N   UNL     1      41.576 -14.471   6.955  1.00  0.00    -0.249 N 
HETATM    4  O   UNL     1      40.155 -16.078   6.247  1.00  0.00    -0.246 OA
HETATM    5  H   UNL     1      42.277 -14.553   4.648  1.00  0.00     0.164 HD
HETATM    6  H   UNL     1      41.278 -14.708   7.895  1.00  0.00     0.192 HD
ENDROOT
BRANCH   3   7
HETATM    7  N   UNL     1      42.179 -13.208   6.764  1.00  0.00    -0.264 N 
HETATM    8  C   UNL     1      43.560 -13.082   6.770  1.00  0.00     0.260 C 
HETATM    9  O   UNL     1      44.333 -14.033   6.653  1.00  0.00    -0.269 OA
HETATM   10  H   UNL     1      41.617 -12.404   7.036  1.00  0.00     0.190 HD
BRANCH   8  11
HETATM   11  C   UNL     1      44.044 -11.642   6.830  1.00  0.00     0.280 C 
BRANCH  11  12
HETATM   12  O   UNL     1      44.827 -11.480   8.010  1.00  0.00    -0.342 OA
BRANCH  12  13
HETATM   13  C   UNL     1      44.330 -10.531   8.863  1.00  0.00     0.069 A 
HETATM   14  C   UNL     1      44.900 -10.231  10.102  1.00  0.00     0.038 A 
HETATM   15  C   UNL     1      44.332  -9.241  10.909  1.00  0.00     0.022 A 
HETATM   16  C   UNL     1      43.204  -8.550  10.468  1.00  0.00     0.011 A 
HETATM   17 BR   UNL     1      42.433  -7.218  11.565  1.00  0.00    -0.051 Br
HETATM   18  C   UNL     1      42.646  -8.831   9.223  1.00  0.00     0.022 A 
HETATM   19  C   UNL     1      43.218  -9.817   8.415  1.00  0.00     0.038 A 
ENDBRANCH  12  13
ENDBRANCH  11  12
ENDBRANCH   8  11
ENDBRANCH   3   7
BRANCH   1  20
HETATM   20  C   UNL     1      40.901 -15.686   3.560  1.00  0.00     0.130 C 
BRANCH  20  21
HETATM   21  C   UNL     1      42.021 -15.970   2.560  1.00  0.00     0.079 C 
BRANCH  21  22
HETATM   22  C   UNL     1      42.802 -17.182   2.954  1.00  0.00     0.043 A 
HETATM   23  C   UNL     1      43.572 -17.332   4.091  1.00  0.00     0.078 A 
HETATM   24  S   UNL     1      44.296 -18.885   4.111  1.00  0.00    -0.085 SA
HETATM   25  C   UNL     1      43.545 -19.241   2.607  1.00  0.00     0.071 A 
HETATM   26  C   UNL     1      43.752 -20.563   1.958  1.00  0.00     0.078 C 
HETATM   27  N   UNL     1      42.794 -18.282   2.109  1.00  0.00    -0.251 NA
ENDBRANCH  21  22
ENDBRANCH  20  21
ENDBRANCH   1  20
TORSDOF 7
ENDMDL
MODEL 8
REMARK VINA RESULT:      -7.1      3.667      6.981
REMARK  7 active torsions:
REMARK  status: ('A' for Active; 'I' for Inactive)
REMARK    1  A    between atoms: C_5  and  C_6 
REMARK    2  A    between atoms: C_6  and  C_7 
REMARK    3  A    between atoms: C_7  and  N_8 
REMARK       I    between atoms: N_8  and  C_9 
REMARK       I    between atoms: C_9  and  N_10 
REMARK    4  A    between atoms: N_10  and  N_11 
REMARK       I    between atoms: N_11  and  C_12 
REMARK    5  A    between atoms: C_12  and  C_13 
REMARK    6  A    between atoms: C_13  and  O_14 
REMARK    7  A    between atoms: O_14  and  C_15 
ROOT
HETATM    1  N   UNL     1      40.937 -15.556   2.622  1.00  0.00    -0.341 N 
HETATM    2  C   UNL     1      39.934 -15.066   1.834  1.00  0.00     0.334 C 
HETATM    3  N   UNL     1      39.023 -14.255   2.470  1.00  0.00    -0.249 N 
HETATM    4  O   UNL     1      39.812 -15.316   0.639  1.00  0.00    -0.246 OA
HETATM    5  H   UNL     1      40.608 -15.702   3.572  1.00  0.00     0.164 HD
HETATM    6  H   UNL     1      38.305 -13.873   1.864  1.00  0.00     0.192 HD
ENDROOT
BRANCH   3   7
HETATM    7  N   UNL     1      39.268 -13.584   3.689  1.00  0.00    -0.264 N 
HETATM    8  C   UNL     1      39.498 -12.216   3.702  1.00  0.00     0.260 C 
HETATM    9  O   UNL     1      39.233 -11.469   2.760  1.00  0.00    -0.269 OA
HETATM   10  H   UNL     1      39.669 -14.150   4.433  1.00  0.00     0.190 HD
BRANCH   8  11
HETATM   11  C   UNL     1      40.015 -11.695   5.034  1.00  0.00     0.280 C 
BRANCH  11  12
HETATM   12  O   UNL     1      40.873 -12.682   5.599  1.00  0.00    -0.342 OA
BRANCH  12  13
HETATM   13  C   UNL     1      42.058 -12.171   6.057  1.00  0.00     0.069 A 
HETATM   14  C   UNL     1      42.231 -10.836   6.428  1.00  0.00     0.038 A 
HETATM   15  C   UNL     1      43.475 -10.397   6.892  1.00  0.00     0.022 A 
HETATM   16  C   UNL     1      44.534 -11.298   6.992  1.00  0.00     0.011 A 
HETATM   17 BR   UNL     1      46.217 -10.700   7.611  1.00  0.00    -0.051 Br
HETATM   18  C   UNL     1      44.359 -12.635   6.645  1.00  0.00     0.022 A 
HETATM   19  C   UNL     1      43.114 -13.073   6.186  1.00  0.00     0.038 A 
ENDBRANCH  12  13
ENDBRANCH  11  12
ENDBRANCH   8  11
ENDBRANCH   3   7
BRANCH   1  20
HETATM   20  C   UNL     1      41.831 -16.591   2.132  1.00  0.00     0.130 C 
BRANCH  20  21
HETATM   21  C   UNL     1      43.248 -16.505   2.698  1.00  0.00     0.079 C 
BRANCH  21  22
HETATM   22  C   UNL     1      43.390 -17.346   3.927  1.00  0.00     0.043 A 
HETATM   23  C   UNL     1      43.134 -16.955   5.226  1.00  0.00     0.078 A 
HETATM   24  S   UNL     1      43.455 -18.247   6.304  1.00  0.00    -0.085 SA
HETATM   25  C   UNL     1      43.920 -19.226   4.972  1.00  0.00     0.071 A 
HETATM   26  C   UNL     1      44.363 -20.630   5.188  1.00  0.00     0.078 C 
HETATM   27  N   UNL     1      43.841 -18.650   3.792  1.00  0.00    -0.251 NA
ENDBRANCH  21  22
ENDBRANCH  20  21
ENDBRANCH   1  20
TORSDOF 7
ENDMDL
MODEL 9
REMARK VINA RESULT:      -7.0      3.101      4.243
REMARK  7 active torsions:
REMARK  status: ('A' for Active; 'I' for Inactive)
REMARK    1  A    between atoms: C_5  and  C_6 
REMARK    2  A    between atoms: C_6  and  C_7 
REMARK    3  A    between atoms: C_7  and  N_8 
REMARK       I    between atoms: N_8  and  C_9 
REMARK       I    between atoms: C_9  and  N_10 
REMARK    4  A    between atoms: N_10  and  N_11 
REMARK       I    between atoms: N_11  and  C_12 
REMARK    5  A    between atoms: C_12  and  C_13 
REMARK    6  A    between atoms: C_13  and  O_14 
REMARK    7  A    between atoms: O_14  and  C_15 
ROOT
HETATM    1  N   UNL     1      43.430 -11.040   8.500  1.00  0.00    -0.341 N 
HETATM    2  C   UNL     1      42.675 -10.348   7.593  1.00  0.00     0.334 C 
HETATM    3  N   UNL     1      42.164 -11.094   6.556  1.00  0.00    -0.249 N 
HETATM    4  O   UNL     1      42.454  -9.143   7.658  1.00  0.00    -0.246 OA
HETATM    5  H   UNL     1      43.924 -11.803   8.047  1.00  0.00     0.164 HD
HETATM    6  H   UNL     1      41.579 -10.573   5.912  1.00  0.00     0.192 HD
ENDROOT
BRANCH   3   7
HETATM    7  N   UNL     1      42.005 -12.498   6.586  1.00  0.00    -0.264 N 
HETATM    8  C   UNL     1      43.071 -13.330   6.274  1.00  0.00     0.260 C 
HETATM    9  O   UNL     1      44.243 -12.955   6.237  1.00  0.00    -0.269 OA
HETATM   10  H   UNL     1      41.061 -12.840   6.428  1.00  0.00     0.190 HD
BRANCH   8  11
HETATM   11  C   UNL     1      42.674 -14.785   6.081  1.00  0.00     0.280 C 
BRANCH  11  12
HETATM   12  O   UNL     1      43.864 -15.559   5.943  1.00  0.00    -0.342 OA
BRANCH  12  13
HETATM   13  C   UNL     1      43.754 -16.557   5.010  1.00  0.00     0.069 A 
HETATM   14  C   UNL     1      43.246 -16.360   3.725  1.00  0.00     0.038 A 
HETATM   15  C   UNL     1      43.175 -17.433   2.832  1.00  0.00     0.022 A 
HETATM   16  C   UNL     1      43.622 -18.693   3.226  1.00  0.00     0.011 A 
HETATM   17 BR   UNL     1      43.517 -20.144   2.020  1.00  0.00    -0.051 Br
HETATM   18  C   UNL     1      44.151 -18.888   4.500  1.00  0.00     0.022 A 
HETATM   19  C   UNL     1      44.225 -17.814   5.390  1.00  0.00     0.038 A 
ENDBRANCH  12  13
ENDBRANCH  11  12
ENDBRANCH   8  11
ENDBRANCH   3   7
BRANCH   1  20
HETATM   20  C   UNL     1      44.203 -10.341   9.512  1.00  0.00     0.130 C 
BRANCH  20  21
HETATM   21  C   UNL     1      43.801 -10.685  10.946  1.00  0.00     0.079 C 
BRANCH  21  22
HETATM   22  C   UNL     1      42.916  -9.627  11.525  1.00  0.00     0.043 A 
HETATM   23  C   UNL     1      41.577  -9.432  11.250  1.00  0.00     0.078 A 
HETATM   24  S   UNL     1      40.985  -8.089  12.133  1.00  0.00    -0.085 SA
HETATM   25  C   UNL     1      42.547  -7.857  12.806  1.00  0.00     0.071 A 
HETATM   26  C   UNL     1      42.796  -6.751  13.769  1.00  0.00     0.078 C 
HETATM   27  N   UNL     1      43.464  -8.718  12.418  1.00  0.00    -0.251 NA
ENDBRANCH  21  22
ENDBRANCH  20  21
ENDBRANCH   1  20
TORSDOF 7
ENDMDL
MODEL 10
REMARK VINA RESULT:      -7.0      5.431     10.248
REMARK  7 active torsions:
REMARK  status: ('A' for Active; 'I' for Inactive)
REMARK    1  A    between atoms: C_5  and  C_6 
REMARK    2  A    between atoms: C_6  and  C_7 
REMARK    3  A    between atoms: C_7  and  N_8 
REMARK       I    between atoms: N_8  and  C_9 
REMARK       I    between atoms: C_9  and  N_10 
REMARK    4  A    between atoms: N_10  and  N_11 
REMARK       I    between atoms: N_11  and  C_12 
REMARK    5  A    between atoms: C_12  and  C_13 
REMARK    6  A    between atoms: C_13  and  O_14 
REMARK    7  A    between atoms: O_14  and  C_15 
ROOT
HETATM    1  N   UNL     1      43.425 -12.911   7.324  1.00  0.00    -0.341 N 
HETATM    2  C   UNL     1      43.877 -11.757   6.749  1.00  0.00     0.334 C 
HETATM    3  N   UNL     1      43.581 -10.599   7.431  1.00  0.00    -0.249 N 
HETATM    4  O   UNL     1      44.499 -11.711   5.692  1.00  0.00    -0.246 OA
HETATM    5  H   UNL     1      42.554 -12.747   7.820  1.00  0.00     0.164 HD
HETATM    6  H   UNL     1      43.952  -9.755   7.008  1.00  0.00     0.192 HD
ENDROOT
BRANCH   3   7
HETATM    7  N   UNL     1      43.247 -10.545   8.803  1.00  0.00    -0.264 N 
HETATM    8  C   UNL     1      44.240 -10.393   9.759  1.00  0.00     0.260 C 
HETATM    9  O   UNL     1      45.385 -10.018   9.503  1.00  0.00    -0.269 OA
HETATM   10  H   UNL     1      42.387 -11.018   9.068  1.00  0.00     0.190 HD
BRANCH   8  11
HETATM   11  C   UNL     1      43.760 -10.629  11.183  1.00  0.00     0.280 C 
BRANCH  11  12
HETATM   12  O   UNL     1      42.461 -10.059  11.318  1.00  0.00    -0.342 OA
BRANCH  12  13
HETATM   13  C   UNL     1      42.312  -9.319  12.461  1.00  0.00     0.069 A 
HETATM   14  C   UNL     1      41.326  -9.566  13.418  1.00  0.00     0.038 A 
HETATM   15  C   UNL     1      41.247  -8.765  14.561  1.00  0.00     0.022 A 
HETATM   16  C   UNL     1      42.162  -7.729  14.745  1.00  0.00     0.011 A 
HETATM   17 BR   UNL     1      42.049  -6.642  16.287  1.00  0.00    -0.051 Br
HETATM   18  C   UNL     1      43.162  -7.494  13.804  1.00  0.00     0.022 A 
HETATM   19  C   UNL     1      43.241  -8.298  12.664  1.00  0.00     0.038 A 
ENDBRANCH  12  13
ENDBRANCH  11  12
ENDBRANCH   8  11
ENDBRANCH   3   7
BRANCH   1  20
HETATM   20  C   UNL     1      43.478 -14.172   6.605  1.00  0.00     0.130 C 
BRANCH  20  21
HETATM   21  C   UNL     1      42.134 -14.895   6.523  1.00  0.00     0.079 C 
BRANCH  21  22
HETATM   22  C   UNL     1      41.904 -15.453   5.155  1.00  0.00     0.043 A 
HETATM   23  C   UNL     1      40.879 -15.121   4.291  1.00  0.00     0.078 A 
HETATM   24  S   UNL     1      41.011 -16.030   2.844  1.00  0.00    -0.085 SA
HETATM   25  C   UNL     1      42.409 -16.804   3.472  1.00  0.00     0.071 A 
HETATM   26  C   UNL     1      43.129 -17.826   2.666  1.00  0.00     0.078 C 
HETATM   27  N   UNL     1      42.775 -16.420   4.676  1.00  0.00    -0.251 NA
ENDBRANCH  21  22
ENDBRANCH  20  21
ENDBRANCH   1  20
TORSDOF 7
ENDMDL
