MODEL 1
REMARK VINA RESULT:      -8.8      0.000      0.000
REMARK  7 active torsions:
REMARK  status: ('A' for Active; 'I' for Inactive)
REMARK    1  A    between atoms: O_2  and  C_3 
REMARK    2  A    between atoms: C_5  and  C_6 
REMARK    3  A    between atoms: C_6  and  O_7 
REMARK    4  A    between atoms: C_6  and  C_8 
REMARK    5  A    between atoms: C_8  and  N_9 
REMARK       I    between atoms: N_9  and  C_10 
REMARK    6  A    between atoms: C_10  and  C_11 
REMARK    7  A    between atoms: C_12  and  C_13 
ROOT
HETATM    1  C   UNL     1      41.402 -13.405   4.037  1.00  0.00     0.089 C 
HETATM    2  C   UNL     1      41.798 -11.914   4.022  1.00  0.00     0.068 C 
HETATM    3  C   UNL     1      42.357 -11.409   2.680  1.00  0.00     0.013 C 
HETATM    4  C   UNL     1      41.499 -11.837   1.497  1.00  0.00     0.001 C 
HETATM    5  C   UNL     1      41.304 -13.346   1.476  1.00  0.00     0.001 C 
HETATM    6  C   UNL     1      40.652 -13.832   2.765  1.00  0.00     0.015 C 
ENDROOT
BRANCH   1   7
HETATM    7  C   UNL     1      42.486 -14.437   4.374  1.00  0.00     0.222 C 
HETATM    8  N   UNL     1      42.654 -14.755   5.697  1.00  0.00    -0.358 N 
HETATM    9  H   UNL     1      41.789 -14.809   6.225  1.00  0.00     0.162 HD
HETATM   10  O   UNL     1      43.228 -14.861   3.487  1.00  0.00    -0.273 OA
BRANCH   8  11
HETATM   11  C   UNL     1      43.652 -15.720   6.136  1.00  0.00     0.159 C 
BRANCH  11  12
HETATM   12  C   UNL     1      43.137 -17.044   6.741  1.00  0.00     0.169 C 
BRANCH  12  13
HETATM   13  C   UNL     1      43.440 -18.276   5.910  1.00  0.00    -0.025 A 
HETATM   14  C   UNL     1      43.678 -18.184   4.527  1.00  0.00     0.046 A 
HETATM   15  C   UNL     1      43.981 -19.326   3.779  1.00  0.00     0.068 A 
HETATM   16  C   UNL     1      44.028 -20.568   4.416  1.00  0.00     0.037 A 
HETATM   17  C   UNL     1      43.787 -20.676   5.784  1.00  0.00     0.003 A 
HETATM   18  C   UNL     1      43.496 -19.534   6.528  1.00  0.00     0.010 A 
BRANCH  15  19
HETATM   19  O   UNL     1      44.245 -19.364   2.438  1.00  0.00    -0.356 OA
HETATM   20  C   UNL     1      43.652 -20.423   1.697  1.00  0.00     0.210 C 
ENDBRANCH  15  19
ENDBRANCH  12  13
BRANCH  12  21
HETATM   21  O   UNL     1      43.727 -17.215   8.040  1.00  0.00    -0.389 OA
HETATM   22  H   UNL     1      43.858 -16.318   8.396  1.00  0.00     0.210 HD
ENDBRANCH  12  21
ENDBRANCH  11  12
ENDBRANCH   8  11
ENDBRANCH   1   7
BRANCH   2  23
HETATM   23  C   UNL     1      42.724 -11.575   5.151  1.00  0.00     0.110 A 
HETATM   24  N   UNL     1      42.370 -11.167   6.353  1.00  0.00    -0.233 NA
HETATM   25  C   UNL     1      43.544 -10.925   7.024  1.00  0.00     0.087 A 
HETATM   26  C   UNL     1      44.641 -11.196   6.213  1.00  0.00     0.062 A 
HETATM   27  C   UNL     1      43.749 -10.467   8.332  1.00  0.00     0.057 A 
HETATM   28  N   UNL     1      44.091 -11.609   5.027  1.00  0.00    -0.342 N 
HETATM   29  C   UNL     1      45.963 -11.034   6.629  1.00  0.00     0.034 A 
HETATM   30  H   UNL     1      44.605 -11.872   4.198  1.00  0.00     0.167 HD
HETATM   31  C   UNL     1      46.154 -10.575   7.937  1.00  0.00     0.026 A 
HETATM   32  C   UNL     1      45.066 -10.298   8.770  1.00  0.00     0.036 A 
HETATM   33 CL   UNL     1      45.354  -9.733  10.373  1.00  0.00    -0.084 Cl
ENDBRANCH   2  23
TORSDOF 7
ENDMDL
MODEL 2
REMARK VINA RESULT:      -8.7      1.571      2.161
REMARK  7 active torsions:
REMARK  status: ('A' for Active; 'I' for Inactive)
REMARK    1  A    between atoms: O_2  and  C_3 
REMARK    2  A    between atoms: C_5  and  C_6 
REMARK    3  A    between atoms: C_6  and  O_7 
REMARK    4  A    between atoms: C_6  and  C_8 
REMARK    5  A    between atoms: C_8  and  N_9 
REMARK       I    between atoms: N_9  and  C_10 
REMARK    6  A    between atoms: C_10  and  C_11 
REMARK    7  A    between atoms: C_12  and  C_13 
ROOT
HETATM    1  C   UNL     1      40.797 -14.955   3.789  1.00  0.00     0.089 C 
HETATM    2  C   UNL     1      41.876 -13.966   3.301  1.00  0.00     0.068 C 
HETATM    3  C   UNL     1      43.065 -14.617   2.573  1.00  0.00     0.013 C 
HETATM    4  C   UNL     1      42.621 -15.622   1.520  1.00  0.00     0.001 C 
HETATM    5  C   UNL     1      41.701 -16.676   2.119  1.00  0.00     0.001 C 
HETATM    6  C   UNL     1      40.469 -16.036   2.747  1.00  0.00     0.015 C 
ENDROOT
BRANCH   1   7
HETATM    7  C   UNL     1      40.979 -15.600   5.170  1.00  0.00     0.222 C 
HETATM    8  N   UNL     1      42.263 -15.723   5.635  1.00  0.00    -0.358 N 
HETATM    9  H   UNL     1      42.863 -14.935   5.413  1.00  0.00     0.162 HD
HETATM   10  O   UNL     1      40.008 -16.073   5.760  1.00  0.00    -0.273 OA
BRANCH   8  11
HETATM   11  C   UNL     1      42.558 -16.319   6.930  1.00  0.00     0.159 C 
BRANCH  11  12
HETATM   12  C   UNL     1      43.808 -17.223   7.024  1.00  0.00     0.169 C 
BRANCH  12  13
HETATM   13  C   UNL     1      43.806 -18.400   6.069  1.00  0.00    -0.025 A 
HETATM   14  C   UNL     1      43.989 -18.220   4.685  1.00  0.00     0.046 A 
HETATM   15  C   UNL     1      44.009 -19.318   3.821  1.00  0.00     0.068 A 
HETATM   16  C   UNL     1      43.827 -20.602   4.340  1.00  0.00     0.037 A 
HETATM   17  C   UNL     1      43.636 -20.795   5.707  1.00  0.00     0.003 A 
HETATM   18  C   UNL     1      43.627 -19.699   6.567  1.00  0.00     0.010 A 
BRANCH  15  19
HETATM   19  O   UNL     1      44.194 -19.273   2.466  1.00  0.00    -0.356 OA
HETATM   20  C   UNL     1      43.590 -20.310   1.703  1.00  0.00     0.210 C 
ENDBRANCH  15  19
ENDBRANCH  12  13
BRANCH  12  21
HETATM   21  O   UNL     1      44.972 -16.424   6.758  1.00  0.00    -0.389 OA
HETATM   22  H   UNL     1      45.629 -17.027   6.368  1.00  0.00     0.210 HD
ENDBRANCH  12  21
ENDBRANCH  11  12
ENDBRANCH   8  11
ENDBRANCH   1   7
BRANCH   2  23
HETATM   23  C   UNL     1      42.348 -13.070   4.407  1.00  0.00     0.110 A 
HETATM   24  N   UNL     1      43.496 -13.161   5.047  1.00  0.00    -0.233 NA
HETATM   25  C   UNL     1      43.467 -12.177   6.005  1.00  0.00     0.087 A 
HETATM   26  C   UNL     1      42.273 -11.466   5.946  1.00  0.00     0.062 A 
HETATM   27  C   UNL     1      44.426 -11.836   6.967  1.00  0.00     0.057 A 
HETATM   28  N   UNL     1      41.579 -12.054   4.920  1.00  0.00    -0.342 N 
HETATM   29  C   UNL     1      41.962 -10.411   6.806  1.00  0.00     0.034 A 
HETATM   30  H   UNL     1      40.653 -11.796   4.609  1.00  0.00     0.167 HD
HETATM   31  C   UNL     1      42.930 -10.081   7.762  1.00  0.00     0.026 A 
HETATM   32  C   UNL     1      44.137 -10.781   7.838  1.00  0.00     0.036 A 
HETATM   33 CL   UNL     1      45.295 -10.337   9.035  1.00  0.00    -0.084 Cl
ENDBRANCH   2  23
TORSDOF 7
ENDMDL
MODEL 3
REMARK VINA RESULT:      -8.7      1.657      2.301
REMARK  7 active torsions:
REMARK  status: ('A' for Active; 'I' for Inactive)
REMARK    1  A    between atoms: O_2  and  C_3 
REMARK    2  A    between atoms: C_5  and  C_6 
REMARK    3  A    between atoms: C_6  and  O_7 
REMARK    4  A    between atoms: C_6  and  C_8 
REMARK    5  A    between atoms: C_8  and  N_9 
REMARK       I    between atoms: N_9  and  C_10 
REMARK    6  A    between atoms: C_10  and  C_11 
REMARK    7  A    between atoms: C_12  and  C_13 
ROOT
HETATM    1  C   UNL     1      39.972 -11.602   4.032  1.00  0.00     0.089 C 
HETATM    2  C   UNL     1      41.260 -10.830   3.679  1.00  0.00     0.068 C 
HETATM    3  C   UNL     1      41.955 -11.294   2.386  1.00  0.00     0.013 C 
HETATM    4  C   UNL     1      40.981 -11.442   1.225  1.00  0.00     0.001 C 
HETATM    5  C   UNL     1      39.828 -12.366   1.590  1.00  0.00     0.001 C 
HETATM    6  C   UNL     1      39.074 -11.849   2.809  1.00  0.00     0.015 C 
ENDROOT
BRANCH   1   7
HETATM    7  C   UNL     1      40.104 -12.893   4.850  1.00  0.00     0.222 C 
HETATM    8  N   UNL     1      40.697 -13.964   4.233  1.00  0.00    -0.358 N 
HETATM    9  H   UNL     1      41.478 -13.718   3.633  1.00  0.00     0.162 HD
HETATM   10  O   UNL     1      39.595 -12.967   5.969  1.00  0.00    -0.273 OA
BRANCH   8  11
HETATM   11  C   UNL     1      40.877 -15.240   4.910  1.00  0.00     0.159 C 
BRANCH  11  12
HETATM   12  C   UNL     1      42.319 -15.640   5.294  1.00  0.00     0.169 C 
BRANCH  12  13
HETATM   13  C   UNL     1      42.878 -16.810   4.507  1.00  0.00    -0.025 A 
HETATM   14  C   UNL     1      43.550 -17.868   5.148  1.00  0.00     0.046 A 
HETATM   15  C   UNL     1      44.038 -18.951   4.412  1.00  0.00     0.068 A 
HETATM   16  C   UNL     1      43.869 -18.969   3.026  1.00  0.00     0.037 A 
HETATM   17  C   UNL     1      43.213 -17.925   2.377  1.00  0.00     0.003 A 
HETATM   18  C   UNL     1      42.719 -16.851   3.115  1.00  0.00     0.010 A 
BRANCH  15  19
HETATM   19  O   UNL     1      44.691 -20.041   4.919  1.00  0.00    -0.356 OA
HETATM   20  C   UNL     1      43.922 -21.224   5.096  1.00  0.00     0.210 C 
ENDBRANCH  15  19
ENDBRANCH  12  13
BRANCH  12  21
HETATM   21  O   UNL     1      43.178 -14.505   5.092  1.00  0.00    -0.389 OA
HETATM   22  H   UNL     1      42.773 -13.985   4.375  1.00  0.00     0.210 HD
ENDBRANCH  12  21
ENDBRANCH  11  12
ENDBRANCH   8  11
ENDBRANCH   1   7
BRANCH   2  23
HETATM   23  C   UNL     1      42.224 -10.805   4.827  1.00  0.00     0.110 A 
HETATM   24  N   UNL     1      42.046 -10.193   5.980  1.00  0.00    -0.233 NA
HETATM   25  C   UNL     1      43.205 -10.395   6.690  1.00  0.00     0.087 A 
HETATM   26  C   UNL     1      44.110 -11.151   5.954  1.00  0.00     0.062 A 
HETATM   27  C   UNL     1      43.556  -9.954   7.973  1.00  0.00     0.057 A 
HETATM   28  N   UNL     1      43.461 -11.401   4.772  1.00  0.00    -0.342 N 
HETATM   29  C   UNL     1      45.376 -11.506   6.422  1.00  0.00     0.034 A 
HETATM   30  H   UNL     1      43.837 -11.916   3.989  1.00  0.00     0.167 HD
HETATM   31  C   UNL     1      45.714 -11.059   7.705  1.00  0.00     0.026 A 
HETATM   32  C   UNL     1      44.819 -10.299   8.463  1.00  0.00     0.036 A 
HETATM   33 CL   UNL     1      45.284  -9.771  10.036  1.00  0.00    -0.084 Cl
ENDBRANCH   2  23
TORSDOF 7
ENDMDL
MODEL 4
REMARK VINA RESULT:      -8.6      3.178      7.602
REMARK  7 active torsions:
REMARK  status: ('A' for Active; 'I' for Inactive)
REMARK    1  A    between atoms: O_2  and  C_3 
REMARK    2  A    between atoms: C_5  and  C_6 
REMARK    3  A    between atoms: C_6  and  O_7 
REMARK    4  A    between atoms: C_6  and  C_8 
REMARK    5  A    between atoms: C_8  and  N_9 
REMARK       I    between atoms: N_9  and  C_10 
REMARK    6  A    between atoms: C_10  and  C_11 
REMARK    7  A    between atoms: C_12  and  C_13 
ROOT
HETATM    1  C   UNL     1      40.656 -11.538   3.600  1.00  0.00     0.089 C 
HETATM    2  C   UNL     1      40.014 -12.745   4.315  1.00  0.00     0.068 C 
HETATM    3  C   UNL     1      39.712 -12.524   5.808  1.00  0.00     0.013 C 
HETATM    4  C   UNL     1      39.006 -11.200   6.067  1.00  0.00     0.001 C 
HETATM    5  C   UNL     1      39.796 -10.035   5.489  1.00  0.00     0.001 C 
HETATM    6  C   UNL     1      40.003 -10.202   3.988  1.00  0.00     0.015 C 
ENDROOT
BRANCH   1   7
HETATM    7  C   UNL     1      42.184 -11.403   3.643  1.00  0.00     0.222 C 
HETATM    8  N   UNL     1      42.788 -11.541   4.867  1.00  0.00    -0.358 N 
HETATM    9  H   UNL     1      42.373 -12.256   5.456  1.00  0.00     0.162 HD
HETATM   10  O   UNL     1      42.801 -11.078   2.629  1.00  0.00    -0.273 OA
BRANCH   8  11
HETATM   11  C   UNL     1      44.231 -11.432   5.029  1.00  0.00     0.159 C 
BRANCH  11  12
HETATM   12  C   UNL     1      44.847 -12.050   6.304  1.00  0.00     0.169 C 
BRANCH  12  13
HETATM   13  C   UNL     1      44.932 -11.102   7.485  1.00  0.00    -0.025 A 
HETATM   14  C   UNL     1      43.990 -11.147   8.529  1.00  0.00     0.046 A 
HETATM   15  C   UNL     1      44.096 -10.283   9.622  1.00  0.00     0.068 A 
HETATM   16  C   UNL     1      45.141  -9.357   9.663  1.00  0.00     0.037 A 
HETATM   17  C   UNL     1      46.078  -9.295   8.633  1.00  0.00     0.003 A 
HETATM   18  C   UNL     1      45.974 -10.165   7.550  1.00  0.00     0.010 A 
BRANCH  15  19
HETATM   19  O   UNL     1      43.256 -10.240  10.700  1.00  0.00    -0.356 OA
HETATM   20  C   UNL     1      43.491  -9.213  11.656  1.00  0.00     0.210 C 
ENDBRANCH  15  19
ENDBRANCH  12  13
BRANCH  12  21
HETATM   21  O   UNL     1      44.056 -13.186   6.690  1.00  0.00    -0.389 OA
HETATM   22  H   UNL     1      44.297 -13.381   7.614  1.00  0.00     0.210 HD
ENDBRANCH  12  21
ENDBRANCH  11  12
ENDBRANCH   8  11
ENDBRANCH   1   7
BRANCH   2  23
HETATM   23  C   UNL     1      40.808 -14.000   4.107  1.00  0.00     0.110 A 
HETATM   24  N   UNL     1      41.685 -14.514   4.947  1.00  0.00    -0.233 NA
HETATM   25  C   UNL     1      42.199 -15.620   4.314  1.00  0.00     0.087 A 
HETATM   26  C   UNL     1      41.619 -15.787   3.061  1.00  0.00     0.062 A 
HETATM   27  C   UNL     1      43.171 -16.529   4.751  1.00  0.00     0.057 A 
HETATM   28  N   UNL     1      40.737 -14.743   2.955  1.00  0.00    -0.342 N 
HETATM   29  C   UNL     1      41.953 -16.826   2.191  1.00  0.00     0.034 A 
HETATM   30  H   UNL     1      40.150 -14.545   2.156  1.00  0.00     0.167 HD
HETATM   31  C   UNL     1      42.926 -17.726   2.640  1.00  0.00     0.026 A 
HETATM   32  C   UNL     1      43.522 -17.578   3.895  1.00  0.00     0.036 A 
HETATM   33 CL   UNL     1      44.716 -18.713   4.401  1.00  0.00    -0.084 Cl
ENDBRANCH   2  23
TORSDOF 7
ENDMDL
MODEL 5
REMARK VINA RESULT:      -8.5      2.516      3.164
REMARK  7 active torsions:
REMARK  status: ('A' for Active; 'I' for Inactive)
REMARK    1  A    between atoms: O_2  and  C_3 
REMARK    2  A    between atoms: C_5  and  C_6 
REMARK    3  A    between atoms: C_6  and  O_7 
REMARK    4  A    between atoms: C_6  and  C_8 
REMARK    5  A    between atoms: C_8  and  N_9 
REMARK       I    between atoms: N_9  and  C_10 
REMARK    6  A    between atoms: C_10  and  C_11 
REMARK    7  A    between atoms: C_12  and  C_13 
ROOT
HETATM    1  C   UNL     1      40.795 -11.597   4.963  1.00  0.00     0.089 C 
HETATM    2  C   UNL     1      42.020 -10.660   4.929  1.00  0.00     0.068 C 
HETATM    3  C   UNL     1      43.138 -11.096   3.964  1.00  0.00     0.013 C 
HETATM    4  C   UNL     1      42.603 -11.470   2.589  1.00  0.00     0.001 C 
HETATM    5  C   UNL     1      41.521 -12.535   2.691  1.00  0.00     0.001 C 
HETATM    6  C   UNL     1      40.364 -12.061   3.563  1.00  0.00     0.015 C 
ENDROOT
BRANCH   1   7
HETATM    7  C   UNL     1      40.827 -12.794   5.922  1.00  0.00     0.222 C 
HETATM    8  N   UNL     1      41.956 -13.573   5.909  1.00  0.00    -0.358 N 
HETATM    9  H   UNL     1      42.819 -13.051   5.796  1.00  0.00     0.162 HD
HETATM   10  O   UNL     1      39.828 -13.081   6.582  1.00  0.00    -0.273 OA
BRANCH   8  11
HETATM   11  C   UNL     1      42.099 -14.735   6.774  1.00  0.00     0.159 C 
BRANCH  11  12
HETATM   12  C   UNL     1      41.761 -16.115   6.167  1.00  0.00     0.169 C 
BRANCH  12  13
HETATM   13  C   UNL     1      41.867 -16.180   4.656  1.00  0.00    -0.025 A 
HETATM   14  C   UNL     1      40.729 -16.063   3.837  1.00  0.00     0.046 A 
HETATM   15  C   UNL     1      40.846 -16.102   2.445  1.00  0.00     0.068 A 
HETATM   16  C   UNL     1      42.107 -16.275   1.869  1.00  0.00     0.037 A 
HETATM   17  C   UNL     1      43.242 -16.400   2.667  1.00  0.00     0.003 A 
HETATM   18  C   UNL     1      43.122 -16.351   4.055  1.00  0.00     0.010 A 
BRANCH  15  19
HETATM   19  O   UNL     1      39.822 -15.984   1.546  1.00  0.00    -0.356 OA
HETATM   20  C   UNL     1      40.015 -15.075   0.470  1.00  0.00     0.210 C 
ENDBRANCH  15  19
ENDBRANCH  12  13
BRANCH  12  21
HETATM   21  O   UNL     1      42.651 -17.092   6.729  1.00  0.00    -0.389 OA
HETATM   22  H   UNL     1      42.128 -17.588   7.384  1.00  0.00     0.210 HD
ENDBRANCH  12  21
ENDBRANCH  11  12
ENDBRANCH   8  11
ENDBRANCH   1   7
BRANCH   2  23
HETATM   23  C   UNL     1      42.565 -10.409   6.304  1.00  0.00     0.110 A 
HETATM   24  N   UNL     1      41.946  -9.784   7.285  1.00  0.00    -0.233 NA
HETATM   25  C   UNL     1      42.844  -9.742   8.323  1.00  0.00     0.087 A 
HETATM   26  C   UNL     1      44.038 -10.361   7.969  1.00  0.00     0.062 A 
HETATM   27  C   UNL     1      42.708  -9.186   9.602  1.00  0.00     0.057 A 
HETATM   28  N   UNL     1      43.833 -10.778   6.679  1.00  0.00    -0.342 N 
HETATM   29  C   UNL     1      45.135 -10.463   8.826  1.00  0.00     0.034 A 
HETATM   30  H   UNL     1      44.509 -11.256   6.099  1.00  0.00     0.167 HD
HETATM   31  C   UNL     1      44.986  -9.902  10.099  1.00  0.00     0.026 A 
HETATM   32  C   UNL     1      43.794  -9.276  10.477  1.00  0.00     0.036 A 
HETATM   33 CL   UNL     1      43.661  -8.600  12.057  1.00  0.00    -0.084 Cl
ENDBRANCH   2  23
TORSDOF 7
ENDMDL
MODEL 6
REMARK VINA RESULT:      -8.5      3.749      8.039
REMARK  7 active torsions:
REMARK  status: ('A' for Active; 'I' for Inactive)
REMARK    1  A    between atoms: O_2  and  C_3 
REMARK    2  A    between atoms: C_5  and  C_6 
REMARK    3  A    between atoms: C_6  and  O_7 
REMARK    4  A    between atoms: C_6  and  C_8 
REMARK    5  A    between atoms: C_8  and  N_9 
REMARK       I    between atoms: N_9  and  C_10 
REMARK    6  A    between atoms: C_10  and  C_11 
REMARK    7  A    between atoms: C_12  and  C_13 
ROOT
HETATM    1  C   UNL     1      41.091 -15.805   3.541  1.00  0.00     0.089 C 
HETATM    2  C   UNL     1      41.435 -16.063   2.059  1.00  0.00     0.068 C 
HETATM    3  C   UNL     1      42.902 -16.447   1.795  1.00  0.00     0.013 C 
HETATM    4  C   UNL     1      43.399 -17.527   2.746  1.00  0.00     0.001 C 
HETATM    5  C   UNL     1      43.191 -17.120   4.198  1.00  0.00     0.001 C 
HETATM    6  C   UNL     1      41.720 -16.842   4.485  1.00  0.00     0.015 C 
ENDROOT
BRANCH   1   7
HETATM    7  C   UNL     1      41.311 -14.392   4.097  1.00  0.00     0.222 C 
HETATM    8  N   UNL     1      42.608 -13.989   4.281  1.00  0.00    -0.358 N 
HETATM    9  H   UNL     1      43.246 -14.301   3.556  1.00  0.00     0.162 HD
HETATM   10  O   UNL     1      40.346 -13.716   4.456  1.00  0.00    -0.273 OA
BRANCH   8  11
HETATM   11  C   UNL     1      42.938 -12.671   4.803  1.00  0.00     0.159 C 
BRANCH  11  12
HETATM   12  C   UNL     1      42.823 -12.466   6.330  1.00  0.00     0.169 C 
BRANCH  12  13
HETATM   13  C   UNL     1      43.979 -11.707   6.952  1.00  0.00    -0.025 A 
HETATM   14  C   UNL     1      43.864 -11.108   8.220  1.00  0.00     0.046 A 
HETATM   15  C   UNL     1      44.946 -10.433   8.790  1.00  0.00     0.068 A 
HETATM   16  C   UNL     1      46.146 -10.340   8.080  1.00  0.00     0.037 A 
HETATM   17  C   UNL     1      46.273 -10.921   6.820  1.00  0.00     0.003 A 
HETATM   18  C   UNL     1      45.195 -11.602   6.260  1.00  0.00     0.010 A 
BRANCH  15  19
HETATM   19  O   UNL     1      44.962  -9.826  10.016  1.00  0.00    -0.356 OA
HETATM   20  C   UNL     1      43.882 -10.123  10.892  1.00  0.00     0.210 C 
ENDBRANCH  15  19
ENDBRANCH  12  13
BRANCH  12  21
HETATM   21  O   UNL     1      41.608 -11.751   6.606  1.00  0.00    -0.389 OA
HETATM   22  H   UNL     1      40.925 -12.428   6.759  1.00  0.00     0.210 HD
ENDBRANCH  12  21
ENDBRANCH  11  12
ENDBRANCH   8  11
ENDBRANCH   1   7
BRANCH   2  23
HETATM   23  C   UNL     1      41.013 -14.920   1.184  1.00  0.00     0.110 A 
HETATM   24  N   UNL     1      41.617 -13.753   1.084  1.00  0.00    -0.233 NA
HETATM   25  C   UNL     1      40.849 -13.012   0.218  1.00  0.00     0.087 A 
HETATM   26  C   UNL     1      39.754 -13.746  -0.223  1.00  0.00     0.062 A 
HETATM   27  C   UNL     1      41.027 -11.698  -0.234  1.00  0.00     0.057 A 
HETATM   28  N   UNL     1      39.883 -14.958   0.406  1.00  0.00    -0.342 N 
HETATM   29  C   UNL     1      38.797 -13.245  -1.107  1.00  0.00     0.034 A 
HETATM   30  H   UNL     1      39.243 -15.736   0.325  1.00  0.00     0.167 HD
HETATM   31  C   UNL     1      38.986 -11.931  -1.550  1.00  0.00     0.026 A 
HETATM   32  C   UNL     1      40.080 -11.175  -1.120  1.00  0.00     0.036 A 
HETATM   33 CL   UNL     1      40.267  -9.561  -1.695  1.00  0.00    -0.084 Cl
ENDBRANCH   2  23
TORSDOF 7
ENDMDL
MODEL 7
REMARK VINA RESULT:      -8.4      3.132      5.003
REMARK  7 active torsions:
REMARK  status: ('A' for Active; 'I' for Inactive)
REMARK    1  A    between atoms: O_2  and  C_3 
REMARK    2  A    between atoms: C_5  and  C_6 
REMARK    3  A    between atoms: C_6  and  O_7 
REMARK    4  A    between atoms: C_6  and  C_8 
REMARK    5  A    between atoms: C_8  and  N_9 
REMARK       I    between atoms: N_9  and  C_10 
REMARK    6  A    between atoms: C_10  and  C_11 
REMARK    7  A    between atoms: C_12  and  C_13 
ROOT
HETATM    1  C   UNL     1      39.526 -11.425  -0.728  1.00  0.00     0.089 C 
HETATM    2  C   UNL     1      40.273 -10.230  -0.099  1.00  0.00     0.068 C 
HETATM    3  C   UNL     1      41.340  -9.588  -1.004  1.00  0.00     0.013 C 
HETATM    4  C   UNL     1      40.824  -9.328  -2.413  1.00  0.00     0.001 C 
HETATM    5  C   UNL     1      40.267 -10.598  -3.038  1.00  0.00     0.001 C 
HETATM    6  C   UNL     1      39.137 -11.176  -2.194  1.00  0.00     0.015 C 
ENDROOT
BRANCH   1   7
HETATM    7  C   UNL     1      40.146 -12.821  -0.583  1.00  0.00     0.222 C 
HETATM    8  N   UNL     1      39.534 -13.687   0.286  1.00  0.00    -0.358 N 
HETATM    9  H   UNL     1      38.520 -13.633   0.282  1.00  0.00     0.162 HD
HETATM   10  O   UNL     1      41.206 -13.085  -1.151  1.00  0.00    -0.273 OA
BRANCH   8  11
HETATM   11  C   UNL     1      40.032 -15.038   0.505  1.00  0.00     0.159 C 
BRANCH  11  12
HETATM   12  C   UNL     1      39.822 -15.650   1.908  1.00  0.00     0.169 C 
BRANCH  12  13
HETATM   13  C   UNL     1      41.102 -15.951   2.662  1.00  0.00    -0.025 A 
HETATM   14  C   UNL     1      41.908 -17.055   2.325  1.00  0.00     0.046 A 
HETATM   15  C   UNL     1      43.097 -17.305   3.014  1.00  0.00     0.068 A 
HETATM   16  C   UNL     1      43.476 -16.456   4.057  1.00  0.00     0.037 A 
HETATM   17  C   UNL     1      42.685 -15.363   4.407  1.00  0.00     0.003 A 
HETATM   18  C   UNL     1      41.505 -15.112   3.711  1.00  0.00     0.010 A 
BRANCH  15  19
HETATM   19  O   UNL     1      43.969 -18.331   2.771  1.00  0.00    -0.356 OA
HETATM   20  C   UNL     1      43.403 -19.566   2.350  1.00  0.00     0.210 C 
ENDBRANCH  15  19
ENDBRANCH  12  13
BRANCH  12  21
HETATM   21  O   UNL     1      39.036 -14.738   2.692  1.00  0.00    -0.389 OA
HETATM   22  H   UNL     1      38.480 -15.290   3.271  1.00  0.00     0.210 HD
ENDBRANCH  12  21
ENDBRANCH  11  12
ENDBRANCH   8  11
ENDBRANCH   1   7
BRANCH   2  23
HETATM   23  C   UNL     1      40.846 -10.578   1.242  1.00  0.00     0.110 A 
HETATM   24  N   UNL     1      42.125 -10.701   1.535  1.00  0.00    -0.233 NA
HETATM   25  C   UNL     1      42.169 -11.083   2.854  1.00  0.00     0.087 A 
HETATM   26  C   UNL     1      40.887 -11.192   3.379  1.00  0.00     0.062 A 
HETATM   27  C   UNL     1      43.275 -11.360   3.668  1.00  0.00     0.057 A 
HETATM   28  N   UNL     1      40.063 -10.864   2.333  1.00  0.00    -0.342 N 
HETATM   29  C   UNL     1      40.625 -11.571   4.697  1.00  0.00     0.034 A 
HETATM   30  H   UNL     1      39.053 -10.856   2.357  1.00  0.00     0.167 HD
HETATM   31  C   UNL     1      41.738 -11.845   5.500  1.00  0.00     0.026 A 
HETATM   32  C   UNL     1      43.036 -11.740   4.992  1.00  0.00     0.036 A 
HETATM   33 CL   UNL     1      44.374 -12.090   6.021  1.00  0.00    -0.084 Cl
ENDBRANCH   2  23
TORSDOF 7
ENDMDL
MODEL 8
REMARK VINA RESULT:      -8.3      3.881      7.378
REMARK  7 active torsions:
REMARK  status: ('A' for Active; 'I' for Inactive)
REMARK    1  A    between atoms: O_2  and  C_3 
REMARK    2  A    between atoms: C_5  and  C_6 
REMARK    3  A    between atoms: C_6  and  O_7 
REMARK    4  A    between atoms: C_6  and  C_8 
REMARK    5  A    between atoms: C_8  and  N_9 
REMARK       I    between atoms: N_9  and  C_10 
REMARK    6  A    between atoms: C_10  and  C_11 
REMARK    7  A    between atoms: C_12  and  C_13 
ROOT
HETATM    1  C   UNL     1      43.588 -10.464   8.448  1.00  0.00     0.089 C 
HETATM    2  C   UNL     1      44.584 -11.482   7.855  1.00  0.00     0.068 C 
HETATM    3  C   UNL     1      45.754 -10.859   7.073  1.00  0.00     0.013 C 
HETATM    4  C   UNL     1      46.412  -9.714   7.829  1.00  0.00     0.001 C 
HETATM    5  C   UNL     1      45.391  -8.656   8.223  1.00  0.00     0.001 C 
HETATM    6  C   UNL     1      44.288  -9.254   9.088  1.00  0.00     0.015 C 
ENDROOT
BRANCH   1   7
HETATM    7  C   UNL     1      42.429  -9.988   7.563  1.00  0.00     0.222 C 
HETATM    8  N   UNL     1      41.159 -10.177   8.044  1.00  0.00    -0.358 N 
HETATM    9  H   UNL     1      41.066 -10.025   9.043  1.00  0.00     0.162 HD
HETATM   10  O   UNL     1      42.656  -9.559   6.431  1.00  0.00    -0.273 OA
BRANCH   8  11
HETATM   11  C   UNL     1      39.982  -9.766   7.292  1.00  0.00     0.159 C 
BRANCH  11  12
HETATM   12  C   UNL     1      39.076 -10.884   6.730  1.00  0.00     0.169 C 
BRANCH  12  13
HETATM   13  C   UNL     1      39.012 -10.941   5.216  1.00  0.00    -0.025 A 
HETATM   14  C   UNL     1      39.364 -12.107   4.512  1.00  0.00     0.046 A 
HETATM   15  C   UNL     1      39.277 -12.151   3.118  1.00  0.00     0.068 A 
HETATM   16  C   UNL     1      38.851 -11.017   2.423  1.00  0.00     0.037 A 
HETATM   17  C   UNL     1      38.506  -9.853   3.105  1.00  0.00     0.003 A 
HETATM   18  C   UNL     1      38.585  -9.815   4.496  1.00  0.00     0.010 A 
BRANCH  15  19
HETATM   19  O   UNL     1      39.574 -13.226   2.326  1.00  0.00    -0.356 OA
HETATM   20  C   UNL     1      39.836 -12.957   0.954  1.00  0.00     0.210 C 
ENDBRANCH  15  19
ENDBRANCH  12  13
BRANCH  12  21
HETATM   21  O   UNL     1      39.557 -12.149   7.213  1.00  0.00    -0.389 OA
HETATM   22  H   UNL     1      38.878 -12.805   6.974  1.00  0.00     0.210 HD
ENDBRANCH  12  21
ENDBRANCH  11  12
ENDBRANCH   8  11
ENDBRANCH   1   7
BRANCH   2  23
HETATM   23  C   UNL     1      43.887 -12.528   7.037  1.00  0.00     0.110 A 
HETATM   24  N   UNL     1      43.863 -12.599   5.721  1.00  0.00    -0.233 NA
HETATM   25  C   UNL     1      43.063 -13.675   5.422  1.00  0.00     0.087 A 
HETATM   26  C   UNL     1      42.591 -14.277   6.583  1.00  0.00     0.062 A 
HETATM   27  C   UNL     1      42.691 -14.194   4.175  1.00  0.00     0.057 A 
HETATM   28  N   UNL     1      43.131 -13.528   7.597  1.00  0.00    -0.342 N 
HETATM   29  C   UNL     1      41.750 -15.391   6.585  1.00  0.00     0.034 A 
HETATM   30  H   UNL     1      42.981 -13.676   8.585  1.00  0.00     0.167 HD
HETATM   31  C   UNL     1      41.386 -15.899   5.333  1.00  0.00     0.026 A 
HETATM   32  C   UNL     1      41.849 -15.310   4.153  1.00  0.00     0.036 A 
HETATM   33 CL   UNL     1      41.371 -15.973   2.636  1.00  0.00    -0.084 Cl
ENDBRANCH   2  23
TORSDOF 7
ENDMDL
MODEL 9
REMARK VINA RESULT:      -8.2      4.328      7.515
REMARK  7 active torsions:
REMARK  status: ('A' for Active; 'I' for Inactive)
REMARK    1  A    between atoms: O_2  and  C_3 
REMARK    2  A    between atoms: C_5  and  C_6 
REMARK    3  A    between atoms: C_6  and  O_7 
REMARK    4  A    between atoms: C_6  and  C_8 
REMARK    5  A    between atoms: C_8  and  N_9 
REMARK       I    between atoms: N_9  and  C_10 
REMARK    6  A    between atoms: C_10  and  C_11 
REMARK    7  A    between atoms: C_12  and  C_13 
ROOT
HETATM    1  C   UNL     1      40.024 -12.714  -1.536  1.00  0.00     0.089 C 
HETATM    2  C   UNL     1      40.163 -14.239  -1.343  1.00  0.00     0.068 C 
HETATM    3  C   UNL     1      38.915 -15.054  -1.727  1.00  0.00     0.013 C 
HETATM    4  C   UNL     1      38.352 -14.647  -3.082  1.00  0.00     0.001 C 
HETATM    5  C   UNL     1      38.068 -13.153  -3.133  1.00  0.00     0.001 C 
HETATM    6  C   UNL     1      39.331 -12.345  -2.857  1.00  0.00     0.015 C 
ENDROOT
BRANCH   1   7
HETATM    7  C   UNL     1      39.427 -11.892  -0.386  1.00  0.00     0.222 C 
HETATM    8  N   UNL     1      40.284 -11.077   0.307  1.00  0.00    -0.358 N 
HETATM    9  H   UNL     1      40.981 -10.619  -0.272  1.00  0.00     0.162 HD
HETATM   10  O   UNL     1      38.253 -12.060  -0.055  1.00  0.00    -0.273 OA
BRANCH   8  11
HETATM   11  C   UNL     1      39.831 -10.250   1.417  1.00  0.00     0.159 C 
BRANCH  11  12
HETATM   12  C   UNL     1      40.872  -9.889   2.500  1.00  0.00     0.169 C 
BRANCH  12  13
HETATM   13  C   UNL     1      40.869 -10.808   3.707  1.00  0.00    -0.025 A 
HETATM   14  C   UNL     1      41.898 -10.759   4.666  1.00  0.00     0.046 A 
HETATM   15  C   UNL     1      41.868 -11.595   5.785  1.00  0.00     0.068 A 
HETATM   16  C   UNL     1      40.813 -12.498   5.937  1.00  0.00     0.037 A 
HETATM   17  C   UNL     1      39.792 -12.564   4.992  1.00  0.00     0.003 A 
HETATM   18  C   UNL     1      39.820 -11.722   3.882  1.00  0.00     0.010 A 
BRANCH  15  19
HETATM   19  O   UNL     1      42.795 -11.630   6.790  1.00  0.00    -0.356 OA
HETATM   20  C   UNL     1      43.753 -12.681   6.742  1.00  0.00     0.210 C 
ENDBRANCH  15  19
ENDBRANCH  12  13
BRANCH  12  21
HETATM   21  O   UNL     1      42.180  -9.922   1.907  1.00  0.00    -0.389 OA
HETATM   22  H   UNL     1      42.274  -9.088   1.414  1.00  0.00     0.210 HD
ENDBRANCH  12  21
ENDBRANCH  11  12
ENDBRANCH   8  11
ENDBRANCH   1   7
BRANCH   2  23
HETATM   23  C   UNL     1      40.624 -14.583   0.042  1.00  0.00     0.110 A 
HETATM   24  N   UNL     1      39.959 -15.295   0.930  1.00  0.00    -0.233 NA
HETATM   25  C   UNL     1      40.738 -15.298   2.062  1.00  0.00     0.087 A 
HETATM   26  C   UNL     1      41.908 -14.574   1.858  1.00  0.00     0.062 A 
HETATM   27  C   UNL     1      40.504 -15.897   3.306  1.00  0.00     0.057 A 
HETATM   28  N   UNL     1      41.811 -14.131   0.564  1.00  0.00    -0.342 N 
HETATM   29  C   UNL     1      42.886 -14.402   2.839  1.00  0.00     0.034 A 
HETATM   30  H   UNL     1      42.488 -13.553   0.086  1.00  0.00     0.167 HD
HETATM   31  C   UNL     1      42.640 -15.006   4.077  1.00  0.00     0.026 A 
HETATM   32  C   UNL     1      41.471 -15.738   4.303  1.00  0.00     0.036 A 
HETATM   33 CL   UNL     1      41.215 -16.461   5.847  1.00  0.00    -0.084 Cl
ENDBRANCH   2  23
TORSDOF 7
ENDMDL
MODEL 10
REMARK VINA RESULT:      -8.2      2.427      4.066
REMARK  7 active torsions:
REMARK  status: ('A' for Active; 'I' for Inactive)
REMARK    1  A    between atoms: O_2  and  C_3 
REMARK    2  A    between atoms: C_5  and  C_6 
REMARK    3  A    between atoms: C_6  and  O_7 
REMARK    4  A    between atoms: C_6  and  C_8 
REMARK    5  A    between atoms: C_8  and  N_9 
REMARK       I    between atoms: N_9  and  C_10 
REMARK    6  A    between atoms: C_10  and  C_11 
REMARK    7  A    between atoms: C_12  and  C_13 
ROOT
HETATM    1  C   UNL     1      39.480 -12.030   1.009  1.00  0.00     0.089 C 
HETATM    2  C   UNL     1      40.481 -10.855   1.011  1.00  0.00     0.068 C 
HETATM    3  C   UNL     1      41.359 -10.754  -0.249  1.00  0.00     0.013 C 
HETATM    4  C   UNL     1      40.549 -10.878  -1.532  1.00  0.00     0.001 C 
HETATM    5  C   UNL     1      39.724 -12.157  -1.540  1.00  0.00     0.001 C 
HETATM    6  C   UNL     1      38.777 -12.207  -0.346  1.00  0.00     0.015 C 
ENDROOT
BRANCH   1   7
HETATM    7  C   UNL     1      39.963 -13.391   1.528  1.00  0.00     0.222 C 
HETATM    8  N   UNL     1      41.067 -13.933   0.921  1.00  0.00    -0.358 N 
HETATM    9  H   UNL     1      41.781 -13.255   0.676  1.00  0.00     0.162 HD
HETATM   10  O   UNL     1      39.305 -13.994   2.376  1.00  0.00    -0.273 OA
BRANCH   8  11
HETATM   11  C   UNL     1      41.615 -15.219   1.329  1.00  0.00     0.159 C 
BRANCH  11  12
HETATM   12  C   UNL     1      42.937 -15.203   2.128  1.00  0.00     0.169 C 
BRANCH  12  13
HETATM   13  C   UNL     1      43.240 -16.491   2.869  1.00  0.00    -0.025 A 
HETATM   14  C   UNL     1      43.358 -16.518   4.271  1.00  0.00     0.046 A 
HETATM   15  C   UNL     1      43.614 -17.717   4.941  1.00  0.00     0.068 A 
HETATM   16  C   UNL     1      43.770 -18.893   4.203  1.00  0.00     0.037 A 
HETATM   17  C   UNL     1      43.664 -18.881   2.814  1.00  0.00     0.003 A 
HETATM   18  C   UNL     1      43.399 -17.685   2.150  1.00  0.00     0.010 A 
BRANCH  15  19
HETATM   19  O   UNL     1      43.734 -17.874   6.294  1.00  0.00    -0.356 OA
HETATM   20  C   UNL     1      44.102 -16.723   7.043  1.00  0.00     0.210 C 
ENDBRANCH  15  19
ENDBRANCH  12  13
BRANCH  12  21
HETATM   21  O   UNL     1      44.017 -14.935   1.220  1.00  0.00    -0.389 OA
HETATM   22  H   UNL     1      44.798 -14.759   1.774  1.00  0.00     0.210 HD
ENDBRANCH  12  21
ENDBRANCH  11  12
ENDBRANCH   8  11
ENDBRANCH   1   7
BRANCH   2  23
HETATM   23  C   UNL     1      41.320 -10.845   2.254  1.00  0.00     0.110 A 
HETATM   24  N   UNL     1      42.550 -11.305   2.367  1.00  0.00    -0.233 NA
HETATM   25  C   UNL     1      42.889 -11.138   3.688  1.00  0.00     0.087 A 
HETATM   26  C   UNL     1      41.842 -10.558   4.396  1.00  0.00     0.062 A 
HETATM   27  C   UNL     1      44.076 -11.465   4.354  1.00  0.00     0.057 A 
HETATM   28  N   UNL     1      40.856 -10.381   3.460  1.00  0.00    -0.342 N 
HETATM   29  C   UNL     1      41.901 -10.277   5.762  1.00  0.00     0.034 A 
HETATM   30  H   UNL     1      39.939  -9.994   3.634  1.00  0.00     0.167 HD
HETATM   31  C   UNL     1      43.093 -10.609   6.416  1.00  0.00     0.026 A 
HETATM   32  C   UNL     1      44.158 -11.191   5.723  1.00  0.00     0.036 A 
HETATM   33 CL   UNL     1      45.604 -11.582   6.575  1.00  0.00    -0.084 Cl
ENDBRANCH   2  23
TORSDOF 7
ENDMDL
