MODEL 1
REMARK VINA RESULT:      -9.6      0.000      0.000
REMARK  6 active torsions:
REMARK  status: ('A' for Active; 'I' for Inactive)
REMARK    1  A    between atoms: C_3  and  C_4 
REMARK    2  A    between atoms: C_4  and  C_5 
REMARK    3  A    between atoms: N_8  and  C_10 
REMARK    4  A    between atoms: C_10  and  C_11 
REMARK    5  A    between atoms: N_24  and  C_25 
REMARK    6  A    between atoms: C_25  and  C_26 
ROOT
HETATM    1  C   UNL     1      42.227 -15.395   4.229  1.00  0.00     0.164 C 
HETATM    2  N   UNL     1      43.088 -14.358   3.692  1.00  0.00    -0.319 N 
HETATM    3  C   UNL     1      42.459 -13.559   2.766  1.00  0.00     0.326 C 
HETATM    4  O   UNL     1      42.925 -12.517   2.344  1.00  0.00    -0.247 OA
HETATM    5  N   UNL     1      41.231 -14.089   2.513  1.00  0.00    -0.265 N 
HETATM    6  C   UNL     1      41.038 -15.210   3.267  1.00  0.00     0.263 C 
HETATM    7  O   UNL     1      40.027 -15.902   3.238  1.00  0.00    -0.270 OA
HETATM    8  H   UNL     1      44.034 -14.165   4.004  1.00  0.00     0.166 HD
ENDROOT
BRANCH   1   9
HETATM    9  C   UNL     1      42.895 -16.765   4.089  1.00  0.00     0.072 A 
HETATM   10  C   UNL     1      43.196 -17.323   2.844  1.00  0.00     0.030 A 
HETATM   11  C   UNL     1      43.825 -18.566   2.787  1.00  0.00     0.003 A 
HETATM   12  C   UNL     1      44.163 -19.219   3.964  1.00  0.00     0.019 A 
HETATM   13  C   UNL     1      43.862 -18.595   5.159  1.00  0.00     0.117 A 
HETATM   14  N   UNL     1      43.244 -17.394   5.244  1.00  0.00    -0.262 NA
ENDBRANCH   1   9
BRANCH   1  15
HETATM   15  C   UNL     1      41.852 -15.036   5.727  1.00  0.00     0.033 C 
HETATM   16  C   UNL     1      40.828 -13.898   5.909  1.00  0.00     0.036 C 
HETATM   17  C   UNL     1      41.389 -12.482   5.935  1.00  0.00     0.235 C 
HETATM   18  N   UNL     1      42.582 -12.366   6.851  1.00  0.00    -0.067 N 
HETATM   19  H   UNL     1      42.233 -12.449   7.817  1.00  0.00     0.280 HD
HETATM   20  C   UNL     1      43.629 -13.426   6.654  1.00  0.00     0.235 C 
HETATM   21  C   UNL     1      43.017 -14.811   6.710  1.00  0.00     0.036 C 
BRANCH  18  22
HETATM   22  C   UNL     1      43.241 -10.991   6.754  1.00  0.00     0.278 C 
BRANCH  22  23
HETATM   23  C   UNL     1      43.600 -10.342   8.055  1.00  0.00     0.028 A 
HETATM   24  C   UNL     1      42.696  -9.579   8.805  1.00  0.00     0.045 A 
HETATM   25 CL   UNL     1      41.093  -9.288   8.234  1.00  0.00    -0.084 Cl
HETATM   26  C   UNL     1      43.080  -9.019  10.028  1.00  0.00     0.024 A 
HETATM   27  C   UNL     1      44.373  -9.218  10.517  1.00  0.00     0.005 A 
HETATM   28  C   UNL     1      45.281  -9.971   9.781  1.00  0.00     0.043 A 
HETATM   29  C   UNL     1      44.889 -10.524   8.568  1.00  0.00     0.126 A 
HETATM   30  F   UNL     1      45.778 -11.242   7.868  1.00  0.00    -0.205 F 
ENDBRANCH  22  23
ENDBRANCH  18  22
ENDBRANCH   1  15
BRANCH   5  31
HETATM   31  C   UNL     1      40.268 -13.557   1.560  1.00  0.00     0.168 C 
BRANCH  31  32
HETATM   32  C   UNL     1      40.697 -13.790   0.101  1.00  0.00     0.140 C 
HETATM   33  O   UNL     1      41.047 -12.532  -0.493  1.00  0.00    -0.384 OA
HETATM   34  C   UNL     1      39.896 -12.007  -1.177  1.00  0.00     0.168 C 
HETATM   35  C   UNL     1      38.805 -13.060  -1.113  1.00  0.00     0.029 C 
HETATM   36  C   UNL     1      39.566 -14.316  -0.766  1.00  0.00     0.036 C 
ENDBRANCH  31  32
ENDBRANCH   5  31
TORSDOF 6
ENDMDL
MODEL 2
REMARK VINA RESULT:      -9.5      1.244      1.487
REMARK  6 active torsions:
REMARK  status: ('A' for Active; 'I' for Inactive)
REMARK    1  A    between atoms: C_3  and  C_4 
REMARK    2  A    between atoms: C_4  and  C_5 
REMARK    3  A    between atoms: N_8  and  C_10 
REMARK    4  A    between atoms: C_10  and  C_11 
REMARK    5  A    between atoms: N_24  and  C_25 
REMARK    6  A    between atoms: C_25  and  C_26 
ROOT
HETATM    1  C   UNL     1      42.207 -15.250   4.312  1.00  0.00     0.164 C 
HETATM    2  N   UNL     1      43.071 -14.210   3.782  1.00  0.00    -0.319 N 
HETATM    3  C   UNL     1      42.458 -13.433   2.827  1.00  0.00     0.326 C 
HETATM    4  O   UNL     1      42.922 -12.392   2.402  1.00  0.00    -0.247 OA
HETATM    5  N   UNL     1      41.243 -13.981   2.550  1.00  0.00    -0.265 N 
HETATM    6  C   UNL     1      41.043 -15.093   3.315  1.00  0.00     0.263 C 
HETATM    7  O   UNL     1      40.041 -15.797   3.270  1.00  0.00    -0.270 OA
HETATM    8  H   UNL     1      44.005 -14.002   4.116  1.00  0.00     0.166 HD
ENDROOT
BRANCH   1   9
HETATM    9  C   UNL     1      42.894 -16.613   4.211  1.00  0.00     0.072 A 
HETATM   10  C   UNL     1      43.273 -17.168   2.985  1.00  0.00     0.030 A 
HETATM   11  C   UNL     1      43.915 -18.406   2.965  1.00  0.00     0.003 A 
HETATM   12  C   UNL     1      44.189 -19.056   4.159  1.00  0.00     0.019 A 
HETATM   13  C   UNL     1      43.814 -18.435   5.334  1.00  0.00     0.117 A 
HETATM   14  N   UNL     1      43.181 -17.240   5.384  1.00  0.00    -0.262 NA
ENDBRANCH   1   9
BRANCH   1  15
HETATM   15  C   UNL     1      41.787 -14.873   5.793  1.00  0.00     0.033 C 
HETATM   16  C   UNL     1      40.740 -13.750   5.930  1.00  0.00     0.036 C 
HETATM   17  C   UNL     1      41.276 -12.324   5.946  1.00  0.00     0.235 C 
HETATM   18  N   UNL     1      42.444 -12.172   6.890  1.00  0.00    -0.067 N 
HETATM   19  H   UNL     1      42.071 -12.245   7.848  1.00  0.00     0.280 HD
HETATM   20  C   UNL     1      43.513 -13.217   6.737  1.00  0.00     0.235 C 
HETATM   21  C   UNL     1      42.923 -14.611   6.802  1.00  0.00     0.036 C 
BRANCH  18  22
HETATM   22  C   UNL     1      43.081 -10.787   6.786  1.00  0.00     0.278 C 
BRANCH  22  23
HETATM   23  C   UNL     1      43.622 -10.217   8.061  1.00  0.00     0.028 A 
HETATM   24  C   UNL     1      44.985 -10.208   8.380  1.00  0.00     0.045 A 
HETATM   25 CL   UNL     1      46.147 -10.922   7.321  1.00  0.00    -0.084 Cl
HETATM   26  C   UNL     1      45.434  -9.637   9.574  1.00  0.00     0.024 A 
HETATM   27  C   UNL     1      44.524  -9.064  10.465  1.00  0.00     0.005 A 
HETATM   28  C   UNL     1      43.167  -9.067  10.163  1.00  0.00     0.043 A 
HETATM   29  C   UNL     1      42.731  -9.637   8.972  1.00  0.00     0.126 A 
HETATM   30  F   UNL     1      41.419  -9.637   8.698  1.00  0.00    -0.205 F 
ENDBRANCH  22  23
ENDBRANCH  18  22
ENDBRANCH   1  15
BRANCH   5  31
HETATM   31  C   UNL     1      40.299 -13.476   1.562  1.00  0.00     0.168 C 
BRANCH  31  32
HETATM   32  C   UNL     1      40.757 -13.750   0.120  1.00  0.00     0.140 C 
HETATM   33  O   UNL     1      41.052 -12.502  -0.525  1.00  0.00    -0.384 OA
HETATM   34  C   UNL     1      39.884 -12.066  -1.243  1.00  0.00     0.168 C 
HETATM   35  C   UNL     1      38.847 -13.169  -1.144  1.00  0.00     0.029 C 
HETATM   36  C   UNL     1      39.664 -14.369  -0.735  1.00  0.00     0.036 C 
ENDBRANCH  31  32
ENDBRANCH   5  31
TORSDOF 6
ENDMDL
MODEL 3
REMARK VINA RESULT:      -9.5      3.122      7.833
REMARK  6 active torsions:
REMARK  status: ('A' for Active; 'I' for Inactive)
REMARK    1  A    between atoms: C_3  and  C_4 
REMARK    2  A    between atoms: C_4  and  C_5 
REMARK    3  A    between atoms: N_8  and  C_10 
REMARK    4  A    between atoms: C_10  and  C_11 
REMARK    5  A    between atoms: N_24  and  C_25 
REMARK    6  A    between atoms: C_25  and  C_26 
ROOT
HETATM    1  C   UNL     1      40.425 -12.648   2.754  1.00  0.00     0.164 C 
HETATM    2  N   UNL     1      41.778 -12.715   2.231  1.00  0.00    -0.319 N 
HETATM    3  C   UNL     1      42.699 -12.083   3.032  1.00  0.00     0.326 C 
HETATM    4  O   UNL     1      43.903 -12.188   2.892  1.00  0.00    -0.247 OA
HETATM    5  N   UNL     1      42.027 -11.437   4.024  1.00  0.00    -0.265 N 
HETATM    6  C   UNL     1      40.684 -11.647   3.896  1.00  0.00     0.263 C 
HETATM    7  O   UNL     1      39.833 -11.177   4.641  1.00  0.00    -0.270 OA
HETATM    8  H   UNL     1      42.059 -13.235   1.406  1.00  0.00     0.166 HD
ENDROOT
BRANCH   1   9
HETATM    9  C   UNL     1      39.472 -12.100   1.691  1.00  0.00     0.072 A 
HETATM   10  C   UNL     1      38.176 -11.674   1.999  1.00  0.00     0.030 A 
HETATM   11  C   UNL     1      37.366 -11.165   0.985  1.00  0.00     0.003 A 
HETATM   12  C   UNL     1      37.863 -11.065  -0.306  1.00  0.00     0.019 A 
HETATM   13  C   UNL     1      39.161 -11.476  -0.533  1.00  0.00     0.117 A 
HETATM   14  N   UNL     1      39.967 -11.984   0.428  1.00  0.00    -0.262 NA
ENDBRANCH   1   9
BRANCH   1  15
HETATM   15  C   UNL     1      40.003 -14.078   3.291  1.00  0.00     0.033 C 
HETATM   16  C   UNL     1      40.619 -14.499   4.640  1.00  0.00     0.036 C 
HETATM   17  C   UNL     1      41.989 -15.161   4.581  1.00  0.00     0.235 C 
HETATM   18  N   UNL     1      42.046 -16.246   3.533  1.00  0.00    -0.067 N 
HETATM   19  H   UNL     1      41.471 -17.030   3.877  1.00  0.00     0.280 HD
HETATM   20  C   UNL     1      41.510 -15.845   2.187  1.00  0.00     0.235 C 
HETATM   21  C   UNL     1      40.118 -15.261   2.309  1.00  0.00     0.036 C 
BRANCH  18  22
HETATM   22  C   UNL     1      43.460 -16.798   3.363  1.00  0.00     0.278 C 
BRANCH  22  23
HETATM   23  C   UNL     1      43.655 -18.232   3.748  1.00  0.00     0.028 A 
HETATM   24  C   UNL     1      43.900 -18.646   5.063  1.00  0.00     0.045 A 
HETATM   25 CL   UNL     1      44.050 -17.494   6.342  1.00  0.00    -0.084 Cl
HETATM   26  C   UNL     1      44.047 -20.002   5.368  1.00  0.00     0.024 A 
HETATM   27  C   UNL     1      43.949 -20.963   4.360  1.00  0.00     0.005 A 
HETATM   28  C   UNL     1      43.709 -20.567   3.049  1.00  0.00     0.043 A 
HETATM   29  C   UNL     1      43.563 -19.216   2.758  1.00  0.00     0.126 A 
HETATM   30  F   UNL     1      43.337 -18.850   1.488  1.00  0.00    -0.205 F 
ENDBRANCH  22  23
ENDBRANCH  18  22
ENDBRANCH   1  15
BRANCH   5  31
HETATM   31  C   UNL     1      42.641 -10.617   5.059  1.00  0.00     0.168 C 
BRANCH  31  32
HETATM   32  C   UNL     1      42.744 -11.354   6.405  1.00  0.00     0.140 C 
HETATM   33  O   UNL     1      43.209 -10.439   7.408  1.00  0.00    -0.384 OA
HETATM   34  C   UNL     1      44.639 -10.559   7.516  1.00  0.00     0.168 C 
HETATM   35  C   UNL     1      45.071 -11.705   6.620  1.00  0.00     0.029 C 
HETATM   36  C   UNL     1      43.785 -12.460   6.390  1.00  0.00     0.036 C 
ENDBRANCH  31  32
ENDBRANCH   5  31
TORSDOF 6
ENDMDL
MODEL 4
REMARK VINA RESULT:      -9.3      3.579      6.793
REMARK  6 active torsions:
REMARK  status: ('A' for Active; 'I' for Inactive)
REMARK    1  A    between atoms: C_3  and  C_4 
REMARK    2  A    between atoms: C_4  and  C_5 
REMARK    3  A    between atoms: N_8  and  C_10 
REMARK    4  A    between atoms: C_10  and  C_11 
REMARK    5  A    between atoms: N_24  and  C_25 
REMARK    6  A    between atoms: C_25  and  C_26 
ROOT
HETATM    1  C   UNL     1      39.992 -13.283   2.353  1.00  0.00     0.164 C 
HETATM    2  N   UNL     1      38.654 -12.733   2.478  1.00  0.00    -0.319 N 
HETATM    3  C   UNL     1      38.336 -11.851   1.473  1.00  0.00     0.326 C 
HETATM    4  O   UNL     1      37.212 -11.432   1.271  1.00  0.00    -0.247 OA
HETATM    5  N   UNL     1      39.455 -11.636   0.727  1.00  0.00    -0.265 N 
HETATM    6  C   UNL     1      40.494 -12.373   1.216  1.00  0.00     0.263 C 
HETATM    7  O   UNL     1      41.627 -12.371   0.750  1.00  0.00    -0.270 OA
HETATM    8  H   UNL     1      37.972 -13.011   3.177  1.00  0.00     0.166 HD
ENDROOT
BRANCH   1   9
HETATM    9  C   UNL     1      40.770 -13.088   3.655  1.00  0.00     0.072 A 
HETATM   10  C   UNL     1      40.133 -12.968   4.894  1.00  0.00     0.030 A 
HETATM   11  C   UNL     1      40.904 -12.813   6.046  1.00  0.00     0.003 A 
HETATM   12  C   UNL     1      42.288 -12.804   5.950  1.00  0.00     0.019 A 
HETATM   13  C   UNL     1      42.850 -12.958   4.698  1.00  0.00     0.117 A 
HETATM   14  N   UNL     1      42.128 -13.099   3.562  1.00  0.00    -0.262 NA
ENDBRANCH   1   9
BRANCH   1  15
HETATM   15  C   UNL     1      39.891 -14.801   1.911  1.00  0.00     0.033 C 
HETATM   16  C   UNL     1      39.830 -15.833   3.055  1.00  0.00     0.036 C 
HETATM   17  C   UNL     1      41.166 -16.306   3.612  1.00  0.00     0.235 C 
HETATM   18  N   UNL     1      42.130 -16.686   2.515  1.00  0.00    -0.067 N 
HETATM   19  H   UNL     1      41.781 -17.559   2.093  1.00  0.00     0.280 HD
HETATM   20  C   UNL     1      42.260 -15.670   1.414  1.00  0.00     0.235 C 
HETATM   21  C   UNL     1      40.901 -15.297   0.857  1.00  0.00     0.036 C 
BRANCH  18  22
HETATM   22  C   UNL     1      43.519 -17.005   3.065  1.00  0.00     0.278 C 
BRANCH  22  23
HETATM   23  C   UNL     1      43.686 -18.361   3.680  1.00  0.00     0.028 A 
HETATM   24  C   UNL     1      43.894 -18.560   5.049  1.00  0.00     0.045 A 
HETATM   25 CL   UNL     1      44.031 -17.220   6.130  1.00  0.00    -0.084 Cl
HETATM   26  C   UNL     1      44.016 -19.851   5.571  1.00  0.00     0.024 A 
HETATM   27  C   UNL     1      43.928 -20.961   4.728  1.00  0.00     0.005 A 
HETATM   28  C   UNL     1      43.723 -20.778   3.365  1.00  0.00     0.043 A 
HETATM   29  C   UNL     1      43.602 -19.490   2.857  1.00  0.00     0.126 A 
HETATM   30  F   UNL     1      43.411 -19.330   1.541  1.00  0.00    -0.205 F 
ENDBRANCH  22  23
ENDBRANCH  18  22
ENDBRANCH   1  15
BRANCH   5  31
HETATM   31  C   UNL     1      39.544 -10.734  -0.412  1.00  0.00     0.168 C 
BRANCH  31  32
HETATM   32  C   UNL     1      38.916 -11.330  -1.683  1.00  0.00     0.140 C 
HETATM   33  O   UNL     1      39.069 -12.757  -1.657  1.00  0.00    -0.384 OA
HETATM   34  C   UNL     1      40.262 -13.108  -2.382  1.00  0.00     0.168 C 
HETATM   35  C   UNL     1      40.811 -11.836  -3.002  1.00  0.00     0.029 C 
HETATM   36  C   UNL     1      39.632 -10.895  -2.950  1.00  0.00     0.036 C 
ENDBRANCH  31  32
ENDBRANCH   5  31
TORSDOF 6
ENDMDL
MODEL 5
REMARK VINA RESULT:      -9.2      1.731      4.961
REMARK  6 active torsions:
REMARK  status: ('A' for Active; 'I' for Inactive)
REMARK    1  A    between atoms: C_3  and  C_4 
REMARK    2  A    between atoms: C_4  and  C_5 
REMARK    3  A    between atoms: N_8  and  C_10 
REMARK    4  A    between atoms: C_10  and  C_11 
REMARK    5  A    between atoms: N_24  and  C_25 
REMARK    6  A    between atoms: C_25  and  C_26 
ROOT
HETATM    1  C   UNL     1      41.686 -13.104   2.263  1.00  0.00     0.164 C 
HETATM    2  N   UNL     1      40.777 -13.408   3.354  1.00  0.00    -0.319 N 
HETATM    3  C   UNL     1      41.281 -14.337   4.234  1.00  0.00     0.326 C 
HETATM    4  O   UNL     1      40.781 -14.586   5.315  1.00  0.00    -0.247 OA
HETATM    5  N   UNL     1      42.448 -14.817   3.723  1.00  0.00    -0.265 N 
HETATM    6  C   UNL     1      42.725 -14.209   2.533  1.00  0.00     0.263 C 
HETATM    7  O   UNL     1      43.706 -14.451   1.840  1.00  0.00    -0.270 OA
HETATM    8  H   UNL     1      39.891 -12.944   3.522  1.00  0.00     0.166 HD
ENDROOT
BRANCH   1   9
HETATM    9  C   UNL     1      40.976 -13.273   0.918  1.00  0.00     0.072 A 
HETATM   10  C   UNL     1      41.011 -12.288  -0.072  1.00  0.00     0.030 A 
HETATM   11  C   UNL     1      40.361 -12.515  -1.284  1.00  0.00     0.003 A 
HETATM   12  C   UNL     1      39.711 -13.721  -1.499  1.00  0.00     0.019 A 
HETATM   13  C   UNL     1      39.742 -14.662  -0.488  1.00  0.00     0.117 A 
HETATM   14  N   UNL     1      40.356 -14.465   0.701  1.00  0.00    -0.262 NA
ENDBRANCH   1   9
BRANCH   1  15
HETATM   15  C   UNL     1      42.283 -11.651   2.473  1.00  0.00     0.033 C 
HETATM   16  C   UNL     1      43.623 -11.578   3.232  1.00  0.00     0.036 C 
HETATM   17  C   UNL     1      43.538 -11.531   4.752  1.00  0.00     0.235 C 
HETATM   18  N   UNL     1      42.525 -10.519   5.229  1.00  0.00    -0.067 N 
HETATM   19  H   UNL     1      42.913  -9.585   5.032  1.00  0.00     0.280 HD
HETATM   20  C   UNL     1      41.185 -10.607   4.552  1.00  0.00     0.235 C 
HETATM   21  C   UNL     1      41.336 -10.576   3.044  1.00  0.00     0.036 C 
BRANCH  18  22
HETATM   22  C   UNL     1      42.323 -10.586   6.742  1.00  0.00     0.278 C 
BRANCH  22  23
HETATM   23  C   UNL     1      43.444 -10.047   7.577  1.00  0.00     0.028 A 
HETATM   24  C   UNL     1      43.558  -8.696   7.925  1.00  0.00     0.045 A 
HETATM   25 CL   UNL     1      42.417  -7.533   7.354  1.00  0.00    -0.084 Cl
HETATM   26  C   UNL     1      44.612  -8.254   8.731  1.00  0.00     0.024 A 
HETATM   27  C   UNL     1      45.565  -9.160   9.200  1.00  0.00     0.005 A 
HETATM   28  C   UNL     1      45.466 -10.505   8.860  1.00  0.00     0.043 A 
HETATM   29  C   UNL     1      44.413 -10.933   8.060  1.00  0.00     0.126 A 
HETATM   30  F   UNL     1      44.335 -12.231   7.736  1.00  0.00    -0.205 F 
ENDBRANCH  22  23
ENDBRANCH  18  22
ENDBRANCH   1  15
BRANCH   5  31
HETATM   31  C   UNL     1      43.273 -15.847   4.337  1.00  0.00     0.168 C 
BRANCH  31  32
HETATM   32  C   UNL     1      42.632 -17.242   4.247  1.00  0.00     0.140 C 
HETATM   33  O   UNL     1      43.309 -18.130   5.149  1.00  0.00    -0.384 OA
HETATM   34  C   UNL     1      44.337 -18.829   4.425  1.00  0.00     0.168 C 
HETATM   35  C   UNL     1      44.205 -18.448   2.961  1.00  0.00     0.029 C 
HETATM   36  C   UNL     1      42.809 -17.883   2.881  1.00  0.00     0.036 C 
ENDBRANCH  31  32
ENDBRANCH   5  31
TORSDOF 6
ENDMDL
MODEL 6
REMARK VINA RESULT:      -9.2      3.544      7.191
REMARK  6 active torsions:
REMARK  status: ('A' for Active; 'I' for Inactive)
REMARK    1  A    between atoms: C_3  and  C_4 
REMARK    2  A    between atoms: C_4  and  C_5 
REMARK    3  A    between atoms: N_8  and  C_10 
REMARK    4  A    between atoms: C_10  and  C_11 
REMARK    5  A    between atoms: N_24  and  C_25 
REMARK    6  A    between atoms: C_25  and  C_26 
ROOT
HETATM    1  C   UNL     1      40.666 -13.325   1.442  1.00  0.00     0.164 C 
HETATM    2  N   UNL     1      42.076 -13.138   1.733  1.00  0.00    -0.319 N 
HETATM    3  C   UNL     1      42.317 -12.091   2.591  1.00  0.00     0.326 C 
HETATM    4  O   UNL     1      43.392 -11.884   3.121  1.00  0.00    -0.247 OA
HETATM    5  N   UNL     1      41.144 -11.432   2.796  1.00  0.00    -0.265 N 
HETATM    6  C   UNL     1      40.137 -12.037   2.102  1.00  0.00     0.263 C 
HETATM    7  O   UNL     1      38.973 -11.655   2.089  1.00  0.00    -0.270 OA
HETATM    8  H   UNL     1      42.823 -13.747   1.416  1.00  0.00     0.166 HD
ENDROOT
BRANCH   1   9
HETATM    9  C   UNL     1      40.435 -13.354  -0.070  1.00  0.00     0.072 A 
HETATM   10  C   UNL     1      39.618 -14.309  -0.681  1.00  0.00     0.030 A 
HETATM   11  C   UNL     1      39.432 -14.266  -2.062  1.00  0.00     0.003 A 
HETATM   12  C   UNL     1      40.040 -13.265  -2.805  1.00  0.00     0.019 A 
HETATM   13  C   UNL     1      40.810 -12.336  -2.133  1.00  0.00     0.117 A 
HETATM   14  N   UNL     1      41.015 -12.359  -0.795  1.00  0.00    -0.262 NA
ENDBRANCH   1   9
BRANCH   1  15
HETATM   15  C   UNL     1      40.153 -14.633   2.175  1.00  0.00     0.033 C 
HETATM   16  C   UNL     1      40.300 -14.644   3.710  1.00  0.00     0.036 C 
HETATM   17  C   UNL     1      41.639 -15.120   4.259  1.00  0.00     0.235 C 
HETATM   18  N   UNL     1      42.092 -16.402   3.604  1.00  0.00    -0.067 N 
HETATM   19  H   UNL     1      41.471 -17.152   3.944  1.00  0.00     0.280 HD
HETATM   20  C   UNL     1      42.021 -16.399   2.103  1.00  0.00     0.235 C 
HETATM   21  C   UNL     1      40.643 -15.987   1.625  1.00  0.00     0.036 C 
BRANCH  18  22
HETATM   22  C   UNL     1      43.505 -16.791   4.036  1.00  0.00     0.278 C 
BRANCH  22  23
HETATM   23  C   UNL     1      43.668 -18.182   4.568  1.00  0.00     0.028 A 
HETATM   24  C   UNL     1      43.494 -18.511   5.917  1.00  0.00     0.045 A 
HETATM   25 CL   UNL     1      43.125 -17.295   7.086  1.00  0.00    -0.084 Cl
HETATM   26  C   UNL     1      43.633 -19.833   6.353  1.00  0.00     0.024 A 
HETATM   27  C   UNL     1      43.947 -20.843   5.441  1.00  0.00     0.005 A 
HETATM   28  C   UNL     1      44.126 -20.530   4.098  1.00  0.00     0.043 A 
HETATM   29  C   UNL     1      43.983 -19.213   3.676  1.00  0.00     0.126 A 
HETATM   30  F   UNL     1      44.164 -18.928   2.379  1.00  0.00    -0.205 F 
ENDBRANCH  22  23
ENDBRANCH  18  22
ENDBRANCH   1  15
BRANCH   5  31
HETATM   31  C   UNL     1      40.982 -10.240   3.616  1.00  0.00     0.168 C 
BRANCH  31  32
HETATM   32  C   UNL     1      41.111 -10.540   5.119  1.00  0.00     0.140 C 
HETATM   33  O   UNL     1      40.310 -11.688   5.440  1.00  0.00    -0.384 OA
HETATM   34  C   UNL     1      39.021 -11.239   5.894  1.00  0.00     0.168 C 
HETATM   35  C   UNL     1      39.068  -9.725   5.982  1.00  0.00     0.029 C 
HETATM   36  C   UNL     1      40.547  -9.430   5.990  1.00  0.00     0.036 C 
ENDBRANCH  31  32
ENDBRANCH   5  31
TORSDOF 6
ENDMDL
MODEL 7
REMARK VINA RESULT:      -9.0      2.804      7.112
REMARK  6 active torsions:
REMARK  status: ('A' for Active; 'I' for Inactive)
REMARK    1  A    between atoms: C_3  and  C_4 
REMARK    2  A    between atoms: C_4  and  C_5 
REMARK    3  A    between atoms: N_8  and  C_10 
REMARK    4  A    between atoms: C_10  and  C_11 
REMARK    5  A    between atoms: N_24  and  C_25 
REMARK    6  A    between atoms: C_25  and  C_26 
ROOT
HETATM    1  C   UNL     1      42.273 -10.788   6.261  1.00  0.00     0.164 C 
HETATM    2  N   UNL     1      41.211 -11.629   6.782  1.00  0.00    -0.319 N 
HETATM    3  C   UNL     1      40.152 -11.764   5.915  1.00  0.00     0.326 C 
HETATM    4  O   UNL     1      39.257 -12.575   6.060  1.00  0.00    -0.247 OA
HETATM    5  N   UNL     1      40.356 -10.923   4.864  1.00  0.00    -0.265 N 
HETATM    6  C   UNL     1      41.535 -10.253   5.019  1.00  0.00     0.263 C 
HETATM    7  O   UNL     1      41.971  -9.421   4.232  1.00  0.00    -0.270 OA
HETATM    8  H   UNL     1      41.250 -12.144   7.656  1.00  0.00     0.166 HD
ENDROOT
BRANCH   1   9
HETATM    9  C   UNL     1      42.618  -9.686   7.265  1.00  0.00     0.072 A 
HETATM   10  C   UNL     1      41.638  -8.889   7.863  1.00  0.00     0.030 A 
HETATM   11  C   UNL     1      42.019  -7.916   8.787  1.00  0.00     0.003 A 
HETATM   12  C   UNL     1      43.359  -7.770   9.116  1.00  0.00     0.019 A 
HETATM   13  C   UNL     1      44.270  -8.612   8.509  1.00  0.00     0.117 A 
HETATM   14  N   UNL     1      43.930  -9.558   7.602  1.00  0.00    -0.262 NA
ENDBRANCH   1   9
BRANCH   1  15
HETATM   15  C   UNL     1      43.515 -11.694   5.880  1.00  0.00     0.033 C 
HETATM   16  C   UNL     1      43.516 -12.268   4.449  1.00  0.00     0.036 C 
HETATM   17  C   UNL     1      42.768 -13.580   4.246  1.00  0.00     0.235 C 
HETATM   18  N   UNL     1      43.124 -14.600   5.300  1.00  0.00    -0.067 N 
HETATM   19  H   UNL     1      44.092 -14.903   5.115  1.00  0.00     0.280 HD
HETATM   20  C   UNL     1      43.071 -14.086   6.712  1.00  0.00     0.235 C 
HETATM   21  C   UNL     1      43.892 -12.822   6.861  1.00  0.00     0.036 C 
BRANCH  18  22
HETATM   22  C   UNL     1      42.258 -15.853   5.193  1.00  0.00     0.278 C 
BRANCH  22  23
HETATM   23  C   UNL     1      42.809 -16.961   4.348  1.00  0.00     0.028 A 
HETATM   24  C   UNL     1      42.385 -17.209   3.038  1.00  0.00     0.045 A 
HETATM   25 CL   UNL     1      41.131 -16.265   2.318  1.00  0.00    -0.084 Cl
HETATM   26  C   UNL     1      42.955 -18.242   2.287  1.00  0.00     0.024 A 
HETATM   27  C   UNL     1      43.961 -19.039   2.839  1.00  0.00     0.005 A 
HETATM   28  C   UNL     1      44.390 -18.805   4.141  1.00  0.00     0.043 A 
HETATM   29  C   UNL     1      43.817 -17.775   4.877  1.00  0.00     0.126 A 
HETATM   30  F   UNL     1      44.239 -17.567   6.132  1.00  0.00    -0.205 F 
ENDBRANCH  22  23
ENDBRANCH  18  22
ENDBRANCH   1  15
BRANCH   5  31
HETATM   31  C   UNL     1      39.442 -10.740   3.745  1.00  0.00     0.168 C 
BRANCH  31  32
HETATM   32  C   UNL     1      39.567 -11.859   2.697  1.00  0.00     0.140 C 
HETATM   33  O   UNL     1      40.793 -11.687   1.971  1.00  0.00    -0.384 OA
HETATM   34  C   UNL     1      40.520 -10.937   0.773  1.00  0.00     0.168 C 
HETATM   35  C   UNL     1      39.017 -10.744   0.688  1.00  0.00     0.029 C 
HETATM   36  C   UNL     1      38.485 -11.791   1.634  1.00  0.00     0.036 C 
ENDBRANCH  31  32
ENDBRANCH   5  31
TORSDOF 6
ENDMDL
MODEL 8
REMARK VINA RESULT:      -8.8      3.613      6.934
REMARK  6 active torsions:
REMARK  status: ('A' for Active; 'I' for Inactive)
REMARK    1  A    between atoms: C_3  and  C_4 
REMARK    2  A    between atoms: C_4  and  C_5 
REMARK    3  A    between atoms: N_8  and  C_10 
REMARK    4  A    between atoms: C_10  and  C_11 
REMARK    5  A    between atoms: N_24  and  C_25 
REMARK    6  A    between atoms: C_25  and  C_26 
ROOT
HETATM    1  C   UNL     1      40.036 -13.320   2.431  1.00  0.00     0.164 C 
HETATM    2  N   UNL     1      38.703 -12.763   2.580  1.00  0.00    -0.319 N 
HETATM    3  C   UNL     1      38.391 -11.840   1.610  1.00  0.00     0.326 C 
HETATM    4  O   UNL     1      37.271 -11.404   1.427  1.00  0.00    -0.247 OA
HETATM    5  N   UNL     1      39.510 -11.608   0.870  1.00  0.00    -0.265 N 
HETATM    6  C   UNL     1      40.544 -12.373   1.327  1.00  0.00     0.263 C 
HETATM    7  O   UNL     1      41.676 -12.364   0.859  1.00  0.00    -0.270 OA
HETATM    8  H   UNL     1      38.021 -13.061   3.269  1.00  0.00     0.166 HD
ENDROOT
BRANCH   1   9
HETATM    9  C   UNL     1      40.819 -13.181   3.738  1.00  0.00     0.072 A 
HETATM   10  C   UNL     1      40.187 -13.115   4.983  1.00  0.00     0.030 A 
HETATM   11  C   UNL     1      40.961 -13.010   6.137  1.00  0.00     0.003 A 
HETATM   12  C   UNL     1      42.345 -12.997   6.036  1.00  0.00     0.019 A 
HETATM   13  C   UNL     1      42.903 -13.096   4.777  1.00  0.00     0.117 A 
HETATM   14  N   UNL     1      42.176 -13.189   3.639  1.00  0.00    -0.262 NA
ENDBRANCH   1   9
BRANCH   1  15
HETATM   15  C   UNL     1      39.919 -14.820   1.932  1.00  0.00     0.033 C 
HETATM   16  C   UNL     1      39.889 -15.896   3.036  1.00  0.00     0.036 C 
HETATM   17  C   UNL     1      41.239 -16.391   3.536  1.00  0.00     0.235 C 
HETATM   18  N   UNL     1      42.171 -16.729   2.398  1.00  0.00    -0.067 N 
HETATM   19  H   UNL     1      41.809 -17.584   1.952  1.00  0.00     0.280 HD
HETATM   20  C   UNL     1      42.272 -15.670   1.335  1.00  0.00     0.235 C 
HETATM   21  C   UNL     1      40.899 -15.274   0.831  1.00  0.00     0.036 C 
BRANCH  18  22
HETATM   22  C   UNL     1      43.575 -17.070   2.895  1.00  0.00     0.278 C 
BRANCH  22  23
HETATM   23  C   UNL     1      43.723 -18.391   3.585  1.00  0.00     0.028 A 
HETATM   24  C   UNL     1      43.922 -18.518   4.965  1.00  0.00     0.045 A 
HETATM   25 CL   UNL     1      44.067 -17.122   5.971  1.00  0.00    -0.084 Cl
HETATM   26  C   UNL     1      44.026 -19.779   5.557  1.00  0.00     0.024 A 
HETATM   27  C   UNL     1      43.930 -20.933   4.776  1.00  0.00     0.005 A 
HETATM   28  C   UNL     1      43.735 -20.823   3.403  1.00  0.00     0.043 A 
HETATM   29  C   UNL     1      43.631 -19.563   2.825  1.00  0.00     0.126 A 
HETATM   30  F   UNL     1      43.449 -19.474   1.500  1.00  0.00    -0.205 F 
ENDBRANCH  22  23
ENDBRANCH  18  22
ENDBRANCH   1  15
BRANCH   5  31
HETATM   31  C   UNL     1      39.605 -10.664  -0.235  1.00  0.00     0.168 C 
BRANCH  31  32
HETATM   32  C   UNL     1      40.137  -9.292   0.211  1.00  0.00     0.140 C 
HETATM   33  O   UNL     1      39.407  -8.261  -0.470  1.00  0.00    -0.384 OA
HETATM   34  C   UNL     1      40.136  -7.881  -1.651  1.00  0.00     0.168 C 
HETATM   35  C   UNL     1      41.457  -8.629  -1.633  1.00  0.00     0.029 C 
HETATM   36  C   UNL     1      41.583  -9.064  -0.194  1.00  0.00     0.036 C 
ENDBRANCH  31  32
ENDBRANCH   5  31
TORSDOF 6
ENDMDL
MODEL 9
REMARK VINA RESULT:      -8.7      3.541      7.318
REMARK  6 active torsions:
REMARK  status: ('A' for Active; 'I' for Inactive)
REMARK    1  A    between atoms: C_3  and  C_4 
REMARK    2  A    between atoms: C_4  and  C_5 
REMARK    3  A    between atoms: N_8  and  C_10 
REMARK    4  A    between atoms: C_10  and  C_11 
REMARK    5  A    between atoms: N_24  and  C_25 
REMARK    6  A    between atoms: C_25  and  C_26 
ROOT
HETATM    1  C   UNL     1      41.273 -13.409   5.352  1.00  0.00     0.164 C 
HETATM    2  N   UNL     1      42.458 -12.600   5.570  1.00  0.00    -0.319 N 
HETATM    3  C   UNL     1      42.196 -11.423   6.231  1.00  0.00     0.326 C 
HETATM    4  O   UNL     1      43.058 -10.698   6.690  1.00  0.00    -0.247 OA
HETATM    5  N   UNL     1      40.846 -11.297   6.352  1.00  0.00    -0.265 N 
HETATM    6  C   UNL     1      40.220 -12.376   5.797  1.00  0.00     0.263 C 
HETATM    7  O   UNL     1      39.006 -12.527   5.750  1.00  0.00    -0.270 OA
HETATM    8  H   UNL     1      43.406 -12.881   5.342  1.00  0.00     0.166 HD
ENDROOT
BRANCH   1   9
HETATM    9  C   UNL     1      41.149 -13.783   3.874  1.00  0.00     0.072 A 
HETATM   10  C   UNL     1      40.008 -14.401   3.354  1.00  0.00     0.030 A 
HETATM   11  C   UNL     1      39.951 -14.695   1.992  1.00  0.00     0.003 A 
HETATM   12  C   UNL     1      41.014 -14.349   1.170  1.00  0.00     0.019 A 
HETATM   13  C   UNL     1      42.096 -13.713   1.746  1.00  0.00     0.117 A 
HETATM   14  N   UNL     1      42.183 -13.424   3.065  1.00  0.00    -0.262 NA
ENDBRANCH   1   9
BRANCH   1  15
HETATM   15  C   UNL     1      41.321 -14.671   6.310  1.00  0.00     0.033 C 
HETATM   16  C   UNL     1      42.597 -14.820   7.163  1.00  0.00     0.036 C 
HETATM   17  C   UNL     1      43.768 -15.540   6.507  1.00  0.00     0.235 C 
HETATM   18  N   UNL     1      43.339 -16.825   5.844  1.00  0.00    -0.067 N 
HETATM   19  H   UNL     1      43.103 -17.491   6.595  1.00  0.00     0.280 HD
HETATM   20  C   UNL     1      42.133 -16.699   4.955  1.00  0.00     0.235 C 
HETATM   21  C   UNL     1      40.983 -16.041   5.689  1.00  0.00     0.036 C 
BRANCH  18  22
HETATM   22  C   UNL     1      44.478 -17.464   5.051  1.00  0.00     0.278 C 
BRANCH  22  23
HETATM   23  C   UNL     1      44.087 -18.564   4.112  1.00  0.00     0.028 A 
HETATM   24  C   UNL     1      43.734 -18.341   2.776  1.00  0.00     0.045 A 
HETATM   25 CL   UNL     1      43.672 -16.740   2.130  1.00  0.00    -0.084 Cl
HETATM   26  C   UNL     1      43.404 -19.410   1.938  1.00  0.00     0.024 A 
HETATM   27  C   UNL     1      43.427 -20.718   2.426  1.00  0.00     0.005 A 
HETATM   28  C   UNL     1      43.773 -20.954   3.752  1.00  0.00     0.043 A 
HETATM   29  C   UNL     1      44.101 -19.884   4.576  1.00  0.00     0.126 A 
HETATM   30  F   UNL     1      44.427 -20.128   5.852  1.00  0.00    -0.205 F 
ENDBRANCH  22  23
ENDBRANCH  18  22
ENDBRANCH   1  15
BRANCH   5  31
HETATM   31  C   UNL     1      40.159 -10.166   6.961  1.00  0.00     0.168 C 
BRANCH  31  32
HETATM   32  C   UNL     1      39.691  -9.135   5.921  1.00  0.00     0.140 C 
HETATM   33  O   UNL     1      40.839  -8.540   5.299  1.00  0.00    -0.384 OA
HETATM   34  C   UNL     1      41.162  -7.322   5.993  1.00  0.00     0.168 C 
HETATM   35  C   UNL     1      40.074  -7.082   7.024  1.00  0.00     0.029 C 
HETATM   36  C   UNL     1      38.950  -7.966   6.546  1.00  0.00     0.036 C 
ENDBRANCH  31  32
ENDBRANCH   5  31
TORSDOF 6
ENDMDL
MODEL 10
REMARK VINA RESULT:      -8.5      3.473      7.920
REMARK  6 active torsions:
REMARK  status: ('A' for Active; 'I' for Inactive)
REMARK    1  A    between atoms: C_3  and  C_4 
REMARK    2  A    between atoms: C_4  and  C_5 
REMARK    3  A    between atoms: N_8  and  C_10 
REMARK    4  A    between atoms: C_10  and  C_11 
REMARK    5  A    between atoms: N_24  and  C_25 
REMARK    6  A    between atoms: C_25  and  C_26 
ROOT
HETATM    1  C   UNL     1      42.113 -14.428   3.737  1.00  0.00     0.164 C 
HETATM    2  N   UNL     1      42.983 -14.453   2.576  1.00  0.00    -0.319 N 
HETATM    3  C   UNL     1      43.177 -15.718   2.072  1.00  0.00     0.326 C 
HETATM    4  O   UNL     1      43.699 -15.947   0.998  1.00  0.00    -0.247 OA
HETATM    5  N   UNL     1      42.601 -16.608   2.928  1.00  0.00    -0.265 N 
HETATM    6  C   UNL     1      42.022 -15.948   3.973  1.00  0.00     0.263 C 
HETATM    7  O   UNL     1      41.439 -16.493   4.903  1.00  0.00    -0.270 OA
HETATM    8  H   UNL     1      43.360 -13.634   2.111  1.00  0.00     0.166 HD
ENDROOT
BRANCH   1   9
HETATM    9  C   UNL     1      42.791 -13.689   4.893  1.00  0.00     0.072 A 
HETATM   10  C   UNL     1      42.833 -14.211   6.189  1.00  0.00     0.030 A 
HETATM   11  C   UNL     1      43.486 -13.496   7.192  1.00  0.00     0.003 A 
HETATM   12  C   UNL     1      44.105 -12.292   6.885  1.00  0.00     0.019 A 
HETATM   13  C   UNL     1      44.050 -11.852   5.578  1.00  0.00     0.117 A 
HETATM   14  N   UNL     1      43.415 -12.519   4.586  1.00  0.00    -0.262 NA
ENDBRANCH   1   9
BRANCH   1  15
HETATM   15  C   UNL     1      40.718 -13.797   3.329  1.00  0.00     0.033 C 
HETATM   16  C   UNL     1      39.835 -14.658   2.403  1.00  0.00     0.036 C 
HETATM   17  C   UNL     1      40.092 -14.524   0.907  1.00  0.00     0.235 C 
HETATM   18  N   UNL     1      40.180 -13.080   0.478  1.00  0.00    -0.067 N 
HETATM   19  H   UNL     1      39.230 -12.686   0.543  1.00  0.00     0.280 HD
HETATM   20  C   UNL     1      41.084 -12.228   1.324  1.00  0.00     0.235 C 
HETATM   21  C   UNL     1      40.729 -12.352   2.792  1.00  0.00     0.036 C 
BRANCH  18  22
HETATM   22  C   UNL     1      40.596 -12.947  -0.986  1.00  0.00     0.278 C 
BRANCH  22  23
HETATM   23  C   UNL     1      39.944 -11.840  -1.756  1.00  0.00     0.028 A 
HETATM   24  C   UNL     1      38.638 -11.921  -2.255  1.00  0.00     0.045 A 
HETATM   25 CL   UNL     1      37.699 -13.356  -2.056  1.00  0.00    -0.084 Cl
HETATM   26  C   UNL     1      38.071 -10.844  -2.943  1.00  0.00     0.024 A 
HETATM   27  C   UNL     1      38.803  -9.671  -3.140  1.00  0.00     0.005 A 
HETATM   28  C   UNL     1      40.103  -9.578  -2.652  1.00  0.00     0.043 A 
HETATM   29  C   UNL     1      40.656 -10.654  -1.967  1.00  0.00     0.126 A 
HETATM   30  F   UNL     1      41.910 -10.551  -1.508  1.00  0.00    -0.205 F 
ENDBRANCH  22  23
ENDBRANCH  18  22
ENDBRANCH   1  15
BRANCH   5  31
HETATM   31  C   UNL     1      42.620 -18.055   2.772  1.00  0.00     0.168 C 
BRANCH  31  32
HETATM   32  C   UNL     1      44.036 -18.641   2.901  1.00  0.00     0.140 C 
HETATM   33  O   UNL     1      43.996 -20.041   2.587  1.00  0.00    -0.384 OA
HETATM   34  C   UNL     1      43.847 -20.785   3.809  1.00  0.00     0.168 C 
HETATM   35  C   UNL     1      43.927 -19.798   4.959  1.00  0.00     0.029 C 
HETATM   36  C   UNL     1      44.565 -18.588   4.324  1.00  0.00     0.036 C 
ENDBRANCH  31  32
ENDBRANCH   5  31
TORSDOF 6
ENDMDL
