MODEL 1
REMARK VINA RESULT:      -9.5      0.000      0.000
REMARK  5 active torsions:
REMARK  status: ('A' for Active; 'I' for Inactive)
REMARK    1  A    between atoms: C_2  and  N_3 
REMARK    2  A    between atoms: C_10  and  C_11 
REMARK    3  A    between atoms: C_11  and  C_12 
REMARK    4  A    between atoms: C_12  and  C_13 
REMARK       I    between atoms: C_13  and  N_14 
REMARK    5  A    between atoms: N_14  and  C_15 
ROOT
HETATM    1  C   UNL     1      45.333 -11.201   7.171  1.00  0.00     0.222 C 
HETATM    2  N   UNL     1      44.254 -11.989   7.517  1.00  0.00    -0.327 N 
HETATM    3  O   UNL     1      45.824 -11.131   6.046  1.00  0.00    -0.273 OA
HETATM    4  H   UNL     1      43.894 -11.906   8.456  1.00  0.00     0.169 HD
ENDROOT
BRANCH   2   5
HETATM    5  C   UNL     1      43.548 -12.899   6.699  1.00  0.00     0.035 A 
HETATM    6  C   UNL     1      43.886 -14.241   6.526  1.00  0.00     0.049 A 
HETATM    7  C   UNL     1      43.150 -15.080   5.658  1.00  0.00     0.061 A 
HETATM    8  C   UNL     1      42.056 -14.559   4.952  1.00  0.00     0.050 A 
HETATM    9  C   UNL     1      43.519 -16.521   5.691  1.00  0.00     0.256 C 
HETATM   10  N   UNL     1      41.265 -15.242   4.015  1.00  0.00    -0.324 N 
HETATM   11  C   UNL     1      41.680 -13.228   5.183  1.00  0.00     0.033 A 
HETATM   12  C   UNL     1      41.621 -16.261   3.175  1.00  0.00     0.245 C 
HETATM   13  H   UNL     1      40.372 -14.839   3.752  1.00  0.00     0.169 HD
HETATM   14  O   UNL     1      40.819 -16.595   2.300  1.00  0.00    -0.271 OA
HETATM   15  C   UNL     1      43.056 -16.778   3.228  1.00  0.00     0.180 C 
HETATM   16  N   UNL     1      43.373 -17.279   4.555  1.00  0.00    -0.334 N 
HETATM   17  C   UNL     1      43.276 -17.982   2.301  1.00  0.00     0.037 C 
HETATM   18  C   UNL     1      43.838 -18.655   4.506  1.00  0.00     0.127 C 
HETATM   19  C   UNL     1      44.273 -18.842   3.063  1.00  0.00     0.022 C 
HETATM   20  C   UNL     1      42.425 -12.405   6.033  1.00  0.00     0.032 A 
HETATM   21  O   UNL     1      43.947 -16.998   6.739  1.00  0.00    -0.267 OA
ENDBRANCH   2   5
BRANCH   1  22
HETATM   22  C   UNL     1      45.900 -10.311   8.273  1.00  0.00     0.108 C 
BRANCH  22  23
HETATM   23  C   UNL     1      45.277  -8.929   8.438  1.00  0.00     0.050 C 
BRANCH  23  24
HETATM   24  C   UNL     1      44.064  -8.869   9.318  1.00  0.00    -0.030 A 
HETATM   25  C   UNL     1      42.708  -8.974   8.864  1.00  0.00    -0.002 A 
HETATM   26  C   UNL     1      41.871  -8.891   9.983  1.00  0.00     0.045 A 
HETATM   27  C   UNL     1      42.124  -9.140   7.590  1.00  0.00     0.014 A 
HETATM   28  N   UNL     1      42.690  -8.739  11.084  1.00  0.00    -0.352 N 
HETATM   29  C   UNL     1      40.472  -8.967   9.862  1.00  0.00     0.030 A 
HETATM   30  C   UNL     1      44.006  -8.719  10.688  1.00  0.00     0.099 A 
HETATM   31  C   UNL     1      39.921  -9.131   8.588  1.00  0.00     0.002 A 
HETATM   32  C   UNL     1      40.734  -9.216   7.464  1.00  0.00     0.001 A 
BRANCH  28  33
HETATM   33  C   UNL     1      42.245  -8.629  12.476  1.00  0.00     0.081 C 
HETATM   34  C   UNL     1      43.199  -7.770  13.307  1.00  0.00     0.032 C 
HETATM   35  C   UNL     1      42.033 -10.005  13.109  1.00  0.00     0.032 C 
ENDBRANCH  28  33
ENDBRANCH  23  24
ENDBRANCH  22  23
ENDBRANCH   1  22
TORSDOF 5
ENDMDL
MODEL 2
REMARK VINA RESULT:      -9.4      6.275     10.728
REMARK  5 active torsions:
REMARK  status: ('A' for Active; 'I' for Inactive)
REMARK    1  A    between atoms: C_2  and  N_3 
REMARK    2  A    between atoms: C_10  and  C_11 
REMARK    3  A    between atoms: C_11  and  C_12 
REMARK    4  A    between atoms: C_12  and  C_13 
REMARK       I    between atoms: C_13  and  N_14 
REMARK    5  A    between atoms: N_14  and  C_15 
ROOT
HETATM    1  C   UNL     1      41.089 -14.297   1.055  1.00  0.00     0.222 C 
HETATM    2  N   UNL     1      41.126 -13.856  -0.252  1.00  0.00    -0.327 N 
HETATM    3  O   UNL     1      40.066 -14.456   1.719  1.00  0.00    -0.273 OA
HETATM    4  H   UNL     1      42.022 -13.836  -0.715  1.00  0.00     0.169 HD
ENDROOT
BRANCH   2   5
HETATM    5  C   UNL     1      40.040 -13.446  -1.058  1.00  0.00     0.035 A 
HETATM    6  C   UNL     1      39.719 -12.119  -1.345  1.00  0.00     0.049 A 
HETATM    7  C   UNL     1      38.591 -11.787  -2.131  1.00  0.00     0.061 A 
HETATM    8  C   UNL     1      37.774 -12.808  -2.637  1.00  0.00     0.050 A 
HETATM    9  C   UNL     1      38.458 -10.350  -2.490  1.00  0.00     0.256 C 
HETATM   10  N   UNL     1      36.594 -12.644  -3.380  1.00  0.00    -0.324 N 
HETATM   11  C   UNL     1      38.142 -14.141  -2.402  1.00  0.00     0.033 A 
HETATM   12  C   UNL     1      35.687 -11.622  -3.330  1.00  0.00     0.245 C 
HETATM   13  H   UNL     1      36.226 -13.443  -3.884  1.00  0.00     0.169 HD
HETATM   14  O   UNL     1      34.624 -11.763  -3.937  1.00  0.00    -0.271 OA
HETATM   15  C   UNL     1      35.945 -10.469  -2.363  1.00  0.00     0.180 C 
HETATM   16  N   UNL     1      37.206  -9.814  -2.669  1.00  0.00    -0.334 N 
HETATM   17  C   UNL     1      34.895  -9.356  -2.491  1.00  0.00     0.037 C 
HETATM   18  C   UNL     1      37.024  -8.391  -2.895  1.00  0.00     0.127 C 
HETATM   19  C   UNL     1      35.690  -8.083  -2.238  1.00  0.00     0.022 C 
HETATM   20  C   UNL     1      39.251 -14.455  -1.611  1.00  0.00     0.032 A 
HETATM   21  O   UNL     1      39.477  -9.676  -2.618  1.00  0.00    -0.267 OA
ENDBRANCH   2   5
BRANCH   1  22
HETATM   22  C   UNL     1      42.430 -14.671   1.679  1.00  0.00     0.108 C 
BRANCH  22  23
HETATM   23  C   UNL     1      42.877 -16.123   1.547  1.00  0.00     0.050 C 
BRANCH  23  24
HETATM   24  C   UNL     1      43.175 -16.826   2.838  1.00  0.00    -0.030 A 
HETATM   25  C   UNL     1      43.418 -18.232   2.975  1.00  0.00    -0.002 A 
HETATM   26  C   UNL     1      43.676 -18.496   4.325  1.00  0.00     0.045 A 
HETATM   27  C   UNL     1      43.446 -19.304   2.056  1.00  0.00     0.014 A 
HETATM   28  N   UNL     1      43.592 -17.289   4.991  1.00  0.00    -0.352 N 
HETATM   29  C   UNL     1      43.958 -19.797   4.780  1.00  0.00     0.030 A 
HETATM   30  C   UNL     1      43.285 -16.286   4.102  1.00  0.00     0.099 A 
HETATM   31  C   UNL     1      43.979 -20.838   3.848  1.00  0.00     0.002 A 
HETATM   32  C   UNL     1      43.726 -20.599   2.503  1.00  0.00     0.001 A 
BRANCH  28  33
HETATM   33  C   UNL     1      43.808 -17.084   6.425  1.00  0.00     0.081 C 
HETATM   34  C   UNL     1      42.567 -16.502   7.106  1.00  0.00     0.032 C 
HETATM   35  C   UNL     1      45.047 -16.226   6.690  1.00  0.00     0.032 C 
ENDBRANCH  28  33
ENDBRANCH  23  24
ENDBRANCH  22  23
ENDBRANCH   1  22
TORSDOF 5
ENDMDL
MODEL 3
REMARK VINA RESULT:      -9.3      0.841      2.491
REMARK  5 active torsions:
REMARK  status: ('A' for Active; 'I' for Inactive)
REMARK    1  A    between atoms: C_2  and  N_3 
REMARK    2  A    between atoms: C_10  and  C_11 
REMARK    3  A    between atoms: C_11  and  C_12 
REMARK    4  A    between atoms: C_12  and  C_13 
REMARK       I    between atoms: C_13  and  N_14 
REMARK    5  A    between atoms: N_14  and  C_15 
ROOT
HETATM    1  C   UNL     1      45.260 -11.033   7.144  1.00  0.00     0.222 C 
HETATM    2  N   UNL     1      44.301 -11.938   7.553  1.00  0.00    -0.327 N 
HETATM    3  O   UNL     1      45.600 -10.844   5.979  1.00  0.00    -0.273 OA
HETATM    4  H   UNL     1      44.055 -11.951   8.531  1.00  0.00     0.169 HD
ENDROOT
BRANCH   2   5
HETATM    5  C   UNL     1      43.577 -12.852   6.755  1.00  0.00     0.035 A 
HETATM    6  C   UNL     1      43.931 -14.185   6.552  1.00  0.00     0.049 A 
HETATM    7  C   UNL     1      43.173 -15.029   5.707  1.00  0.00     0.061 A 
HETATM    8  C   UNL     1      42.041 -14.521   5.055  1.00  0.00     0.050 A 
HETATM    9  C   UNL     1      43.569 -16.462   5.707  1.00  0.00     0.256 C 
HETATM   10  N   UNL     1      41.222 -15.208   4.144  1.00  0.00    -0.324 N 
HETATM   11  C   UNL     1      41.652 -13.199   5.317  1.00  0.00     0.033 A 
HETATM   12  C   UNL     1      41.560 -16.211   3.278  1.00  0.00     0.245 C 
HETATM   13  H   UNL     1      40.312 -14.818   3.925  1.00  0.00     0.169 HD
HETATM   14  O   UNL     1      40.727 -16.550   2.435  1.00  0.00    -0.271 OA
HETATM   15  C   UNL     1      43.005 -16.702   3.264  1.00  0.00     0.180 C 
HETATM   16  N   UNL     1      43.388 -17.211   4.570  1.00  0.00    -0.334 N 
HETATM   17  C   UNL     1      43.206 -17.891   2.315  1.00  0.00     0.037 C 
HETATM   18  C   UNL     1      43.875 -18.577   4.485  1.00  0.00     0.127 C 
HETATM   19  C   UNL     1      44.250 -18.741   3.023  1.00  0.00     0.022 C 
HETATM   20  C   UNL     1      42.417 -12.372   6.143  1.00  0.00     0.032 A 
HETATM   21  O   UNL     1      44.050 -16.943   6.731  1.00  0.00    -0.267 OA
ENDBRANCH   2   5
BRANCH   1  22
HETATM   22  C   UNL     1      45.883 -10.171   8.238  1.00  0.00     0.108 C 
BRANCH  22  23
HETATM   23  C   UNL     1      45.208  -8.837   8.539  1.00  0.00     0.050 C 
BRANCH  23  24
HETATM   24  C   UNL     1      43.737  -8.908   8.827  1.00  0.00    -0.030 A 
HETATM   25  C   UNL     1      43.160  -9.270  10.089  1.00  0.00    -0.002 A 
HETATM   26  C   UNL     1      41.768  -9.200   9.962  1.00  0.00     0.045 A 
HETATM   27  C   UNL     1      43.710  -9.646  11.333  1.00  0.00     0.014 A 
HETATM   28  N   UNL     1      41.504  -8.809   8.664  1.00  0.00    -0.352 N 
HETATM   29  C   UNL     1      40.915  -9.496  11.040  1.00  0.00     0.030 A 
HETATM   30  C   UNL     1      42.684  -8.639   7.979  1.00  0.00     0.099 A 
HETATM   31  C   UNL     1      41.487  -9.866  12.260  1.00  0.00     0.002 A 
HETATM   32  C   UNL     1      42.867  -9.941  12.408  1.00  0.00     0.001 A 
BRANCH  28  33
HETATM   33  C   UNL     1      40.176  -8.587   8.087  1.00  0.00     0.081 C 
HETATM   34  C   UNL     1      39.565  -9.887   7.561  1.00  0.00     0.032 C 
HETATM   35  C   UNL     1      40.205  -7.504   7.007  1.00  0.00     0.032 C 
ENDBRANCH  28  33
ENDBRANCH  23  24
ENDBRANCH  22  23
ENDBRANCH   1  22
TORSDOF 5
ENDMDL
MODEL 4
REMARK VINA RESULT:      -9.3      2.230      9.049
REMARK  5 active torsions:
REMARK  status: ('A' for Active; 'I' for Inactive)
REMARK    1  A    between atoms: C_2  and  N_3 
REMARK    2  A    between atoms: C_10  and  C_11 
REMARK    3  A    between atoms: C_11  and  C_12 
REMARK    4  A    between atoms: C_12  and  C_13 
REMARK       I    between atoms: C_13  and  N_14 
REMARK    5  A    between atoms: N_14  and  C_15 
ROOT
HETATM    1  C   UNL     1      41.187 -14.340   2.805  1.00  0.00     0.222 C 
HETATM    2  N   UNL     1      42.057 -13.269   2.762  1.00  0.00    -0.327 N 
HETATM    3  O   UNL     1      40.303 -14.499   3.644  1.00  0.00    -0.273 OA
HETATM    4  H   UNL     1      42.693 -13.213   1.981  1.00  0.00     0.169 HD
ENDROOT
BRANCH   2   5
HETATM    5  C   UNL     1      42.155 -12.197   3.676  1.00  0.00     0.035 A 
HETATM    6  C   UNL     1      43.202 -12.014   4.579  1.00  0.00     0.049 A 
HETATM    7  C   UNL     1      43.210 -10.932   5.490  1.00  0.00     0.061 A 
HETATM    8  C   UNL     1      42.145 -10.020   5.491  1.00  0.00     0.050 A 
HETATM    9  C   UNL     1      44.457 -10.769   6.282  1.00  0.00     0.256 C 
HETATM   10  N   UNL     1      41.977  -8.934   6.365  1.00  0.00    -0.324 N 
HETATM   11  C   UNL     1      41.131 -10.170   4.534  1.00  0.00     0.033 A 
HETATM   12  C   UNL     1      42.397  -8.805   7.660  1.00  0.00     0.245 C 
HETATM   13  H   UNL     1      41.301  -8.218   6.120  1.00  0.00     0.169 HD
HETATM   14  O   UNL     1      41.983  -7.841   8.307  1.00  0.00    -0.271 OA
HETATM   15  C   UNL     1      43.170  -9.960   8.291  1.00  0.00     0.180 C 
HETATM   16  N   UNL     1      44.388 -10.231   7.545  1.00  0.00    -0.334 N 
HETATM   17  C   UNL     1      43.656  -9.629   9.709  1.00  0.00     0.037 C 
HETATM   18  C   UNL     1      45.560 -10.170   8.400  1.00  0.00     0.127 C 
HETATM   19  C   UNL     1      45.000 -10.338   9.801  1.00  0.00     0.022 C 
HETATM   20  C   UNL     1      41.128 -11.252   3.649  1.00  0.00     0.032 A 
HETATM   21  O   UNL     1      45.525 -11.119   5.784  1.00  0.00    -0.267 OA
ENDBRANCH   2   5
BRANCH   1  22
HETATM   22  C   UNL     1      41.314 -15.359   1.676  1.00  0.00     0.108 C 
BRANCH  22  23
HETATM   23  C   UNL     1      42.649 -16.084   1.542  1.00  0.00     0.050 C 
BRANCH  23  24
HETATM   24  C   UNL     1      43.128 -16.788   2.776  1.00  0.00    -0.030 A 
HETATM   25  C   UNL     1      43.357 -18.200   2.885  1.00  0.00    -0.002 A 
HETATM   26  C   UNL     1      43.815 -18.464   4.181  1.00  0.00     0.045 A 
HETATM   27  C   UNL     1      43.216 -19.275   1.981  1.00  0.00     0.014 A 
HETATM   28  N   UNL     1      43.864 -17.252   4.842  1.00  0.00    -0.352 N 
HETATM   29  C   UNL     1      44.134 -19.769   4.596  1.00  0.00     0.030 A 
HETATM   30  C   UNL     1      43.446 -16.246   4.003  1.00  0.00     0.099 A 
HETATM   31  C   UNL     1      43.985 -20.814   3.681  1.00  0.00     0.002 A 
HETATM   32  C   UNL     1      43.532 -20.575   2.390  1.00  0.00     0.001 A 
BRANCH  28  33
HETATM   33  C   UNL     1      44.305 -17.045   6.223  1.00  0.00     0.081 C 
HETATM   34  C   UNL     1      43.244 -17.496   7.229  1.00  0.00     0.032 C 
HETATM   35  C   UNL     1      44.728 -15.596   6.467  1.00  0.00     0.032 C 
ENDBRANCH  28  33
ENDBRANCH  23  24
ENDBRANCH  22  23
ENDBRANCH   1  22
TORSDOF 5
ENDMDL
MODEL 5
REMARK VINA RESULT:      -9.3      1.318      2.377
REMARK  5 active torsions:
REMARK  status: ('A' for Active; 'I' for Inactive)
REMARK    1  A    between atoms: C_2  and  N_3 
REMARK    2  A    between atoms: C_10  and  C_11 
REMARK    3  A    between atoms: C_11  and  C_12 
REMARK    4  A    between atoms: C_12  and  C_13 
REMARK       I    between atoms: C_13  and  N_14 
REMARK    5  A    between atoms: N_14  and  C_15 
ROOT
HETATM    1  C   UNL     1      45.421 -10.993   7.289  1.00  0.00     0.222 C 
HETATM    2  N   UNL     1      44.217 -11.610   7.561  1.00  0.00    -0.327 N 
HETATM    3  O   UNL     1      46.083 -11.154   6.265  1.00  0.00    -0.273 OA
HETATM    4  H   UNL     1      43.732 -11.341   8.403  1.00  0.00     0.169 HD
ENDROOT
BRANCH   2   5
HETATM    5  C   UNL     1      43.543 -12.575   6.779  1.00  0.00     0.035 A 
HETATM    6  C   UNL     1      43.883 -13.926   6.715  1.00  0.00     0.049 A 
HETATM    7  C   UNL     1      43.180 -14.824   5.878  1.00  0.00     0.061 A 
HETATM    8  C   UNL     1      42.119 -14.352   5.093  1.00  0.00     0.050 A 
HETATM    9  C   UNL     1      43.542 -16.258   6.027  1.00  0.00     0.256 C 
HETATM   10  N   UNL     1      41.365 -15.098   4.173  1.00  0.00    -0.324 N 
HETATM   11  C   UNL     1      41.739 -13.008   5.214  1.00  0.00     0.033 A 
HETATM   12  C   UNL     1      41.751 -16.174   3.422  1.00  0.00     0.245 C 
HETATM   13  H   UNL     1      40.485 -14.713   3.846  1.00  0.00     0.169 HD
HETATM   14  O   UNL     1      40.985 -16.567   2.540  1.00  0.00    -0.271 OA
HETATM   15  C   UNL     1      43.181 -16.687   3.571  1.00  0.00     0.180 C 
HETATM   16  N   UNL     1      43.440 -17.095   4.943  1.00  0.00    -0.334 N 
HETATM   17  C   UNL     1      43.434 -17.953   2.742  1.00  0.00     0.037 C 
HETATM   18  C   UNL     1      43.902 -18.470   5.010  1.00  0.00     0.127 C 
HETATM   19  C   UNL     1      44.396 -18.760   3.603  1.00  0.00     0.022 C 
HETATM   20  C   UNL     1      42.451 -12.128   6.034  1.00  0.00     0.032 A 
HETATM   21  O   UNL     1      43.924 -16.661   7.124  1.00  0.00    -0.267 OA
ENDBRANCH   2   5
BRANCH   1  22
HETATM   22  C   UNL     1      45.914  -9.988   8.326  1.00  0.00     0.108 C 
BRANCH  22  23
HETATM   23  C   UNL     1      45.324 -10.093   9.728  1.00  0.00     0.050 C 
BRANCH  23  24
HETATM   24  C   UNL     1      44.196  -9.151  10.027  1.00  0.00    -0.030 A 
HETATM   25  C   UNL     1      43.287  -9.274  11.128  1.00  0.00    -0.002 A 
HETATM   26  C   UNL     1      42.395  -8.196  11.075  1.00  0.00     0.045 A 
HETATM   27  C   UNL     1      43.153 -10.216  12.172  1.00  0.00     0.014 A 
HETATM   28  N   UNL     1      42.750  -7.439   9.976  1.00  0.00    -0.352 N 
HETATM   29  C   UNL     1      41.378  -8.035  12.032  1.00  0.00     0.030 A 
HETATM   30  C   UNL     1      43.826  -8.012   9.342  1.00  0.00     0.099 A 
HETATM   31  C   UNL     1      41.268  -8.982  13.054  1.00  0.00     0.002 A 
HETATM   32  C   UNL     1      42.142 -10.061  13.125  1.00  0.00     0.001 A 
BRANCH  28  33
HETATM   33  C   UNL     1      42.100  -6.200   9.542  1.00  0.00     0.081 C 
HETATM   34  C   UNL     1      42.068  -6.083   8.017  1.00  0.00     0.032 C 
HETATM   35  C   UNL     1      42.746  -4.971  10.185  1.00  0.00     0.032 C 
ENDBRANCH  28  33
ENDBRANCH  23  24
ENDBRANCH  22  23
ENDBRANCH   1  22
TORSDOF 5
ENDMDL
MODEL 6
REMARK VINA RESULT:      -9.2      1.430      1.704
REMARK  5 active torsions:
REMARK  status: ('A' for Active; 'I' for Inactive)
REMARK    1  A    between atoms: C_2  and  N_3 
REMARK    2  A    between atoms: C_10  and  C_11 
REMARK    3  A    between atoms: C_11  and  C_12 
REMARK    4  A    between atoms: C_12  and  C_13 
REMARK       I    between atoms: C_13  and  N_14 
REMARK    5  A    between atoms: N_14  and  C_15 
ROOT
HETATM    1  C   UNL     1      45.216 -10.845   7.485  1.00  0.00     0.222 C 
HETATM    2  N   UNL     1      43.920 -11.317   7.525  1.00  0.00    -0.327 N 
HETATM    3  O   UNL     1      46.080 -11.217   6.693  1.00  0.00    -0.273 OA
HETATM    4  H   UNL     1      43.281 -10.880   8.173  1.00  0.00     0.169 HD
ENDROOT
BRANCH   2   5
HETATM    5  C   UNL     1      43.346 -12.337   6.734  1.00  0.00     0.035 A 
HETATM    6  C   UNL     1      43.646 -13.695   6.847  1.00  0.00     0.049 A 
HETATM    7  C   UNL     1      43.055 -14.654   5.992  1.00  0.00     0.061 A 
HETATM    8  C   UNL     1      42.148 -14.239   5.007  1.00  0.00     0.050 A 
HETATM    9  C   UNL     1      43.342 -16.075   6.325  1.00  0.00     0.256 C 
HETATM   10  N   UNL     1      41.524 -15.054   4.049  1.00  0.00    -0.324 N 
HETATM   11  C   UNL     1      41.798 -12.882   4.945  1.00  0.00     0.033 A 
HETATM   12  C   UNL     1      41.989 -16.202   3.470  1.00  0.00     0.245 C 
HETATM   13  H   UNL     1      40.721 -14.685   3.552  1.00  0.00     0.169 HD
HETATM   14  O   UNL     1      41.359 -16.662   2.515  1.00  0.00    -0.271 OA
HETATM   15  C   UNL     1      43.359 -16.725   3.892  1.00  0.00     0.180 C 
HETATM   16  N   UNL     1      43.385 -17.007   5.317  1.00  0.00    -0.334 N 
HETATM   17  C   UNL     1      43.698 -18.068   3.230  1.00  0.00     0.037 C 
HETATM   18  C   UNL     1      43.784 -18.379   5.581  1.00  0.00     0.127 C 
HETATM   19  C   UNL     1      44.484 -18.808   4.303  1.00  0.00     0.022 C 
HETATM   20  C   UNL     1      42.400 -11.943   5.786  1.00  0.00     0.032 A 
HETATM   21  O   UNL     1      43.532 -16.380   7.501  1.00  0.00    -0.267 OA
ENDBRANCH   2   5
BRANCH   1  22
HETATM   22  C   UNL     1      45.558  -9.730   8.469  1.00  0.00     0.108 C 
BRANCH  22  23
HETATM   23  C   UNL     1      45.472 -10.064   9.954  1.00  0.00     0.050 C 
BRANCH  23  24
HETATM   24  C   UNL     1      44.215  -9.624  10.643  1.00  0.00    -0.030 A 
HETATM   25  C   UNL     1      43.512  -8.403  10.379  1.00  0.00    -0.002 A 
HETATM   26  C   UNL     1      42.384  -8.367  11.207  1.00  0.00     0.045 A 
HETATM   27  C   UNL     1      43.742  -7.325   9.497  1.00  0.00     0.014 A 
HETATM   28  N   UNL     1      42.398  -9.529  11.952  1.00  0.00    -0.352 N 
HETATM   29  C   UNL     1      41.484  -7.287  11.177  1.00  0.00     0.030 A 
HETATM   30  C   UNL     1      43.499 -10.283  11.621  1.00  0.00     0.099 A 
HETATM   31  C   UNL     1      41.736  -6.233  10.294  1.00  0.00     0.002 A 
HETATM   32  C   UNL     1      42.851  -6.249   9.463  1.00  0.00     0.001 A 
BRANCH  28  33
HETATM   33  C   UNL     1      41.394  -9.926  12.942  1.00  0.00     0.081 C 
HETATM   34  C   UNL     1      40.001 -10.041  12.320  1.00  0.00     0.032 C 
HETATM   35  C   UNL     1      41.393  -8.987  14.150  1.00  0.00     0.032 C 
ENDBRANCH  28  33
ENDBRANCH  23  24
ENDBRANCH  22  23
ENDBRANCH   1  22
TORSDOF 5
ENDMDL
MODEL 7
REMARK VINA RESULT:      -9.0      2.028      3.327
REMARK  5 active torsions:
REMARK  status: ('A' for Active; 'I' for Inactive)
REMARK    1  A    between atoms: C_2  and  N_3 
REMARK    2  A    between atoms: C_10  and  C_11 
REMARK    3  A    between atoms: C_11  and  C_12 
REMARK    4  A    between atoms: C_12  and  C_13 
REMARK       I    between atoms: C_13  and  N_14 
REMARK    5  A    between atoms: N_14  and  C_15 
ROOT
HETATM    1  C   UNL     1      39.248 -10.628   7.060  1.00  0.00     0.222 C 
HETATM    2  N   UNL     1      40.380 -11.127   6.449  1.00  0.00    -0.327 N 
HETATM    3  O   UNL     1      38.164 -11.205   7.120  1.00  0.00    -0.273 OA
HETATM    4  H   UNL     1      41.232 -10.592   6.529  1.00  0.00     0.169 HD
ENDROOT
BRANCH   2   5
HETATM    5  C   UNL     1      40.514 -12.337   5.731  1.00  0.00     0.035 A 
HETATM    6  C   UNL     1      41.108 -13.496   6.230  1.00  0.00     0.049 A 
HETATM    7  C   UNL     1      41.238 -14.659   5.434  1.00  0.00     0.061 A 
HETATM    8  C   UNL     1      40.761 -14.653   4.116  1.00  0.00     0.050 A 
HETATM    9  C   UNL     1      41.744 -15.866   6.140  1.00  0.00     0.256 C 
HETATM   10  N   UNL     1      40.865 -15.699   3.186  1.00  0.00    -0.324 N 
HETATM   11  C   UNL     1      40.103 -13.508   3.645  1.00  0.00     0.033 A 
HETATM   12  C   UNL     1      41.837 -16.656   3.079  1.00  0.00     0.245 C 
HETATM   13  H   UNL     1      40.283 -15.666   2.356  1.00  0.00     0.169 HD
HETATM   14  O   UNL     1      41.834 -17.372   2.075  1.00  0.00    -0.271 OA
HETATM   15  C   UNL     1      42.982 -16.643   4.088  1.00  0.00     0.180 C 
HETATM   16  N   UNL     1      42.475 -16.796   5.442  1.00  0.00    -0.334 N 
HETATM   17  C   UNL     1      43.936 -17.831   3.900  1.00  0.00     0.037 C 
HETATM   18  C   UNL     1      43.094 -17.924   6.117  1.00  0.00     0.127 C 
HETATM   19  C   UNL     1      44.362 -18.176   5.320  1.00  0.00     0.022 C 
HETATM   20  C   UNL     1      39.995 -12.361   4.436  1.00  0.00     0.032 A 
HETATM   21  O   UNL     1      41.492 -16.002   7.335  1.00  0.00    -0.267 OA
ENDBRANCH   2   5
BRANCH   1  22
HETATM   22  C   UNL     1      39.400  -9.281   7.763  1.00  0.00     0.108 C 
BRANCH  22  23
HETATM   23  C   UNL     1      40.816  -8.743   7.934  1.00  0.00     0.050 C 
BRANCH  23  24
HETATM   24  C   UNL     1      41.502  -9.124   9.212  1.00  0.00    -0.030 A 
HETATM   25  C   UNL     1      42.909  -9.354   9.357  1.00  0.00    -0.002 A 
HETATM   26  C   UNL     1      43.160  -9.666  10.698  1.00  0.00     0.045 A 
HETATM   27  C   UNL     1      43.994  -9.316   8.455  1.00  0.00     0.014 A 
HETATM   28  N   UNL     1      41.943  -9.628  11.351  1.00  0.00    -0.352 N 
HETATM   29  C   UNL     1      44.459  -9.942  11.160  1.00  0.00     0.030 A 
HETATM   30  C   UNL     1      40.946  -9.309  10.460  1.00  0.00     0.099 A 
HETATM   31  C   UNL     1      45.514  -9.897  10.244  1.00  0.00     0.002 A 
HETATM   32  C   UNL     1      45.288  -9.589   8.908  1.00  0.00     0.001 A 
BRANCH  28  33
HETATM   33  C   UNL     1      41.727  -9.873  12.779  1.00  0.00     0.081 C 
HETATM   34  C   UNL     1      40.271 -10.236  13.076  1.00  0.00     0.032 C 
HETATM   35  C   UNL     1      42.196  -8.691  13.629  1.00  0.00     0.032 C 
ENDBRANCH  28  33
ENDBRANCH  23  24
ENDBRANCH  22  23
ENDBRANCH   1  22
TORSDOF 5
ENDMDL
MODEL 8
REMARK VINA RESULT:      -8.8      6.089     10.544
REMARK  5 active torsions:
REMARK  status: ('A' for Active; 'I' for Inactive)
REMARK    1  A    between atoms: C_2  and  N_3 
REMARK    2  A    between atoms: C_10  and  C_11 
REMARK    3  A    between atoms: C_11  and  C_12 
REMARK    4  A    between atoms: C_12  and  C_13 
REMARK       I    between atoms: C_13  and  N_14 
REMARK    5  A    between atoms: N_14  and  C_15 
ROOT
HETATM    1  C   UNL     1      40.394 -14.335   0.973  1.00  0.00     0.222 C 
HETATM    2  N   UNL     1      40.967 -14.026  -0.244  1.00  0.00    -0.327 N 
HETATM    3  O   UNL     1      39.523 -13.673   1.533  1.00  0.00    -0.273 OA
HETATM    4  H   UNL     1      41.619 -14.687  -0.637  1.00  0.00     0.169 HD
ENDROOT
BRANCH   2   5
HETATM    5  C   UNL     1      40.730 -12.888  -1.047  1.00  0.00     0.035 A 
HETATM    6  C   UNL     1      41.164 -11.597  -0.746  1.00  0.00     0.049 A 
HETATM    7  C   UNL     1      40.854 -10.501  -1.585  1.00  0.00     0.061 A 
HETATM    8  C   UNL     1      40.094 -10.708  -2.744  1.00  0.00     0.050 A 
HETATM    9  C   UNL     1      41.511  -9.215  -1.230  1.00  0.00     0.256 C 
HETATM   10  N   UNL     1      39.656  -9.723  -3.644  1.00  0.00    -0.324 N 
HETATM   11  C   UNL     1      39.721 -12.018  -3.077  1.00  0.00     0.033 A 
HETATM   12  C   UNL     1      39.351  -8.413  -3.396  1.00  0.00     0.245 C 
HETATM   13  H   UNL     1      39.323 -10.017  -4.555  1.00  0.00     0.169 HD
HETATM   14  O   UNL     1      38.808  -7.767  -4.294  1.00  0.00    -0.271 OA
HETATM   15  C   UNL     1      39.500  -7.890  -1.970  1.00  0.00     0.180 C 
HETATM   16  N   UNL     1      40.872  -8.032  -1.511  1.00  0.00    -0.334 N 
HETATM   17  C   UNL     1      39.216  -6.385  -1.869  1.00  0.00     0.037 C 
HETATM   18  C   UNL     1      41.419  -6.760  -1.070  1.00  0.00     0.127 C 
HETATM   19  C   UNL     1      40.191  -5.908  -0.802  1.00  0.00     0.022 C 
HETATM   20  C   UNL     1      40.021 -13.091  -2.232  1.00  0.00     0.032 A 
HETATM   21  O   UNL     1      42.616  -9.244  -0.693  1.00  0.00    -0.267 OA
ENDBRANCH   2   5
BRANCH   1  22
HETATM   22  C   UNL     1      40.849 -15.641   1.620  1.00  0.00     0.108 C 
BRANCH  22  23
HETATM   23  C   UNL     1      42.351 -15.883   1.710  1.00  0.00     0.050 C 
BRANCH  23  24
HETATM   24  C   UNL     1      42.815 -16.619   2.932  1.00  0.00    -0.030 A 
HETATM   25  C   UNL     1      43.163 -18.009   2.977  1.00  0.00    -0.002 A 
HETATM   26  C   UNL     1      43.562 -18.312   4.283  1.00  0.00     0.045 A 
HETATM   27  C   UNL     1      43.176 -19.035   2.007  1.00  0.00     0.014 A 
HETATM   28  N   UNL     1      43.461 -17.144   5.013  1.00  0.00    -0.352 N 
HETATM   29  C   UNL     1      43.971 -19.608   4.646  1.00  0.00     0.030 A 
HETATM   30  C   UNL     1      43.007 -16.128   4.206  1.00  0.00     0.099 A 
HETATM   31  C   UNL     1      43.974 -20.604   3.666  1.00  0.00     0.002 A 
HETATM   32  C   UNL     1      43.581 -20.325   2.362  1.00  0.00     0.001 A 
BRANCH  28  33
HETATM   33  C   UNL     1      43.796 -16.985   6.430  1.00  0.00     0.081 C 
HETATM   34  C   UNL     1      42.639 -16.369   7.219  1.00  0.00     0.032 C 
HETATM   35  C   UNL     1      45.089 -16.189   6.617  1.00  0.00     0.032 C 
ENDBRANCH  28  33
ENDBRANCH  23  24
ENDBRANCH  22  23
ENDBRANCH   1  22
TORSDOF 5
ENDMDL
MODEL 9
REMARK VINA RESULT:      -8.8      5.895      8.924
REMARK  5 active torsions:
REMARK  status: ('A' for Active; 'I' for Inactive)
REMARK    1  A    between atoms: C_2  and  N_3 
REMARK    2  A    between atoms: C_10  and  C_11 
REMARK    3  A    between atoms: C_11  and  C_12 
REMARK    4  A    between atoms: C_12  and  C_13 
REMARK       I    between atoms: C_13  and  N_14 
REMARK    5  A    between atoms: N_14  and  C_15 
ROOT
HETATM    1  C   UNL     1      39.011 -11.758   2.310  1.00  0.00     0.222 C 
HETATM    2  N   UNL     1      38.770 -13.104   2.128  1.00  0.00    -0.327 N 
HETATM    3  O   UNL     1      40.070 -11.277   2.708  1.00  0.00    -0.273 OA
HETATM    4  H   UNL     1      37.884 -13.373   1.727  1.00  0.00     0.169 HD
ENDROOT
BRANCH   2   5
HETATM    5  C   UNL     1      39.636 -14.184   2.411  1.00  0.00     0.035 A 
HETATM    6  C   UNL     1      40.075 -14.539   3.686  1.00  0.00     0.049 A 
HETATM    7  C   UNL     1      40.974 -15.614   3.883  1.00  0.00     0.061 A 
HETATM    8  C   UNL     1      41.437 -16.342   2.779  1.00  0.00     0.050 A 
HETATM    9  C   UNL     1      41.233 -15.982   5.301  1.00  0.00     0.256 C 
HETATM   10  N   UNL     1      42.370 -17.391   2.801  1.00  0.00    -0.324 N 
HETATM   11  C   UNL     1      40.937 -16.024   1.508  1.00  0.00     0.033 A 
HETATM   12  C   UNL     1      43.408 -17.594   3.667  1.00  0.00     0.245 C 
HETATM   13  H   UNL     1      42.445 -17.987   1.984  1.00  0.00     0.169 HD
HETATM   14  O   UNL     1      44.219 -18.483   3.397  1.00  0.00    -0.271 OA
HETATM   15  C   UNL     1      43.625 -16.584   4.790  1.00  0.00     0.180 C 
HETATM   16  N   UNL     1      42.454 -16.509   5.647  1.00  0.00    -0.334 N 
HETATM   17  C   UNL     1      44.763 -16.998   5.733  1.00  0.00     0.037 C 
HETATM   18  C   UNL     1      42.794 -16.764   7.036  1.00  0.00     0.127 C 
HETATM   19  C   UNL     1      44.291 -16.516   7.097  1.00  0.00     0.022 C 
HETATM   20  C   UNL     1      40.061 -14.951   1.324  1.00  0.00     0.032 A 
HETATM   21  O   UNL     1      40.343 -15.806   6.130  1.00  0.00    -0.267 OA
ENDBRANCH   2   5
BRANCH   1  22
HETATM   22  C   UNL     1      37.879 -10.811   1.919  1.00  0.00     0.108 C 
BRANCH  22  23
HETATM   23  C   UNL     1      37.527 -10.726   0.438  1.00  0.00     0.050 C 
BRANCH  23  24
HETATM   24  C   UNL     1      38.695 -10.707  -0.503  1.00  0.00    -0.030 A 
HETATM   25  C   UNL     1      39.143 -11.822  -1.286  1.00  0.00    -0.002 A 
HETATM   26  C   UNL     1      40.240 -11.401  -2.047  1.00  0.00     0.045 A 
HETATM   27  C   UNL     1      38.700 -13.156  -1.412  1.00  0.00     0.014 A 
HETATM   28  N   UNL     1      40.455 -10.072  -1.738  1.00  0.00    -0.352 N 
HETATM   29  C   UNL     1      40.904 -12.275  -2.926  1.00  0.00     0.030 A 
HETATM   30  C   UNL     1      39.533  -9.655  -0.808  1.00  0.00     0.099 A 
HETATM   31  C   UNL     1      40.444 -13.591  -3.031  1.00  0.00     0.002 A 
HETATM   32  C   UNL     1      39.356 -14.029  -2.285  1.00  0.00     0.001 A 
BRANCH  28  33
HETATM   33  C   UNL     1      41.493  -9.214  -2.315  1.00  0.00     0.081 C 
HETATM   34  C   UNL     1      42.363  -8.574  -1.232  1.00  0.00     0.032 C 
HETATM   35  C   UNL     1      40.896  -8.161  -3.250  1.00  0.00     0.032 C 
ENDBRANCH  28  33
ENDBRANCH  23  24
ENDBRANCH  22  23
ENDBRANCH   1  22
TORSDOF 5
ENDMDL
MODEL 10
REMARK VINA RESULT:      -8.7      2.186      9.367
REMARK  5 active torsions:
REMARK  status: ('A' for Active; 'I' for Inactive)
REMARK    1  A    between atoms: C_2  and  N_3 
REMARK    2  A    between atoms: C_10  and  C_11 
REMARK    3  A    between atoms: C_11  and  C_12 
REMARK    4  A    between atoms: C_12  and  C_13 
REMARK       I    between atoms: C_13  and  N_14 
REMARK    5  A    between atoms: N_14  and  C_15 
ROOT
HETATM    1  C   UNL     1      41.398 -13.159   3.755  1.00  0.00     0.222 C 
HETATM    2  N   UNL     1      42.418 -12.268   4.026  1.00  0.00    -0.327 N 
HETATM    3  O   UNL     1      40.315 -13.191   4.335  1.00  0.00    -0.273 OA
HETATM    4  H   UNL     1      43.233 -12.293   3.432  1.00  0.00     0.169 HD
ENDROOT
BRANCH   2   5
HETATM    5  C   UNL     1      42.457 -11.280   5.034  1.00  0.00     0.035 A 
HETATM    6  C   UNL     1      43.100 -11.422   6.264  1.00  0.00     0.049 A 
HETATM    7  C   UNL     1      43.063 -10.398   7.238  1.00  0.00     0.061 A 
HETATM    8  C   UNL     1      42.367  -9.211   6.969  1.00  0.00     0.050 A 
HETATM    9  C   UNL     1      43.920 -10.617   8.434  1.00  0.00     0.256 C 
HETATM   10  N   UNL     1      42.189  -8.130   7.848  1.00  0.00    -0.324 N 
HETATM   11  C   UNL     1      41.783  -9.046   5.706  1.00  0.00     0.033 A 
HETATM   12  C   UNL     1      42.115  -8.140   9.213  1.00  0.00     0.245 C 
HETATM   13  H   UNL     1      41.876  -7.244   7.465  1.00  0.00     0.169 HD
HETATM   14  O   UNL     1      41.770  -7.101   9.780  1.00  0.00    -0.271 OA
HETATM   15  C   UNL     1      42.251  -9.477   9.938  1.00  0.00     0.180 C 
HETATM   16  N   UNL     1      43.535 -10.092   9.644  1.00  0.00    -0.334 N 
HETATM   17  C   UNL     1      42.245  -9.315  11.464  1.00  0.00     0.037 C 
HETATM   18  C   UNL     1      44.273 -10.387  10.859  1.00  0.00     0.127 C 
HETATM   19  C   UNL     1      43.208 -10.391  11.942  1.00  0.00     0.022 C 
HETATM   20  C   UNL     1      41.814 -10.072   4.757  1.00  0.00     0.032 A 
HETATM   21  O   UNL     1      44.957 -11.265   8.308  1.00  0.00    -0.267 OA
ENDBRANCH   2   5
BRANCH   1  22
HETATM   22  C   UNL     1      41.638 -14.126   2.599  1.00  0.00     0.108 C 
BRANCH  22  23
HETATM   23  C   UNL     1      41.039 -15.522   2.727  1.00  0.00     0.050 C 
BRANCH  23  24
HETATM   24  C   UNL     1      41.958 -16.570   3.282  1.00  0.00    -0.030 A 
HETATM   25  C   UNL     1      42.381 -16.656   4.649  1.00  0.00    -0.002 A 
HETATM   26  C   UNL     1      43.213 -17.775   4.774  1.00  0.00     0.045 A 
HETATM   27  C   UNL     1      42.119 -15.874   5.795  1.00  0.00     0.014 A 
HETATM   28  N   UNL     1      43.294 -18.353   3.522  1.00  0.00    -0.352 N 
HETATM   29  C   UNL     1      43.788 -18.131   6.007  1.00  0.00     0.030 A 
HETATM   30  C   UNL     1      42.547 -17.629   2.624  1.00  0.00     0.099 A 
HETATM   31  C   UNL     1      43.511 -17.338   7.124  1.00  0.00     0.002 A 
HETATM   32  C   UNL     1      42.688 -16.223   7.023  1.00  0.00     0.001 A 
BRANCH  28  33
HETATM   33  C   UNL     1      44.046 -19.564   3.183  1.00  0.00     0.081 C 
HETATM   34  C   UNL     1      43.618 -20.135   1.831  1.00  0.00     0.032 C 
HETATM   35  C   UNL     1      43.948 -20.614   4.292  1.00  0.00     0.032 C 
ENDBRANCH  28  33
ENDBRANCH  23  24
ENDBRANCH  22  23
ENDBRANCH   1  22
TORSDOF 5
ENDMDL
