MODEL 1
REMARK VINA RESULT:      -9.2      0.000      0.000
REMARK  4 active torsions:
REMARK  status: ('A' for Active; 'I' for Inactive)
REMARK    1  A    between atoms: C_2  and  C_3 
REMARK    2  A    between atoms: C_6  and  C_7 
REMARK       I    between atoms: C_7  and  N_8 
REMARK    3  A    between atoms: N_8  and  N_9 
REMARK       I    between atoms: N_9  and  C_10 
REMARK    4  A    between atoms: C_10  and  C_11 
ROOT
HETATM    1  N   UNL     1      43.486 -12.746   5.802  1.00  0.00    -0.263 N 
HETATM    2  C   UNL     1      42.684 -13.845   5.575  1.00  0.00     0.272 C 
HETATM    3  O   UNL     1      41.852 -14.240   6.390  1.00  0.00    -0.266 OA
HETATM    4  H   UNL     1      44.312 -12.521   5.250  1.00  0.00     0.190 HD
ENDROOT
BRANCH   1   5
HETATM    5  N   UNL     1      43.403 -12.115   7.046  1.00  0.00    -0.263 N 
HETATM    6  C   UNL     1      44.357 -11.168   7.353  1.00  0.00     0.270 C 
HETATM    7  O   UNL     1      45.297 -10.911   6.603  1.00  0.00    -0.266 OA
HETATM    8  H   UNL     1      42.541 -12.260   7.566  1.00  0.00     0.190 HD
BRANCH   6   9
HETATM    9  C   UNL     1      44.179 -10.432   8.635  1.00  0.00     0.033 A 
HETATM   10  C   UNL     1      45.194 -10.340   9.594  1.00  0.00     0.017 A 
HETATM   11  C   UNL     1      44.969  -9.642  10.785  1.00  0.00     0.008 A 
HETATM   12  C   UNL     1      43.734  -9.029  11.031  1.00  0.00    -0.059 A 
HETATM   13  C   UNL     1      42.730  -9.104  10.057  1.00  0.00     0.008 A 
HETATM   14  C   UNL     1      42.952  -9.798   8.866  1.00  0.00     0.017 A 
BRANCH  12  15
HETATM   15  C   UNL     1      43.499  -8.266  12.310  1.00  0.00     0.034 C 
HETATM   16  C   UNL     1      42.562  -9.010  13.249  1.00  0.00     0.010 C 
ENDBRANCH  12  15
ENDBRANCH   6   9
ENDBRANCH   1   5
BRANCH   2  17
HETATM   17  C   UNL     1      42.906 -14.573   4.295  1.00  0.00     0.061 A 
HETATM   18  C   UNL     1      43.155 -15.957   4.317  1.00  0.00     0.059 A 
HETATM   19  C   UNL     1      43.402 -16.703   3.167  1.00  0.00    -0.001 A 
HETATM   20  N   UNL     1      43.216 -16.828   5.381  1.00  0.00    -0.358 N 
HETATM   21  C   UNL     1      43.639 -18.058   3.574  1.00  0.00    -0.027 A 
HETATM   22  C   UNL     1      43.379 -16.041   1.922  1.00  0.00     0.014 A 
HETATM   23  C   UNL     1      43.960 -19.211   2.689  1.00  0.00     0.051 C 
HETATM   24  C   UNL     1      43.519 -18.095   4.955  1.00  0.00     0.012 A 
HETATM   25  C   UNL     1      43.659 -19.211   5.925  1.00  0.00     0.068 C 
HETATM   26  C   UNL     1      43.104 -14.670   1.869  1.00  0.00     0.002 A 
HETATM   27  C   UNL     1      42.869 -13.946   3.038  1.00  0.00     0.019 A 
HETATM   28  H   UNL     1      43.045 -16.543   6.339  1.00  0.00     0.166 HD
ENDBRANCH   2  17
TORSDOF 4
ENDMDL
MODEL 2
REMARK VINA RESULT:      -8.7      1.604      9.235
REMARK  4 active torsions:
REMARK  status: ('A' for Active; 'I' for Inactive)
REMARK    1  A    between atoms: C_2  and  C_3 
REMARK    2  A    between atoms: C_6  and  C_7 
REMARK       I    between atoms: C_7  and  N_8 
REMARK    3  A    between atoms: N_8  and  N_9 
REMARK       I    between atoms: N_9  and  C_10 
REMARK    4  A    between atoms: C_10  and  C_11 
ROOT
HETATM    1  N   UNL     1      43.574 -12.886   7.240  1.00  0.00    -0.263 N 
HETATM    2  C   UNL     1      44.262 -11.704   7.067  1.00  0.00     0.272 C 
HETATM    3  O   UNL     1      44.884 -11.443   6.037  1.00  0.00    -0.266 OA
HETATM    4  H   UNL     1      43.229 -13.216   8.140  1.00  0.00     0.190 HD
ENDROOT
BRANCH   1   5
HETATM    5  N   UNL     1      43.663 -13.855   6.237  1.00  0.00    -0.263 N 
HETATM    6  C   UNL     1      43.415 -15.167   6.584  1.00  0.00     0.270 C 
HETATM    7  O   UNL     1      43.183 -15.509   7.742  1.00  0.00    -0.266 OA
HETATM    8  H   UNL     1      43.722 -13.509   5.283  1.00  0.00     0.190 HD
BRANCH   6   9
HETATM    9  C   UNL     1      43.406 -16.160   5.475  1.00  0.00     0.033 A 
HETATM   10  C   UNL     1      44.207 -17.308   5.490  1.00  0.00     0.017 A 
HETATM   11  C   UNL     1      44.164 -18.204   4.418  1.00  0.00     0.008 A 
HETATM   12  C   UNL     1      43.324 -17.967   3.323  1.00  0.00    -0.059 A 
HETATM   13  C   UNL     1      42.507 -16.829   3.324  1.00  0.00     0.008 A 
HETATM   14  C   UNL     1      42.546 -15.934   4.394  1.00  0.00     0.017 A 
BRANCH  12  15
HETATM   15  C   UNL     1      43.270 -18.942   2.174  1.00  0.00     0.034 C 
HETATM   16  C   UNL     1      43.634 -20.353   2.610  1.00  0.00     0.010 C 
ENDBRANCH  12  15
ENDBRANCH   6   9
ENDBRANCH   1   5
BRANCH   2  17
HETATM   17  C   UNL     1      44.258 -10.760   8.218  1.00  0.00     0.061 A 
HETATM   18  C   UNL     1      43.086 -10.043   8.523  1.00  0.00     0.059 A 
HETATM   19  C   UNL     1      43.010  -9.120   9.564  1.00  0.00    -0.001 A 
HETATM   20  N   UNL     1      41.849 -10.072   7.922  1.00  0.00    -0.358 N 
HETATM   21  C   UNL     1      41.685  -8.571   9.557  1.00  0.00    -0.027 A 
HETATM   22  C   UNL     1      44.156  -8.912  10.359  1.00  0.00     0.014 A 
HETATM   23  C   UNL     1      41.147  -7.534  10.480  1.00  0.00     0.051 C 
HETATM   24  C   UNL     1      40.995  -9.183   8.521  1.00  0.00     0.012 A 
HETATM   25  C   UNL     1      39.602  -9.018   8.035  1.00  0.00     0.068 C 
HETATM   26  C   UNL     1      45.325  -9.634  10.095  1.00  0.00     0.002 A 
HETATM   27  C   UNL     1      45.375 -10.546   9.041  1.00  0.00     0.019 A 
HETATM   28  H   UNL     1      41.626 -10.687   7.146  1.00  0.00     0.166 HD
ENDBRANCH   2  17
TORSDOF 4
ENDMDL
MODEL 3
REMARK VINA RESULT:      -8.6      5.154      8.603
REMARK  4 active torsions:
REMARK  status: ('A' for Active; 'I' for Inactive)
REMARK    1  A    between atoms: C_2  and  C_3 
REMARK    2  A    between atoms: C_6  and  C_7 
REMARK       I    between atoms: C_7  and  N_8 
REMARK    3  A    between atoms: N_8  and  N_9 
REMARK       I    between atoms: N_9  and  C_10 
REMARK    4  A    between atoms: C_10  and  C_11 
ROOT
HETATM    1  N   UNL     1      41.452 -14.701   3.136  1.00  0.00    -0.263 N 
HETATM    2  C   UNL     1      42.772 -15.100   3.137  1.00  0.00     0.272 C 
HETATM    3  O   UNL     1      43.559 -14.793   2.242  1.00  0.00    -0.266 OA
HETATM    4  H   UNL     1      40.736 -15.102   3.740  1.00  0.00     0.190 HD
ENDROOT
BRANCH   1   5
HETATM    5  N   UNL     1      40.977 -13.994   2.028  1.00  0.00    -0.263 N 
HETATM    6  C   UNL     1      40.212 -14.677   1.106  1.00  0.00     0.270 C 
HETATM    7  O   UNL     1      39.991 -15.883   1.197  1.00  0.00    -0.266 OA
HETATM    8  H   UNL     1      41.069 -12.982   2.068  1.00  0.00     0.190 HD
BRANCH   6   9
HETATM    9  C   UNL     1      39.626 -13.874  -0.002  1.00  0.00     0.033 A 
HETATM   10  C   UNL     1      39.338 -14.425  -1.257  1.00  0.00     0.017 A 
HETATM   11  C   UNL     1      38.796 -13.623  -2.264  1.00  0.00     0.008 A 
HETATM   12  C   UNL     1      38.534 -12.266  -2.034  1.00  0.00    -0.059 A 
HETATM   13  C   UNL     1      38.802 -11.725  -0.769  1.00  0.00     0.008 A 
HETATM   14  C   UNL     1      39.342 -12.525   0.240  1.00  0.00     0.017 A 
BRANCH  12  15
HETATM   15  C   UNL     1      37.936 -11.406  -3.118  1.00  0.00     0.034 C 
HETATM   16  C   UNL     1      38.746 -10.139  -3.347  1.00  0.00     0.010 C 
ENDBRANCH  12  15
ENDBRANCH   6   9
ENDBRANCH   1   5
BRANCH   2  17
HETATM   17  C   UNL     1      43.199 -15.972   4.266  1.00  0.00     0.061 A 
HETATM   18  C   UNL     1      43.470 -17.332   4.028  1.00  0.00     0.059 A 
HETATM   19  C   UNL     1      43.845 -18.218   5.035  1.00  0.00    -0.001 A 
HETATM   20  N   UNL     1      43.430 -18.050   2.855  1.00  0.00    -0.358 N 
HETATM   21  C   UNL     1      44.008 -19.510   4.433  1.00  0.00    -0.027 A 
HETATM   22  C   UNL     1      43.979 -17.722   6.348  1.00  0.00     0.014 A 
HETATM   23  C   UNL     1      44.389 -20.772   5.124  1.00  0.00     0.051 C 
HETATM   24  C   UNL     1      43.738 -19.367   3.081  1.00  0.00     0.012 A 
HETATM   25  C   UNL     1      43.742 -20.349   1.967  1.00  0.00     0.068 C 
HETATM   26  C   UNL     1      43.743 -16.367   6.606  1.00  0.00     0.002 A 
HETATM   27  C   UNL     1      43.360 -15.504   5.580  1.00  0.00     0.019 A 
HETATM   28  H   UNL     1      43.208 -17.632   1.958  1.00  0.00     0.166 HD
ENDBRANCH   2  17
TORSDOF 4
ENDMDL
MODEL 4
REMARK VINA RESULT:      -8.3      1.972      9.345
REMARK  4 active torsions:
REMARK  status: ('A' for Active; 'I' for Inactive)
REMARK    1  A    between atoms: C_2  and  C_3 
REMARK    2  A    between atoms: C_6  and  C_7 
REMARK       I    between atoms: C_7  and  N_8 
REMARK    3  A    between atoms: N_8  and  N_9 
REMARK       I    between atoms: N_9  and  C_10 
REMARK    4  A    between atoms: C_10  and  C_11 
ROOT
HETATM    1  N   UNL     1      43.248 -10.998   7.671  1.00  0.00    -0.263 N 
HETATM    2  C   UNL     1      43.841 -10.525   8.824  1.00  0.00     0.272 C 
HETATM    3  O   UNL     1      44.661 -11.180   9.465  1.00  0.00    -0.266 OA
HETATM    4  H   UNL     1      42.428 -10.575   7.239  1.00  0.00     0.190 HD
ENDROOT
BRANCH   1   5
HETATM    5  N   UNL     1      43.532 -12.306   7.273  1.00  0.00    -0.263 N 
HETATM    6  C   UNL     1      42.706 -12.888   6.334  1.00  0.00     0.270 C 
HETATM    7  O   UNL     1      41.709 -12.321   5.892  1.00  0.00    -0.266 OA
HETATM    8  H   UNL     1      44.435 -12.678   7.560  1.00  0.00     0.190 HD
BRANCH   6   9
HETATM    9  C   UNL     1      43.098 -14.238   5.845  1.00  0.00     0.033 A 
HETATM   10  C   UNL     1      43.691 -15.195   6.678  1.00  0.00     0.017 A 
HETATM   11  C   UNL     1      44.046 -16.445   6.163  1.00  0.00     0.008 A 
HETATM   12  C   UNL     1      43.813 -16.756   4.817  1.00  0.00    -0.059 A 
HETATM   13  C   UNL     1      43.198 -15.804   3.995  1.00  0.00     0.008 A 
HETATM   14  C   UNL     1      42.840 -14.555   4.506  1.00  0.00     0.017 A 
BRANCH  12  15
HETATM   15  C   UNL     1      44.185 -18.110   4.268  1.00  0.00     0.034 C 
HETATM   16  C   UNL     1      43.571 -18.354   2.898  1.00  0.00     0.010 C 
ENDBRANCH  12  15
ENDBRANCH   6   9
ENDBRANCH   1   5
BRANCH   2  17
HETATM   17  C   UNL     1      43.402  -9.181   9.290  1.00  0.00     0.061 A 
HETATM   18  C   UNL     1      42.469  -9.080  10.339  1.00  0.00     0.059 A 
HETATM   19  C   UNL     1      41.987  -7.861  10.812  1.00  0.00    -0.001 A 
HETATM   20  N   UNL     1      41.860 -10.067  11.079  1.00  0.00    -0.358 N 
HETATM   21  C   UNL     1      41.042  -8.147  11.852  1.00  0.00    -0.027 A 
HETATM   22  C   UNL     1      42.473  -6.676  10.224  1.00  0.00     0.014 A 
HETATM   23  C   UNL     1      40.259  -7.156  12.640  1.00  0.00     0.051 C 
HETATM   24  C   UNL     1      40.987  -9.526  11.987  1.00  0.00     0.012 A 
HETATM   25  C   UNL     1      40.193 -10.396  12.891  1.00  0.00     0.068 C 
HETATM   26  C   UNL     1      43.423  -6.747   9.199  1.00  0.00     0.002 A 
HETATM   27  C   UNL     1      43.882  -7.981   8.740  1.00  0.00     0.019 A 
HETATM   28  H   UNL     1      42.058 -11.054  10.953  1.00  0.00     0.166 HD
ENDBRANCH   2  17
TORSDOF 4
ENDMDL
MODEL 5
REMARK VINA RESULT:      -8.2      6.300      9.518
REMARK  4 active torsions:
REMARK  status: ('A' for Active; 'I' for Inactive)
REMARK    1  A    between atoms: C_2  and  C_3 
REMARK    2  A    between atoms: C_6  and  C_7 
REMARK       I    between atoms: C_7  and  N_8 
REMARK    3  A    between atoms: N_8  and  N_9 
REMARK       I    between atoms: N_9  and  C_10 
REMARK    4  A    between atoms: C_10  and  C_11 
ROOT
HETATM    1  N   UNL     1      42.043 -13.788   0.945  1.00  0.00    -0.263 N 
HETATM    2  C   UNL     1      40.769 -13.590   0.456  1.00  0.00     0.272 C 
HETATM    3  O   UNL     1      39.933 -14.491   0.399  1.00  0.00    -0.266 OA
HETATM    4  H   UNL     1      42.810 -13.130   0.817  1.00  0.00     0.190 HD
ENDROOT
BRANCH   1   5
HETATM    5  N   UNL     1      42.417 -15.084   1.308  1.00  0.00    -0.263 N 
HETATM    6  C   UNL     1      42.950 -15.274   2.565  1.00  0.00     0.270 C 
HETATM    7  O   UNL     1      43.159 -14.342   3.340  1.00  0.00    -0.266 OA
HETATM    8  H   UNL     1      42.101 -15.831   0.694  1.00  0.00     0.190 HD
BRANCH   6   9
HETATM    9  C   UNL     1      43.233 -16.679   2.966  1.00  0.00     0.033 A 
HETATM   10  C   UNL     1      43.713 -17.015   4.237  1.00  0.00     0.017 A 
HETATM   11  C   UNL     1      43.970 -18.351   4.557  1.00  0.00     0.008 A 
HETATM   12  C   UNL     1      43.751 -19.366   3.617  1.00  0.00    -0.059 A 
HETATM   13  C   UNL     1      43.249 -19.027   2.353  1.00  0.00     0.008 A 
HETATM   14  C   UNL     1      42.989 -17.694   2.032  1.00  0.00     0.017 A 
BRANCH  12  15
HETATM   15  C   UNL     1      44.017 -20.808   3.969  1.00  0.00     0.034 C 
HETATM   16  C   UNL     1      44.132 -21.012   5.471  1.00  0.00     0.010 C 
ENDBRANCH  12  15
ENDBRANCH   6   9
ENDBRANCH   1   5
BRANCH   2  17
HETATM   17  C   UNL     1      40.459 -12.226  -0.052  1.00  0.00     0.061 A 
HETATM   18  C   UNL     1      39.397 -12.047  -0.957  1.00  0.00     0.059 A 
HETATM   19  C   UNL     1      39.063 -10.808  -1.500  1.00  0.00    -0.001 A 
HETATM   20  N   UNL     1      38.517 -12.965  -1.481  1.00  0.00    -0.358 N 
HETATM   21  C   UNL     1      37.960 -11.012  -2.394  1.00  0.00    -0.027 A 
HETATM   22  C   UNL     1      39.812  -9.680  -1.106  1.00  0.00     0.014 A 
HETATM   23  C   UNL     1      37.275  -9.976  -3.214  1.00  0.00     0.051 C 
HETATM   24  C   UNL     1      37.652 -12.364  -2.359  1.00  0.00     0.012 A 
HETATM   25  C   UNL     1      36.617 -13.156  -3.071  1.00  0.00     0.068 C 
HETATM   26  C   UNL     1      40.854  -9.826  -0.184  1.00  0.00     0.002 A 
HETATM   27  C   UNL     1      41.172 -11.080   0.337  1.00  0.00     0.019 A 
HETATM   28  H   UNL     1      38.525 -13.946  -1.226  1.00  0.00     0.166 HD
ENDBRANCH   2  17
TORSDOF 4
ENDMDL
MODEL 6
REMARK VINA RESULT:      -8.1      2.152      3.357
REMARK  4 active torsions:
REMARK  status: ('A' for Active; 'I' for Inactive)
REMARK    1  A    between atoms: C_2  and  C_3 
REMARK    2  A    between atoms: C_6  and  C_7 
REMARK       I    between atoms: C_7  and  N_8 
REMARK    3  A    between atoms: N_8  and  N_9 
REMARK       I    between atoms: N_9  and  C_10 
REMARK    4  A    between atoms: C_10  and  C_11 
ROOT
HETATM    1  N   UNL     1      43.062 -10.656   7.773  1.00  0.00    -0.263 N 
HETATM    2  C   UNL     1      42.119 -10.670   6.767  1.00  0.00     0.272 C 
HETATM    3  O   UNL     1      41.020 -10.128   6.880  1.00  0.00    -0.266 OA
HETATM    4  H   UNL     1      43.883 -11.259   7.791  1.00  0.00     0.190 HD
ENDROOT
BRANCH   1   5
HETATM    5  N   UNL     1      42.714 -10.076   8.996  1.00  0.00    -0.263 N 
HETATM    6  C   UNL     1      43.528 -10.322  10.081  1.00  0.00     0.270 C 
HETATM    7  O   UNL     1      44.499 -11.074  10.019  1.00  0.00    -0.266 OA
HETATM    8  H   UNL     1      41.991  -9.361   8.964  1.00  0.00     0.190 HD
BRANCH   6   9
HETATM    9  C   UNL     1      43.198  -9.602  11.341  1.00  0.00     0.033 A 
HETATM   10  C   UNL     1      42.714 -10.260  12.478  1.00  0.00     0.017 A 
HETATM   11  C   UNL     1      42.413  -9.532  13.632  1.00  0.00     0.008 A 
HETATM   12  C   UNL     1      42.591  -8.143  13.667  1.00  0.00    -0.059 A 
HETATM   13  C   UNL     1      43.098  -7.492  12.535  1.00  0.00     0.008 A 
HETATM   14  C   UNL     1      43.402  -8.217  11.382  1.00  0.00     0.017 A 
BRANCH  12  15
HETATM   15  C   UNL     1      42.277  -7.362  14.919  1.00  0.00     0.034 C 
HETATM   16  C   UNL     1      41.257  -8.076  15.791  1.00  0.00     0.010 C 
ENDBRANCH  12  15
ENDBRANCH   6   9
ENDBRANCH   1   5
BRANCH   2  17
HETATM   17  C   UNL     1      42.478 -11.422   5.533  1.00  0.00     0.061 A 
HETATM   18  C   UNL     1      42.502 -12.829   5.560  1.00  0.00     0.059 A 
HETATM   19  C   UNL     1      42.856 -13.603   4.457  1.00  0.00    -0.001 A 
HETATM   20  N   UNL     1      42.213 -13.699   6.586  1.00  0.00    -0.358 N 
HETATM   21  C   UNL     1      42.796 -14.978   4.860  1.00  0.00    -0.027 A 
HETATM   22  C   UNL     1      43.185 -12.945   3.255  1.00  0.00     0.014 A 
HETATM   23  C   UNL     1      43.107 -16.166   4.018  1.00  0.00     0.051 C 
HETATM   24  C   UNL     1      42.398 -14.998   6.188  1.00  0.00     0.012 A 
HETATM   25  C   UNL     1      42.167 -16.123   7.130  1.00  0.00     0.068 C 
HETATM   26  C   UNL     1      43.141 -11.547   3.193  1.00  0.00     0.002 A 
HETATM   27  C   UNL     1      42.791 -10.797   4.316  1.00  0.00     0.019 A 
HETATM   28  H   UNL     1      41.900 -13.392   7.500  1.00  0.00     0.166 HD
ENDBRANCH   2  17
TORSDOF 4
ENDMDL
MODEL 7
REMARK VINA RESULT:      -8.1      1.823      9.102
REMARK  4 active torsions:
REMARK  status: ('A' for Active; 'I' for Inactive)
REMARK    1  A    between atoms: C_2  and  C_3 
REMARK    2  A    between atoms: C_6  and  C_7 
REMARK       I    between atoms: C_7  and  N_8 
REMARK    3  A    between atoms: N_8  and  N_9 
REMARK       I    between atoms: N_9  and  C_10 
REMARK    4  A    between atoms: C_10  and  C_11 
ROOT
HETATM    1  N   UNL     1      41.926 -12.630   5.539  1.00  0.00    -0.263 N 
HETATM    2  C   UNL     1      42.918 -11.866   6.117  1.00  0.00     0.272 C 
HETATM    3  O   UNL     1      44.047 -12.302   6.339  1.00  0.00    -0.266 OA
HETATM    4  H   UNL     1      40.940 -12.371   5.532  1.00  0.00     0.190 HD
ENDROOT
BRANCH   1   5
HETATM    5  N   UNL     1      42.196 -13.976   5.278  1.00  0.00    -0.263 N 
HETATM    6  C   UNL     1      42.543 -14.326   3.990  1.00  0.00     0.270 C 
HETATM    7  O   UNL     1      42.560 -13.512   3.068  1.00  0.00    -0.266 OA
HETATM    8  H   UNL     1      42.302 -14.578   6.091  1.00  0.00     0.190 HD
BRANCH   6   9
HETATM    9  C   UNL     1      42.936 -15.744   3.766  1.00  0.00     0.033 A 
HETATM   10  C   UNL     1      43.575 -16.510   4.748  1.00  0.00     0.017 A 
HETATM   11  C   UNL     1      43.929 -17.835   4.481  1.00  0.00     0.008 A 
HETATM   12  C   UNL     1      43.649 -18.412   3.235  1.00  0.00    -0.059 A 
HETATM   13  C   UNL     1      42.988 -17.648   2.264  1.00  0.00     0.008 A 
HETATM   14  C   UNL     1      42.631 -16.325   2.529  1.00  0.00     0.017 A 
BRANCH  12  15
HETATM   15  C   UNL     1      44.020 -19.846   2.953  1.00  0.00     0.034 C 
HETATM   16  C   UNL     1      43.308 -20.384   1.722  1.00  0.00     0.010 C 
ENDBRANCH  12  15
ENDBRANCH   6   9
ENDBRANCH   1   5
BRANCH   2  17
HETATM   17  C   UNL     1      42.543 -10.480   6.509  1.00  0.00     0.061 A 
HETATM   18  C   UNL     1      42.809 -10.032   7.816  1.00  0.00     0.059 A 
HETATM   19  C   UNL     1      42.462  -8.761   8.269  1.00  0.00    -0.001 A 
HETATM   20  N   UNL     1      43.416 -10.681   8.867  1.00  0.00    -0.358 N 
HETATM   21  C   UNL     1      42.859  -8.670   9.644  1.00  0.00    -0.027 A 
HETATM   22  C   UNL     1      41.834  -7.878   7.367  1.00  0.00     0.014 A 
HETATM   23  C   UNL     1      42.676  -7.502  10.548  1.00  0.00     0.051 C 
HETATM   24  C   UNL     1      43.443  -9.882   9.981  1.00  0.00     0.012 A 
HETATM   25  C   UNL     1      44.033 -10.370  11.254  1.00  0.00     0.068 C 
HETATM   26  C   UNL     1      41.584  -8.288   6.053  1.00  0.00     0.002 A 
HETATM   27  C   UNL     1      41.934  -9.570   5.629  1.00  0.00     0.019 A 
HETATM   28  H   UNL     1      43.790 -11.620   8.795  1.00  0.00     0.166 HD
ENDBRANCH   2  17
TORSDOF 4
ENDMDL
MODEL 8
REMARK VINA RESULT:      -8.1      2.232      8.840
REMARK  4 active torsions:
REMARK  status: ('A' for Active; 'I' for Inactive)
REMARK    1  A    between atoms: C_2  and  C_3 
REMARK    2  A    between atoms: C_6  and  C_7 
REMARK       I    between atoms: C_7  and  N_8 
REMARK    3  A    between atoms: N_8  and  N_9 
REMARK       I    between atoms: N_9  and  C_10 
REMARK    4  A    between atoms: C_10  and  C_11 
ROOT
HETATM    1  N   UNL     1      41.722 -13.615   6.210  1.00  0.00    -0.263 N 
HETATM    2  C   UNL     1      41.673 -12.435   5.498  1.00  0.00     0.272 C 
HETATM    3  O   UNL     1      41.776 -12.394   4.272  1.00  0.00    -0.266 OA
HETATM    4  H   UNL     1      41.846 -13.665   7.220  1.00  0.00     0.190 HD
ENDROOT
BRANCH   1   5
HETATM    5  N   UNL     1      41.988 -14.796   5.512  1.00  0.00    -0.263 N 
HETATM    6  C   UNL     1      43.185 -15.435   5.757  1.00  0.00     0.270 C 
HETATM    7  O   UNL     1      44.037 -14.970   6.512  1.00  0.00    -0.266 OA
HETATM    8  H   UNL     1      41.204 -15.206   5.009  1.00  0.00     0.190 HD
BRANCH   6   9
HETATM    9  C   UNL     1      43.392 -16.747   5.086  1.00  0.00     0.033 A 
HETATM   10  C   UNL     1      43.833 -17.882   5.777  1.00  0.00     0.017 A 
HETATM   11  C   UNL     1      44.018 -19.088   5.095  1.00  0.00     0.008 A 
HETATM   12  C   UNL     1      43.764 -19.177   3.720  1.00  0.00    -0.059 A 
HETATM   13  C   UNL     1      43.300 -18.045   3.038  1.00  0.00     0.008 A 
HETATM   14  C   UNL     1      43.112 -16.839   3.717  1.00  0.00     0.017 A 
BRANCH  12  15
HETATM   15  C   UNL     1      43.952 -20.483   2.989  1.00  0.00     0.034 C 
HETATM   16  C   UNL     1      43.420 -20.416   1.566  1.00  0.00     0.010 C 
ENDBRANCH  12  15
ENDBRANCH   6   9
ENDBRANCH   1   5
BRANCH   2  17
HETATM   17  C   UNL     1      41.531 -11.186   6.295  1.00  0.00     0.061 A 
HETATM   18  C   UNL     1      42.668 -10.610   6.891  1.00  0.00     0.059 A 
HETATM   19  C   UNL     1      42.614  -9.460   7.677  1.00  0.00    -0.001 A 
HETATM   20  N   UNL     1      43.985 -11.007   6.852  1.00  0.00    -0.358 N 
HETATM   21  C   UNL     1      43.946  -9.188   8.133  1.00  0.00    -0.027 A 
HETATM   22  C   UNL     1      41.364  -8.836   7.863  1.00  0.00     0.014 A 
HETATM   23  C   UNL     1      44.372  -8.066   9.015  1.00  0.00     0.051 C 
HETATM   24  C   UNL     1      44.768 -10.171   7.605  1.00  0.00     0.012 A 
HETATM   25  C   UNL     1      46.228 -10.407   7.734  1.00  0.00     0.068 C 
HETATM   26  C   UNL     1      40.222  -9.371   7.257  1.00  0.00     0.002 A 
HETATM   27  C   UNL     1      40.304 -10.529   6.483  1.00  0.00     0.019 A 
HETATM   28  H   UNL     1      44.304 -11.810   6.321  1.00  0.00     0.166 HD
ENDBRANCH   2  17
TORSDOF 4
ENDMDL
MODEL 9
REMARK VINA RESULT:      -8.0      5.183      9.366
REMARK  4 active torsions:
REMARK  status: ('A' for Active; 'I' for Inactive)
REMARK    1  A    between atoms: C_2  and  C_3 
REMARK    2  A    between atoms: C_6  and  C_7 
REMARK       I    between atoms: C_7  and  N_8 
REMARK    3  A    between atoms: N_8  and  N_9 
REMARK       I    between atoms: N_9  and  C_10 
REMARK    4  A    between atoms: C_10  and  C_11 
ROOT
HETATM    1  N   UNL     1      41.650 -14.889   0.460  1.00  0.00    -0.263 N 
HETATM    2  C   UNL     1      41.609 -14.806   1.836  1.00  0.00     0.272 C 
HETATM    3  O   UNL     1      41.020 -13.902   2.429  1.00  0.00    -0.266 OA
HETATM    4  H   UNL     1      42.289 -15.493  -0.054  1.00  0.00     0.190 HD
ENDROOT
BRANCH   1   5
HETATM    5  N   UNL     1      41.070 -13.857  -0.281  1.00  0.00    -0.263 N 
HETATM    6  C   UNL     1      39.873 -14.113  -0.918  1.00  0.00     0.270 C 
HETATM    7  O   UNL     1      39.343 -15.222  -0.902  1.00  0.00    -0.266 OA
HETATM    8  H   UNL     1      41.470 -12.931  -0.152  1.00  0.00     0.190 HD
BRANCH   6   9
HETATM    9  C   UNL     1      39.223 -12.964  -1.605  1.00  0.00     0.033 A 
HETATM   10  C   UNL     1      37.854 -12.942  -1.897  1.00  0.00     0.017 A 
HETATM   11  C   UNL     1      37.296 -11.840  -2.551  1.00  0.00     0.008 A 
HETATM   12  C   UNL     1      38.095 -10.749  -2.920  1.00  0.00    -0.059 A 
HETATM   13  C   UNL     1      39.460 -10.767  -2.605  1.00  0.00     0.008 A 
HETATM   14  C   UNL     1      40.019 -11.865  -1.949  1.00  0.00     0.017 A 
BRANCH  12  15
HETATM   15  C   UNL     1      37.489  -9.556  -3.615  1.00  0.00     0.034 C 
HETATM   16  C   UNL     1      35.972  -9.652  -3.686  1.00  0.00     0.010 C 
ENDBRANCH  12  15
ENDBRANCH   6   9
ENDBRANCH   1   5
BRANCH   2  17
HETATM   17  C   UNL     1      42.361 -15.849   2.585  1.00  0.00     0.061 A 
HETATM   18  C   UNL     1      42.823 -15.573   3.885  1.00  0.00     0.059 A 
HETATM   19  C   UNL     1      43.559 -16.485   4.639  1.00  0.00    -0.001 A 
HETATM   20  N   UNL     1      42.679 -14.441   4.654  1.00  0.00    -0.358 N 
HETATM   21  C   UNL     1      43.878 -15.854   5.887  1.00  0.00    -0.027 A 
HETATM   22  C   UNL     1      43.834 -17.749   4.079  1.00  0.00     0.014 A 
HETATM   23  C   UNL     1      44.666 -16.441   7.006  1.00  0.00     0.051 C 
HETATM   24  C   UNL     1      43.319 -14.585   5.858  1.00  0.00     0.012 A 
HETATM   25  C   UNL     1      43.321 -13.485   6.855  1.00  0.00     0.068 C 
HETATM   26  C   UNL     1      43.360 -18.060   2.800  1.00  0.00     0.002 A 
HETATM   27  C   UNL     1      42.633 -17.124   2.064  1.00  0.00     0.019 A 
HETATM   28  H   UNL     1      42.156 -13.628   4.347  1.00  0.00     0.166 HD
ENDBRANCH   2  17
TORSDOF 4
ENDMDL
MODEL 10
REMARK VINA RESULT:      -8.0      6.002      9.271
REMARK  4 active torsions:
REMARK  status: ('A' for Active; 'I' for Inactive)
REMARK    1  A    between atoms: C_2  and  C_3 
REMARK    2  A    between atoms: C_6  and  C_7 
REMARK       I    between atoms: C_7  and  N_8 
REMARK    3  A    between atoms: N_8  and  N_9 
REMARK       I    between atoms: N_9  and  C_10 
REMARK    4  A    between atoms: C_10  and  C_11 
ROOT
HETATM    1  N   UNL     1      41.623 -14.064   0.392  1.00  0.00    -0.263 N 
HETATM    2  C   UNL     1      40.382 -14.141  -0.204  1.00  0.00     0.272 C 
HETATM    3  O   UNL     1      39.664 -15.137  -0.116  1.00  0.00    -0.266 OA
HETATM    4  H   UNL     1      42.316 -13.351   0.171  1.00  0.00     0.190 HD
ENDROOT
BRANCH   1   5
HETATM    5  N   UNL     1      42.113 -15.198   1.046  1.00  0.00    -0.263 N 
HETATM    6  C   UNL     1      42.767 -15.018   2.246  1.00  0.00     0.270 C 
HETATM    7  O   UNL     1      42.981 -13.903   2.719  1.00  0.00    -0.266 OA
HETATM    8  H   UNL     1      41.794 -16.095   0.688  1.00  0.00     0.190 HD
BRANCH   6   9
HETATM    9  C   UNL     1      43.177 -16.249   2.975  1.00  0.00     0.033 A 
HETATM   10  C   UNL     1      43.496 -16.244   4.338  1.00  0.00     0.017 A 
HETATM   11  C   UNL     1      43.883 -17.428   4.970  1.00  0.00     0.008 A 
HETATM   12  C   UNL     1      43.956 -18.630   4.253  1.00  0.00    -0.059 A 
HETATM   13  C   UNL     1      43.614 -18.634   2.895  1.00  0.00     0.008 A 
HETATM   14  C   UNL     1      43.224 -17.453   2.261  1.00  0.00     0.017 A 
BRANCH  12  15
HETATM   15  C   UNL     1      44.361 -19.909   4.941  1.00  0.00     0.034 C 
HETATM   16  C   UNL     1      43.889 -21.137   4.177  1.00  0.00     0.010 C 
ENDBRANCH  12  15
ENDBRANCH   6   9
ENDBRANCH   1   5
BRANCH   2  17
HETATM   17  C   UNL     1      39.960 -12.963  -1.009  1.00  0.00     0.061 A 
HETATM   18  C   UNL     1      39.398 -11.845  -0.364  1.00  0.00     0.059 A 
HETATM   19  C   UNL     1      38.952 -10.718  -1.050  1.00  0.00    -0.001 A 
HETATM   20  N   UNL     1      39.171 -11.618   0.974  1.00  0.00    -0.358 N 
HETATM   21  C   UNL     1      38.421  -9.805  -0.078  1.00  0.00    -0.027 A 
HETATM   22  C   UNL     1      39.089 -10.689  -2.452  1.00  0.00     0.014 A 
HETATM   23  C   UNL     1      37.816  -8.472  -0.347  1.00  0.00     0.051 C 
HETATM   24  C   UNL     1      38.571 -10.401   1.165  1.00  0.00     0.012 A 
HETATM   25  C   UNL     1      38.207  -9.937   2.528  1.00  0.00     0.068 C 
HETATM   26  C   UNL     1      39.671 -11.775  -3.116  1.00  0.00     0.002 A 
HETATM   27  C   UNL     1      40.101 -12.895  -2.405  1.00  0.00     0.019 A 
HETATM   28  H   UNL     1      39.432 -12.278   1.699  1.00  0.00     0.166 HD
ENDBRANCH   2  17
TORSDOF 4
ENDMDL
