MODEL 1
REMARK VINA RESULT:      -7.6      0.000      0.000
REMARK  4 active torsions:
REMARK  status: ('A' for Active; 'I' for Inactive)
REMARK    1  A    between atoms: C_3  and  N_4 
REMARK    2  A    between atoms: C_5  and  C_6 
REMARK    3  A    between atoms: C_13  and  N_14 
REMARK       I    between atoms: N_14  and  C_15 
REMARK    4  A    between atoms: C_15  and  C_16 
ROOT
HETATM    1  C   UNL     1      42.675 -13.248   3.866  1.00  0.00     0.005 A 
HETATM    2  C   UNL     1      42.747 -14.638   3.932  1.00  0.00     0.031 A 
HETATM    3  C   UNL     1      43.139 -15.271   5.113  1.00  0.00     0.058 A 
HETATM    4  C   UNL     1      43.440 -14.492   6.240  1.00  0.00     0.061 A 
HETATM    5  C   UNL     1      43.386 -13.097   6.184  1.00  0.00     0.037 A 
HETATM    6  C   UNL     1      42.995 -12.482   4.988  1.00  0.00     0.029 A 
ENDROOT
BRANCH   5   7
HETATM    7  N   UNL     1      43.694 -12.253   7.267  1.00  0.00    -0.321 N 
HETATM    8  C   UNL     1      44.825 -11.476   7.455  1.00  0.00     0.279 C 
HETATM    9  O   UNL     1      45.756 -11.371   6.665  1.00  0.00    -0.265 OA
HETATM   10  H   UNL     1      42.999 -12.170   8.002  1.00  0.00     0.169 HD
BRANCH   8  11
HETATM   11  C   UNL     1      44.796 -10.748   8.713  1.00  0.00     0.142 A 
HETATM   12  O   UNL     1      43.991 -11.191   9.733  1.00  0.00    -0.317 OA
HETATM   13  C   UNL     1      44.164 -10.340  10.777  1.00  0.00     0.143 A 
HETATM   14  C   UNL     1      45.062  -9.351  10.451  1.00  0.00     0.027 A 
HETATM   15  C   UNL     1      45.471  -9.613   9.121  1.00  0.00     0.045 A 
ENDBRANCH   8  11
ENDBRANCH   5   7
BRANCH   3  16
HETATM   16  N   UNL     1      43.157 -16.675   5.148  1.00  0.00    -0.259 NA
HETATM   17  C   UNL     1      43.812 -17.279   4.210  1.00  0.00     0.146 C 
BRANCH  17  18
HETATM   18  C   UNL     1      43.873 -18.715   4.207  1.00  0.00     0.049 A 
HETATM   19  N   UNL     1      44.029 -19.470   5.346  1.00  0.00    -0.365 N 
HETATM   20  H   UNL     1      44.115 -19.070   6.273  1.00  0.00     0.165 HD
HETATM   21  C   UNL     1      44.050 -20.802   5.028  1.00  0.00     0.088 A 
HETATM   22  C   UNL     1      43.914 -20.911   3.662  1.00  0.00     0.019 A 
HETATM   23  C   UNL     1      43.801 -19.596   3.144  1.00  0.00     0.032 A 
ENDBRANCH  17  18
ENDBRANCH   3  16
TORSDOF 4
ENDMDL
MODEL 2
REMARK VINA RESULT:      -7.3      2.786      8.453
REMARK  4 active torsions:
REMARK  status: ('A' for Active; 'I' for Inactive)
REMARK    1  A    between atoms: C_3  and  N_4 
REMARK    2  A    between atoms: C_5  and  C_6 
REMARK    3  A    between atoms: C_13  and  N_14 
REMARK       I    between atoms: N_14  and  C_15 
REMARK    4  A    between atoms: C_15  and  C_16 
ROOT
HETATM    1  C   UNL     1      40.407 -13.912   5.634  1.00  0.00     0.005 A 
HETATM    2  C   UNL     1      41.352 -12.937   5.950  1.00  0.00     0.031 A 
HETATM    3  C   UNL     1      42.705 -13.148   5.679  1.00  0.00     0.058 A 
HETATM    4  C   UNL     1      43.102 -14.345   5.065  1.00  0.00     0.061 A 
HETATM    5  C   UNL     1      42.167 -15.337   4.756  1.00  0.00     0.037 A 
HETATM    6  C   UNL     1      40.816 -15.107   5.040  1.00  0.00     0.029 A 
ENDROOT
BRANCH   5   7
HETATM    7  N   UNL     1      42.496 -16.569   4.159  1.00  0.00    -0.321 N 
HETATM    8  C   UNL     1      43.518 -17.440   4.498  1.00  0.00     0.279 C 
HETATM    9  O   UNL     1      44.306 -17.287   5.425  1.00  0.00    -0.265 OA
HETATM   10  H   UNL     1      41.905 -16.889   3.400  1.00  0.00     0.169 HD
BRANCH   8  11
HETATM   11  C   UNL     1      43.558 -18.611   3.637  1.00  0.00     0.142 A 
HETATM   12  O   UNL     1      43.998 -19.808   4.144  1.00  0.00    -0.317 OA
HETATM   13  C   UNL     1      43.926 -20.718   3.138  1.00  0.00     0.143 A 
HETATM   14  C   UNL     1      43.452 -20.132   1.988  1.00  0.00     0.027 A 
HETATM   15  C   UNL     1      43.215 -18.773   2.309  1.00  0.00     0.045 A 
ENDBRANCH   8  11
ENDBRANCH   5   7
BRANCH   3  16
HETATM   16  N   UNL     1      43.617 -12.122   5.975  1.00  0.00    -0.259 NA
HETATM   17  C   UNL     1      43.774 -11.816   7.222  1.00  0.00     0.146 C 
BRANCH  17  18
HETATM   18  C   UNL     1      44.705 -10.781   7.582  1.00  0.00     0.049 A 
HETATM   19  N   UNL     1      44.335  -9.611   8.203  1.00  0.00    -0.365 N 
HETATM   20  H   UNL     1      43.378  -9.390   8.452  1.00  0.00     0.165 HD
HETATM   21  C   UNL     1      45.435  -8.825   8.418  1.00  0.00     0.088 A 
HETATM   22  C   UNL     1      46.533  -9.492   7.922  1.00  0.00     0.019 A 
HETATM   23  C   UNL     1      46.074 -10.725   7.395  1.00  0.00     0.032 A 
ENDBRANCH  17  18
ENDBRANCH   3  16
TORSDOF 4
ENDMDL
MODEL 3
REMARK VINA RESULT:      -7.2      1.419      1.866
REMARK  4 active torsions:
REMARK  status: ('A' for Active; 'I' for Inactive)
REMARK    1  A    between atoms: C_3  and  N_4 
REMARK    2  A    between atoms: C_5  and  C_6 
REMARK    3  A    between atoms: C_13  and  N_14 
REMARK       I    between atoms: N_14  and  C_15 
REMARK    4  A    between atoms: C_15  and  C_16 
ROOT
HETATM    1  C   UNL     1      40.821 -13.130   3.119  1.00  0.00     0.005 A 
HETATM    2  C   UNL     1      41.003 -14.495   2.897  1.00  0.00     0.031 A 
HETATM    3  C   UNL     1      42.029 -15.186   3.543  1.00  0.00     0.058 A 
HETATM    4  C   UNL     1      42.862 -14.496   4.437  1.00  0.00     0.061 A 
HETATM    5  C   UNL     1      42.701 -13.126   4.657  1.00  0.00     0.037 A 
HETATM    6  C   UNL     1      41.668 -12.450   3.996  1.00  0.00     0.029 A 
ENDROOT
BRANCH   5   7
HETATM    7  N   UNL     1      43.512 -12.367   5.522  1.00  0.00    -0.321 N 
HETATM    8  C   UNL     1      43.890 -12.661   6.821  1.00  0.00     0.279 C 
HETATM    9  O   UNL     1      43.595 -13.680   7.436  1.00  0.00    -0.265 OA
HETATM   10  H   UNL     1      43.900 -11.504   5.155  1.00  0.00     0.169 HD
BRANCH   8  11
HETATM   11  C   UNL     1      44.722 -11.623   7.406  1.00  0.00     0.142 A 
HETATM   12  O   UNL     1      44.481 -11.207   8.692  1.00  0.00    -0.317 OA
HETATM   13  C   UNL     1      45.398 -10.248   8.980  1.00  0.00     0.143 A 
HETATM   14  C   UNL     1      46.225 -10.030   7.904  1.00  0.00     0.027 A 
HETATM   15  C   UNL     1      45.791 -10.916   6.888  1.00  0.00     0.045 A 
ENDBRANCH   8  11
ENDBRANCH   5   7
BRANCH   3  16
HETATM   16  N   UNL     1      42.150 -16.568   3.324  1.00  0.00    -0.259 NA
HETATM   17  C   UNL     1      43.325 -17.087   3.476  1.00  0.00     0.146 C 
BRANCH  17  18
HETATM   18  C   UNL     1      43.502 -18.499   3.276  1.00  0.00     0.049 A 
HETATM   19  N   UNL     1      43.983 -19.348   4.246  1.00  0.00    -0.365 N 
HETATM   20  H   UNL     1      44.250 -19.041   5.174  1.00  0.00     0.165 HD
HETATM   21  C   UNL     1      44.039 -20.628   3.764  1.00  0.00     0.088 A 
HETATM   22  C   UNL     1      43.596 -20.608   2.460  1.00  0.00     0.019 A 
HETATM   23  C   UNL     1      43.257 -19.267   2.152  1.00  0.00     0.032 A 
ENDBRANCH  17  18
ENDBRANCH   3  16
TORSDOF 4
ENDMDL
MODEL 4
REMARK VINA RESULT:      -7.1      4.162      5.823
REMARK  4 active torsions:
REMARK  status: ('A' for Active; 'I' for Inactive)
REMARK    1  A    between atoms: C_3  and  N_4 
REMARK    2  A    between atoms: C_5  and  C_6 
REMARK    3  A    between atoms: C_13  and  N_14 
REMARK       I    between atoms: N_14  and  C_15 
REMARK    4  A    between atoms: C_15  and  C_16 
ROOT
HETATM    1  C   UNL     1      42.342 -16.738   3.423  1.00  0.00     0.005 A 
HETATM    2  C   UNL     1      41.355 -16.341   2.523  1.00  0.00     0.031 A 
HETATM    3  C   UNL     1      41.015 -14.994   2.393  1.00  0.00     0.058 A 
HETATM    4  C   UNL     1      41.695 -14.040   3.165  1.00  0.00     0.061 A 
HETATM    5  C   UNL     1      42.676 -14.425   4.082  1.00  0.00     0.037 A 
HETATM    6  C   UNL     1      42.999 -15.782   4.199  1.00  0.00     0.029 A 
ENDROOT
BRANCH   5   7
HETATM    7  N   UNL     1      43.383 -13.526   4.902  1.00  0.00    -0.321 N 
HETATM    8  C   UNL     1      43.433 -13.484   6.286  1.00  0.00     0.279 C 
HETATM    9  O   UNL     1      42.875 -14.272   7.042  1.00  0.00    -0.265 OA
HETATM   10  H   UNL     1      43.956 -12.828   4.439  1.00  0.00     0.169 HD
BRANCH   8  11
HETATM   11  C   UNL     1      44.257 -12.394   6.780  1.00  0.00     0.142 A 
HETATM   12  O   UNL     1      44.074 -11.934   8.059  1.00  0.00    -0.317 OA
HETATM   13  C   UNL     1      44.969 -10.932   8.256  1.00  0.00     0.143 A 
HETATM   14  C   UNL     1      45.726 -10.731   7.126  1.00  0.00     0.027 A 
HETATM   15  C   UNL     1      45.268 -11.673   6.173  1.00  0.00     0.045 A 
ENDBRANCH   8  11
ENDBRANCH   5   7
BRANCH   3  16
HETATM   16  N   UNL     1      40.045 -14.634   1.444  1.00  0.00    -0.259 NA
HETATM   17  C   UNL     1      40.452 -14.437   0.232  1.00  0.00     0.146 C 
BRANCH  17  18
HETATM   18  C   UNL     1      39.498 -14.079  -0.782  1.00  0.00     0.049 A 
HETATM   19  N   UNL     1      38.650 -13.000  -0.678  1.00  0.00    -0.365 N 
HETATM   20  H   UNL     1      38.633 -12.379   0.122  1.00  0.00     0.165 HD
HETATM   21  C   UNL     1      37.862 -12.914  -1.794  1.00  0.00     0.088 A 
HETATM   22  C   UNL     1      38.199 -13.955  -2.630  1.00  0.00     0.019 A 
HETATM   23  C   UNL     1      39.230 -14.690  -1.993  1.00  0.00     0.032 A 
ENDBRANCH  17  18
ENDBRANCH   3  16
TORSDOF 4
ENDMDL
MODEL 5
REMARK VINA RESULT:      -7.1      2.811      4.450
REMARK  4 active torsions:
REMARK  status: ('A' for Active; 'I' for Inactive)
REMARK    1  A    between atoms: C_3  and  N_4 
REMARK    2  A    between atoms: C_5  and  C_6 
REMARK    3  A    between atoms: C_13  and  N_14 
REMARK       I    between atoms: N_14  and  C_15 
REMARK    4  A    between atoms: C_15  and  C_16 
ROOT
HETATM    1  C   UNL     1      43.383 -15.762   5.519  1.00  0.00     0.005 A 
HETATM    2  C   UNL     1      42.867 -15.389   4.278  1.00  0.00     0.031 A 
HETATM    3  C   UNL     1      42.638 -14.045   3.982  1.00  0.00     0.058 A 
HETATM    4  C   UNL     1      42.952 -13.069   4.939  1.00  0.00     0.061 A 
HETATM    5  C   UNL     1      43.456 -13.429   6.192  1.00  0.00     0.037 A 
HETATM    6  C   UNL     1      43.674 -14.784   6.471  1.00  0.00     0.029 A 
ENDROOT
BRANCH   5   7
HETATM    7  N   UNL     1      43.773 -12.507   7.207  1.00  0.00    -0.321 N 
HETATM    8  C   UNL     1      44.857 -11.648   7.277  1.00  0.00     0.279 C 
HETATM    9  O   UNL     1      45.726 -11.528   6.421  1.00  0.00    -0.265 OA
HETATM   10  H   UNL     1      43.122 -12.428   7.982  1.00  0.00     0.169 HD
BRANCH   8  11
HETATM   11  C   UNL     1      44.859 -10.854   8.494  1.00  0.00     0.142 A 
HETATM   12  O   UNL     1      44.062 -11.228   9.547  1.00  0.00    -0.317 OA
HETATM   13  C   UNL     1      44.264 -10.325  10.541  1.00  0.00     0.143 A 
HETATM   14  C   UNL     1      45.172  -9.370  10.151  1.00  0.00     0.027 A 
HETATM   15  C   UNL     1      45.557  -9.710   8.831  1.00  0.00     0.045 A 
ENDBRANCH   8  11
ENDBRANCH   5   7
BRANCH   3  16
HETATM   16  N   UNL     1      42.157 -13.711   2.705  1.00  0.00    -0.259 NA
HETATM   17  C   UNL     1      41.347 -14.549   2.144  1.00  0.00     0.146 C 
BRANCH  17  18
HETATM   18  C   UNL     1      40.815 -14.250   0.842  1.00  0.00     0.049 A 
HETATM   19  N   UNL     1      41.150 -13.123   0.127  1.00  0.00    -0.365 N 
HETATM   20  H   UNL     1      41.795 -12.419   0.465  1.00  0.00     0.165 HD
HETATM   21  C   UNL     1      40.489 -13.115  -1.072  1.00  0.00     0.088 A 
HETATM   22  C   UNL     1      39.708 -14.248  -1.132  1.00  0.00     0.019 A 
HETATM   23  C   UNL     1      39.914 -14.964   0.074  1.00  0.00     0.032 A 
ENDBRANCH  17  18
ENDBRANCH   3  16
TORSDOF 4
ENDMDL
MODEL 6
REMARK VINA RESULT:      -7.1      5.054      8.365
REMARK  4 active torsions:
REMARK  status: ('A' for Active; 'I' for Inactive)
REMARK    1  A    between atoms: C_3  and  N_4 
REMARK    2  A    between atoms: C_5  and  C_6 
REMARK    3  A    between atoms: C_13  and  N_14 
REMARK       I    between atoms: N_14  and  C_15 
REMARK    4  A    between atoms: C_15  and  C_16 
ROOT
HETATM    1  C   UNL     1      42.376 -13.045   3.848  1.00  0.00     0.005 A 
HETATM    2  C   UNL     1      41.484 -12.831   2.798  1.00  0.00     0.031 A 
HETATM    3  C   UNL     1      40.985 -13.906   2.062  1.00  0.00     0.058 A 
HETATM    4  C   UNL     1      41.376 -15.210   2.405  1.00  0.00     0.061 A 
HETATM    5  C   UNL     1      42.281 -15.438   3.445  1.00  0.00     0.037 A 
HETATM    6  C   UNL     1      42.772 -14.344   4.168  1.00  0.00     0.029 A 
ENDROOT
BRANCH   5   7
HETATM    7  N   UNL     1      42.732 -16.714   3.829  1.00  0.00    -0.321 N 
HETATM    8  C   UNL     1      43.339 -17.681   3.046  1.00  0.00     0.279 C 
HETATM    9  O   UNL     1      43.620 -17.562   1.858  1.00  0.00    -0.265 OA
HETATM   10  H   UNL     1      42.632 -16.967   4.807  1.00  0.00     0.169 HD
BRANCH   8  11
HETATM   11  C   UNL     1      43.649 -18.889   3.793  1.00  0.00     0.142 A 
HETATM   12  O   UNL     1      43.645 -20.102   3.151  1.00  0.00    -0.317 OA
HETATM   13  C   UNL     1      43.970 -21.044   4.073  1.00  0.00     0.143 A 
HETATM   14  C   UNL     1      44.180 -20.465   5.303  1.00  0.00     0.027 A 
HETATM   15  C   UNL     1      43.973 -19.075   5.124  1.00  0.00     0.045 A 
ENDBRANCH   8  11
ENDBRANCH   5   7
BRANCH   3  16
HETATM   16  N   UNL     1      40.057 -13.649   1.041  1.00  0.00    -0.259 NA
HETATM   17  C   UNL     1      40.235 -14.260  -0.085  1.00  0.00     0.146 C 
BRANCH  17  18
HETATM   18  C   UNL     1      39.306 -14.042  -1.160  1.00  0.00     0.049 A 
HETATM   19  N   UNL     1      38.278 -13.130  -1.100  1.00  0.00    -0.365 N 
HETATM   20  H   UNL     1      38.097 -12.545  -0.293  1.00  0.00     0.165 HD
HETATM   21  C   UNL     1      37.567 -13.147  -2.269  1.00  0.00     0.088 A 
HETATM   22  C   UNL     1      38.137 -14.089  -3.097  1.00  0.00     0.019 A 
HETATM   23  C   UNL     1      39.234 -14.653  -2.398  1.00  0.00     0.032 A 
ENDBRANCH  17  18
ENDBRANCH   3  16
TORSDOF 4
ENDMDL
MODEL 7
REMARK VINA RESULT:      -6.9      1.551      2.245
REMARK  4 active torsions:
REMARK  status: ('A' for Active; 'I' for Inactive)
REMARK    1  A    between atoms: C_3  and  N_4 
REMARK    2  A    between atoms: C_5  and  C_6 
REMARK    3  A    between atoms: C_13  and  N_14 
REMARK       I    between atoms: N_14  and  C_15 
REMARK    4  A    between atoms: C_15  and  C_16 
ROOT
HETATM    1  C   UNL     1      42.684 -11.094   4.168  1.00  0.00     0.005 A 
HETATM    2  C   UNL     1      42.844 -12.466   3.980  1.00  0.00     0.031 A 
HETATM    3  C   UNL     1      43.068 -13.308   5.071  1.00  0.00     0.058 A 
HETATM    4  C   UNL     1      43.109 -12.760   6.362  1.00  0.00     0.061 A 
HETATM    5  C   UNL     1      42.965 -11.385   6.563  1.00  0.00     0.037 A 
HETATM    6  C   UNL     1      42.746 -10.558   5.454  1.00  0.00     0.029 A 
ENDROOT
BRANCH   5   7
HETATM    7  N   UNL     1      43.016 -10.765   7.825  1.00  0.00    -0.321 N 
HETATM    8  C   UNL     1      44.081 -10.702   8.708  1.00  0.00     0.279 C 
HETATM    9  O   UNL     1      45.199 -11.166   8.509  1.00  0.00    -0.265 OA
HETATM   10  H   UNL     1      42.184 -10.272   8.134  1.00  0.00     0.169 HD
BRANCH   8  11
HETATM   11  C   UNL     1      43.750  -9.988   9.929  1.00  0.00     0.142 A 
HETATM   12  O   UNL     1      43.373  -8.670   9.861  1.00  0.00    -0.317 OA
HETATM   13  C   UNL     1      43.119  -8.261  11.131  1.00  0.00     0.143 A 
HETATM   14  C   UNL     1      43.328  -9.288  12.021  1.00  0.00     0.027 A 
HETATM   15  C   UNL     1      43.735 -10.402  11.248  1.00  0.00     0.045 A 
ENDBRANCH   8  11
ENDBRANCH   5   7
BRANCH   3  16
HETATM   16  N   UNL     1      43.181 -14.689   4.841  1.00  0.00    -0.259 NA
HETATM   17  C   UNL     1      43.096 -15.091   3.615  1.00  0.00     0.146 C 
BRANCH  17  18
HETATM   18  C   UNL     1      43.217 -16.493   3.323  1.00  0.00     0.049 A 
HETATM   19  N   UNL     1      43.822 -17.394   4.169  1.00  0.00    -0.365 N 
HETATM   20  H   UNL     1      44.229 -17.136   5.060  1.00  0.00     0.165 HD
HETATM   21  C   UNL     1      43.785 -18.648   3.622  1.00  0.00     0.088 A 
HETATM   22  C   UNL     1      43.154 -18.559   2.402  1.00  0.00     0.019 A 
HETATM   23  C   UNL     1      42.795 -17.201   2.213  1.00  0.00     0.032 A 
ENDBRANCH  17  18
ENDBRANCH   3  16
TORSDOF 4
ENDMDL
MODEL 8
REMARK VINA RESULT:      -6.9      3.994      8.528
REMARK  4 active torsions:
REMARK  status: ('A' for Active; 'I' for Inactive)
REMARK    1  A    between atoms: C_3  and  N_4 
REMARK    2  A    between atoms: C_5  and  C_6 
REMARK    3  A    between atoms: C_13  and  N_14 
REMARK       I    between atoms: N_14  and  C_15 
REMARK    4  A    between atoms: C_15  and  C_16 
ROOT
HETATM    1  C   UNL     1      43.369 -16.670   4.785  1.00  0.00     0.005 A 
HETATM    2  C   UNL     1      43.601 -15.741   5.799  1.00  0.00     0.031 A 
HETATM    3  C   UNL     1      43.234 -14.405   5.632  1.00  0.00     0.058 A 
HETATM    4  C   UNL     1      42.608 -14.011   4.440  1.00  0.00     0.061 A 
HETATM    5  C   UNL     1      42.383 -14.928   3.410  1.00  0.00     0.037 A 
HETATM    6  C   UNL     1      42.763 -16.263   3.596  1.00  0.00     0.029 A 
ENDROOT
BRANCH   5   7
HETATM    7  N   UNL     1      41.780 -14.599   2.182  1.00  0.00    -0.321 N 
HETATM    8  C   UNL     1      40.522 -14.949   1.722  1.00  0.00     0.279 C 
HETATM    9  O   UNL     1      39.691 -15.599   2.348  1.00  0.00    -0.265 OA
HETATM   10  H   UNL     1      42.309 -14.008   1.549  1.00  0.00     0.169 HD
BRANCH   8  11
HETATM   11  C   UNL     1      40.255 -14.438   0.388  1.00  0.00     0.142 A 
HETATM   12  O   UNL     1      39.502 -15.184  -0.484  1.00  0.00    -0.317 OA
HETATM   13  C   UNL     1      39.407 -14.474  -1.638  1.00  0.00     0.143 A 
HETATM   14  C   UNL     1      40.087 -13.285  -1.532  1.00  0.00     0.027 A 
HETATM   15  C   UNL     1      40.635 -13.260  -0.226  1.00  0.00     0.045 A 
ENDBRANCH   8  11
ENDBRANCH   5   7
BRANCH   3  16
HETATM   16  N   UNL     1      43.447 -13.513   6.695  1.00  0.00    -0.259 NA
HETATM   17  C   UNL     1      44.287 -12.549   6.494  1.00  0.00     0.146 C 
BRANCH  17  18
HETATM   18  C   UNL     1      44.533 -11.599   7.545  1.00  0.00     0.049 A 
HETATM   19  N   UNL     1      43.602 -11.271   8.504  1.00  0.00    -0.365 N 
HETATM   20  H   UNL     1      42.673 -11.674   8.540  1.00  0.00     0.165 HD
HETATM   21  C   UNL     1      44.124 -10.344   9.366  1.00  0.00     0.088 A 
HETATM   22  C   UNL     1      45.408 -10.062   8.956  1.00  0.00     0.019 A 
HETATM   23  C   UNL     1      45.666 -10.853   7.809  1.00  0.00     0.032 A 
ENDBRANCH  17  18
ENDBRANCH   3  16
TORSDOF 4
ENDMDL
MODEL 9
REMARK VINA RESULT:      -6.7      4.745      7.484
REMARK  4 active torsions:
REMARK  status: ('A' for Active; 'I' for Inactive)
REMARK    1  A    between atoms: C_3  and  N_4 
REMARK    2  A    between atoms: C_5  and  C_6 
REMARK    3  A    between atoms: C_13  and  N_14 
REMARK       I    between atoms: N_14  and  C_15 
REMARK    4  A    between atoms: C_15  and  C_16 
ROOT
HETATM    1  C   UNL     1      42.615 -12.951   4.210  1.00  0.00     0.005 A 
HETATM    2  C   UNL     1      42.981 -14.229   4.632  1.00  0.00     0.031 A 
HETATM    3  C   UNL     1      42.829 -15.325   3.782  1.00  0.00     0.058 A 
HETATM    4  C   UNL     1      42.326 -15.124   2.488  1.00  0.00     0.061 A 
HETATM    5  C   UNL     1      41.942 -13.851   2.057  1.00  0.00     0.037 A 
HETATM    6  C   UNL     1      42.098 -12.765   2.928  1.00  0.00     0.029 A 
ENDROOT
BRANCH   5   7
HETATM    7  N   UNL     1      41.410 -13.579   0.783  1.00  0.00    -0.321 N 
HETATM    8  C   UNL     1      40.404 -14.253   0.111  1.00  0.00     0.279 C 
HETATM    9  O   UNL     1      39.772 -15.208   0.549  1.00  0.00    -0.265 OA
HETATM   10  H   UNL     1      41.780 -12.773   0.288  1.00  0.00     0.169 HD
BRANCH   8  11
HETATM   11  C   UNL     1      40.137 -13.689  -1.201  1.00  0.00     0.142 A 
HETATM   12  O   UNL     1      39.061 -14.139  -1.925  1.00  0.00    -0.317 OA
HETATM   13  C   UNL     1      39.046 -13.446  -3.092  1.00  0.00     0.143 A 
HETATM   14  C   UNL     1      40.095 -12.558  -3.141  1.00  0.00     0.027 A 
HETATM   15  C   UNL     1      40.799 -12.714  -1.922  1.00  0.00     0.045 A 
ENDBRANCH   8  11
ENDBRANCH   5   7
BRANCH   3  16
HETATM   16  N   UNL     1      43.249 -16.587   4.232  1.00  0.00    -0.259 NA
HETATM   17  C   UNL     1      43.209 -17.560   3.379  1.00  0.00     0.146 C 
BRANCH  17  18
HETATM   18  C   UNL     1      43.639 -18.870   3.784  1.00  0.00     0.049 A 
HETATM   19  N   UNL     1      43.647 -19.959   2.943  1.00  0.00    -0.365 N 
HETATM   20  H   UNL     1      43.349 -19.919   1.975  1.00  0.00     0.165 HD
HETATM   21  C   UNL     1      44.108 -21.063   3.609  1.00  0.00     0.088 A 
HETATM   22  C   UNL     1      44.395 -20.686   4.902  1.00  0.00     0.019 A 
HETATM   23  C   UNL     1      44.101 -19.304   5.013  1.00  0.00     0.032 A 
ENDBRANCH  17  18
ENDBRANCH   3  16
TORSDOF 4
ENDMDL
MODEL 10
REMARK VINA RESULT:      -6.6      8.851     13.383
REMARK  4 active torsions:
REMARK  status: ('A' for Active; 'I' for Inactive)
REMARK    1  A    between atoms: C_3  and  N_4 
REMARK    2  A    between atoms: C_5  and  C_6 
REMARK    3  A    between atoms: C_13  and  N_14 
REMARK       I    between atoms: N_14  and  C_15 
REMARK    4  A    between atoms: C_15  and  C_16 
ROOT
HETATM    1  C   UNL     1      39.536  -5.914  16.832  1.00  0.00     0.005 A 
HETATM    2  C   UNL     1      40.155  -6.236  15.626  1.00  0.00     0.031 A 
HETATM    3  C   UNL     1      41.009  -7.336  15.540  1.00  0.00     0.058 A 
HETATM    4  C   UNL     1      41.221  -8.129  16.678  1.00  0.00     0.061 A 
HETATM    5  C   UNL     1      40.619  -7.809  17.898  1.00  0.00     0.037 A 
HETATM    6  C   UNL     1      39.769  -6.699  17.963  1.00  0.00     0.029 A 
ENDROOT
BRANCH   5   7
HETATM    7  N   UNL     1      40.802  -8.546  19.082  1.00  0.00    -0.321 N 
HETATM    8  C   UNL     1      39.839  -9.014  19.960  1.00  0.00     0.279 C 
HETATM    9  O   UNL     1      38.627  -8.882  19.823  1.00  0.00    -0.265 OA
HETATM   10  H   UNL     1      41.753  -8.800  19.328  1.00  0.00     0.169 HD
BRANCH   8  11
HETATM   11  C   UNL     1      40.413  -9.722  21.091  1.00  0.00     0.142 A 
HETATM   12  O   UNL     1      39.651  -9.940  22.212  1.00  0.00    -0.317 OA
HETATM   13  C   UNL     1      40.425 -10.619  23.096  1.00  0.00     0.143 A 
HETATM   14  C   UNL     1      41.677 -10.842  22.573  1.00  0.00     0.027 A 
HETATM   15  C   UNL     1      41.671 -10.264  21.280  1.00  0.00     0.045 A 
ENDBRANCH   8  11
ENDBRANCH   5   7
BRANCH   3  16
HETATM   16  N   UNL     1      41.579  -7.649  14.295  1.00  0.00    -0.259 NA
HETATM   17  C   UNL     1      42.161  -8.799  14.187  1.00  0.00     0.146 C 
BRANCH  17  18
HETATM   18  C   UNL     1      42.750  -9.175  12.930  1.00  0.00     0.049 A 
HETATM   19  N   UNL     1      42.591 -10.418  12.360  1.00  0.00    -0.365 N 
HETATM   20  H   UNL     1      42.049 -11.161  12.785  1.00  0.00     0.165 HD
HETATM   21  C   UNL     1      43.265 -10.477  11.170  1.00  0.00     0.088 A 
HETATM   22  C   UNL     1      43.875  -9.259  10.969  1.00  0.00     0.019 A 
HETATM   23  C   UNL     1      43.550  -8.438  12.078  1.00  0.00     0.032 A 
ENDBRANCH  17  18
ENDBRANCH   3  16
TORSDOF 4
ENDMDL
