MODEL 1
REMARK VINA RESULT:      -8.9      0.000      0.000
REMARK  5 active torsions:
REMARK  status: ('A' for Active; 'I' for Inactive)
REMARK    1  A    between atoms: C_2  and  C_3 
REMARK    2  A    between atoms: C_7  and  N_8 
REMARK    3  A    between atoms: C_13  and  N_14 
REMARK       I    between atoms: N_14  and  C_15 
REMARK    4  A    between atoms: C_15  and  C_16 
REMARK       I    between atoms: C_16  and  N_17 
REMARK    5  A    between atoms: N_17  and  C_18 
ROOT
HETATM    1  N   UNL     1      41.717 -15.528   2.687  1.00  0.00    -0.045 N 
HETATM    2  N   UNL     1      41.182 -15.772   1.458  1.00  0.00    -0.156 NA
HETATM    3  C   UNL     1      40.586 -14.622   1.125  1.00  0.00     0.055 A 
HETATM    4  C   UNL     1      39.874 -14.486  -0.172  1.00  0.00     0.072 C 
HETATM    5  C   UNL     1      40.738 -13.637   2.130  1.00  0.00     0.079 A 
HETATM    6  C   UNL     1      41.466 -14.238   3.129  1.00  0.00     0.152 A 
ENDROOT
BRANCH   6   7
HETATM    7  N   UNL     1      41.882 -13.714   4.348  1.00  0.00    -0.303 N 
HETATM    8  C   UNL     1      42.976 -12.809   4.514  1.00  0.00     0.315 C 
HETATM    9  O   UNL     1      43.677 -12.424   3.594  1.00  0.00    -0.262 OA
HETATM   10  H   UNL     1      41.364 -13.987   5.193  1.00  0.00     0.171 HD
BRANCH   8  11
HETATM   11  C   UNL     1      43.204 -12.337   5.962  1.00  0.00     0.310 C 
HETATM   12  N   UNL     1      43.212 -10.967   6.122  1.00  0.00    -0.348 N 
HETATM   13  H   UNL     1      43.171 -10.397   5.280  1.00  0.00     0.163 HD
HETATM   14  O   UNL     1      43.351 -13.179   6.837  1.00  0.00    -0.262 OA
BRANCH  12  15
HETATM   15  C   UNL     1      43.490 -10.309   7.394  1.00  0.00     0.085 C 
HETATM   16  C   UNL     1      42.775  -8.951   7.428  1.00  0.00     0.034 C 
HETATM   17  C   UNL     1      43.055  -8.128   8.703  1.00  0.00    -0.045 C 
HETATM   18  C   UNL     1      42.293  -8.715   9.905  1.00  0.00     0.015 C 
HETATM   19  C   UNL     1      42.522  -6.694   8.489  1.00  0.00     0.015 C 
HETATM   20  C   UNL     1      44.577  -8.047   8.969  1.00  0.00     0.013 C 
HETATM   21  C   UNL     1      45.373  -9.357   8.849  1.00  0.00    -0.016 C 
HETATM   22  C   UNL     1      45.002 -10.134   7.579  1.00  0.00     0.029 C 
HETATM   23  C   UNL     1      45.296 -10.235  10.099  1.00  0.00     0.010 C 
ENDBRANCH  12  15
ENDBRANCH   8  11
ENDBRANCH   6   7
BRANCH   1  24
HETATM   24  C   UNL     1      42.427 -16.526   3.367  1.00  0.00     0.732 A 
HETATM   25  N   UNL     1      42.894 -17.486   2.524  1.00  0.00    -0.152 N 
HETATM   26  C   UNL     1      43.604 -18.547   2.985  1.00  0.00     0.268 A 
HETATM   27  H   UNL     1      42.712 -17.423   1.527  1.00  0.00     0.188 HD
HETATM   28  C   UNL     1      43.831 -18.571   4.460  1.00  0.00     0.035 A 
HETATM   29  O   UNL     1      44.025 -19.419   2.235  1.00  0.00    -0.267 OA
HETATM   30  C   UNL     1      43.316 -17.556   5.189  1.00  0.00     0.061 A 
HETATM   31  N   UNL     1      42.596 -16.504   4.650  1.00  0.00    -0.067 NA
HETATM   32  C   UNL     1      43.497 -17.445   6.683  1.00  0.00     0.072 C 
BRANCH  28  33
HETATM   33  C   UNL     1      44.585 -19.767   4.982  1.00  0.00     0.042 C 
HETATM   34  C   UNL     1      43.658 -20.929   5.311  1.00  0.00     0.010 C 
ENDBRANCH  28  33
ENDBRANCH   1  24
TORSDOF 5
ENDMDL
MODEL 2
REMARK VINA RESULT:      -8.8      2.577      7.736
REMARK  5 active torsions:
REMARK  status: ('A' for Active; 'I' for Inactive)
REMARK    1  A    between atoms: C_2  and  C_3 
REMARK    2  A    between atoms: C_7  and  N_8 
REMARK    3  A    between atoms: C_13  and  N_14 
REMARK       I    between atoms: N_14  and  C_15 
REMARK    4  A    between atoms: C_15  and  C_16 
REMARK       I    between atoms: C_16  and  N_17 
REMARK    5  A    between atoms: N_17  and  C_18 
ROOT
HETATM    1  N   UNL     1      43.025 -13.294   5.307  1.00  0.00    -0.045 N 
HETATM    2  N   UNL     1      43.738 -13.105   6.453  1.00  0.00    -0.156 NA
HETATM    3  C   UNL     1      43.503 -11.829   6.779  1.00  0.00     0.055 A 
HETATM    4  C   UNL     1      44.118 -11.232   7.993  1.00  0.00     0.072 C 
HETATM    5  C   UNL     1      42.639 -11.196   5.854  1.00  0.00     0.079 A 
HETATM    6  C   UNL     1      42.344 -12.153   4.911  1.00  0.00     0.152 A 
ENDROOT
BRANCH   6   7
HETATM    7  N   UNL     1      41.545 -12.050   3.778  1.00  0.00    -0.303 N 
HETATM    8  C   UNL     1      40.174 -12.450   3.709  1.00  0.00     0.315 C 
HETATM    9  O   UNL     1      39.572 -12.952   4.642  1.00  0.00    -0.262 OA
HETATM   10  H   UNL     1      41.962 -11.650   2.928  1.00  0.00     0.171 HD
BRANCH   8  11
HETATM   11  C   UNL     1      39.497 -12.187   2.352  1.00  0.00     0.310 C 
HETATM   12  N   UNL     1      40.189 -12.677   1.263  1.00  0.00    -0.348 N 
HETATM   13  H   UNL     1      41.113 -13.069   1.434  1.00  0.00     0.163 HD
HETATM   14  O   UNL     1      38.430 -11.590   2.334  1.00  0.00    -0.262 OA
BRANCH  12  15
HETATM   15  C   UNL     1      39.767 -12.468  -0.117  1.00  0.00     0.085 C 
HETATM   16  C   UNL     1      39.324 -13.808  -0.720  1.00  0.00     0.034 C 
HETATM   17  C   UNL     1      38.920 -13.724  -2.206  1.00  0.00    -0.045 C 
HETATM   18  C   UNL     1      37.547 -13.045  -2.357  1.00  0.00     0.015 C 
HETATM   19  C   UNL     1      38.775 -15.160  -2.758  1.00  0.00     0.015 C 
HETATM   20  C   UNL     1      40.016 -12.998  -3.022  1.00  0.00     0.013 C 
HETATM   21  C   UNL     1      40.579 -11.698  -2.423  1.00  0.00    -0.016 C 
HETATM   22  C   UNL     1      40.911 -11.855  -0.933  1.00  0.00     0.029 C 
HETATM   23  C   UNL     1      39.702 -10.473  -2.687  1.00  0.00     0.010 C 
ENDBRANCH  12  15
ENDBRANCH   8  11
ENDBRANCH   6   7
BRANCH   1  24
HETATM   24  C   UNL     1      43.034 -14.535   4.658  1.00  0.00     0.732 A 
HETATM   25  N   UNL     1      42.970 -15.572   5.536  1.00  0.00    -0.152 N 
HETATM   26  C   UNL     1      42.973 -16.860   5.109  1.00  0.00     0.268 A 
HETATM   27  H   UNL     1      42.922 -15.393   6.535  1.00  0.00     0.188 HD
HETATM   28  C   UNL     1      43.045 -17.042   3.630  1.00  0.00     0.035 A 
HETATM   29  O   UNL     1      42.920 -17.801   5.891  1.00  0.00    -0.267 OA
HETATM   30  C   UNL     1      43.103 -15.930   2.864  1.00  0.00     0.061 A 
HETATM   31  N   UNL     1      43.100 -14.642   3.369  1.00  0.00    -0.067 NA
HETATM   32  C   UNL     1      43.151 -15.974   1.356  1.00  0.00     0.072 C 
BRANCH  28  33
HETATM   33  C   UNL     1      43.088 -18.471   3.152  1.00  0.00     0.042 C 
HETATM   34  C   UNL     1      44.514 -18.989   3.026  1.00  0.00     0.010 C 
ENDBRANCH  28  33
ENDBRANCH   1  24
TORSDOF 5
ENDMDL
MODEL 3
REMARK VINA RESULT:      -8.5      3.467      9.353
REMARK  5 active torsions:
REMARK  status: ('A' for Active; 'I' for Inactive)
REMARK    1  A    between atoms: C_2  and  C_3 
REMARK    2  A    between atoms: C_7  and  N_8 
REMARK    3  A    between atoms: C_13  and  N_14 
REMARK       I    between atoms: N_14  and  C_15 
REMARK    4  A    between atoms: C_15  and  C_16 
REMARK       I    between atoms: C_16  and  N_17 
REMARK    5  A    between atoms: N_17  and  C_18 
ROOT
HETATM    1  N   UNL     1      42.088  -8.872  10.098  1.00  0.00    -0.045 N 
HETATM    2  N   UNL     1      42.040  -8.025  11.164  1.00  0.00    -0.156 NA
HETATM    3  C   UNL     1      42.992  -8.479  11.988  1.00  0.00     0.055 A 
HETATM    4  C   UNL     1      43.253  -7.807  13.287  1.00  0.00     0.072 C 
HETATM    5  C   UNL     1      43.655  -9.611  11.457  1.00  0.00     0.079 A 
HETATM    6  C   UNL     1      43.058  -9.852  10.242  1.00  0.00     0.152 A 
ENDROOT
BRANCH   6   7
HETATM    7  N   UNL     1      43.326 -10.856   9.317  1.00  0.00    -0.303 N 
HETATM    8  C   UNL     1      44.091 -10.679   8.122  1.00  0.00     0.315 C 
HETATM    9  O   UNL     1      44.566  -9.610   7.779  1.00  0.00    -0.262 OA
HETATM   10  H   UNL     1      42.958 -11.796   9.506  1.00  0.00     0.171 HD
BRANCH   8  11
HETATM   11  C   UNL     1      44.284 -11.958   7.289  1.00  0.00     0.310 C 
HETATM   12  N   UNL     1      43.182 -12.787   7.251  1.00  0.00    -0.348 N 
HETATM   13  H   UNL     1      42.390 -12.542   7.842  1.00  0.00     0.163 HD
HETATM   14  O   UNL     1      45.359 -12.142   6.735  1.00  0.00    -0.262 OA
BRANCH  12  15
HETATM   15  C   UNL     1      43.176 -14.086   6.587  1.00  0.00     0.085 C 
HETATM   16  C   UNL     1      42.127 -14.078   5.467  1.00  0.00     0.034 C 
HETATM   17  C   UNL     1      41.980 -15.428   4.736  1.00  0.00    -0.045 C 
HETATM   18  C   UNL     1      43.177 -15.671   3.800  1.00  0.00     0.015 C 
HETATM   19  C   UNL     1      40.718 -15.371   3.846  1.00  0.00     0.015 C 
HETATM   20  C   UNL     1      41.803 -16.578   5.757  1.00  0.00     0.013 C 
HETATM   21  C   UNL     1      42.759 -16.587   6.962  1.00  0.00    -0.016 C 
HETATM   22  C   UNL     1      42.882 -15.197   7.601  1.00  0.00     0.029 C 
HETATM   23  C   UNL     1      44.127 -17.197   6.652  1.00  0.00     0.010 C 
ENDBRANCH  12  15
ENDBRANCH   8  11
ENDBRANCH   6   7
BRANCH   1  24
HETATM   24  C   UNL     1      41.215  -8.707   9.016  1.00  0.00     0.732 A 
HETATM   25  N   UNL     1      40.349  -9.749   8.893  1.00  0.00    -0.152 N 
HETATM   26  C   UNL     1      39.423  -9.785   7.902  1.00  0.00     0.268 A 
HETATM   27  H   UNL     1      40.387 -10.524   9.547  1.00  0.00     0.188 HD
HETATM   28  C   UNL     1      39.427  -8.611   6.980  1.00  0.00     0.035 A 
HETATM   29  O   UNL     1      38.641 -10.720   7.780  1.00  0.00    -0.267 OA
HETATM   30  C   UNL     1      40.338  -7.638   7.210  1.00  0.00     0.061 A 
HETATM   31  N   UNL     1      41.259  -7.670   8.242  1.00  0.00    -0.067 NA
HETATM   32  C   UNL     1      40.431  -6.387   6.371  1.00  0.00     0.072 C 
BRANCH  28  33
HETATM   33  C   UNL     1      38.427  -8.664   5.855  1.00  0.00     0.042 C 
HETATM   34  C   UNL     1      38.995  -9.342   4.616  1.00  0.00     0.010 C 
ENDBRANCH  28  33
ENDBRANCH   1  24
TORSDOF 5
ENDMDL
MODEL 4
REMARK VINA RESULT:      -8.4      3.301      8.087
REMARK  5 active torsions:
REMARK  status: ('A' for Active; 'I' for Inactive)
REMARK    1  A    between atoms: C_2  and  C_3 
REMARK    2  A    between atoms: C_7  and  N_8 
REMARK    3  A    between atoms: C_13  and  N_14 
REMARK       I    between atoms: N_14  and  C_15 
REMARK    4  A    between atoms: C_15  and  C_16 
REMARK       I    between atoms: C_16  and  N_17 
REMARK    5  A    between atoms: N_17  and  C_18 
ROOT
HETATM    1  N   UNL     1      42.757 -15.894   3.747  1.00  0.00    -0.045 N 
HETATM    2  N   UNL     1      43.419 -16.789   4.532  1.00  0.00    -0.156 NA
HETATM    3  C   UNL     1      43.656 -17.826   3.720  1.00  0.00     0.055 A 
HETATM    4  C   UNL     1      44.373 -19.028   4.218  1.00  0.00     0.072 C 
HETATM    5  C   UNL     1      43.156 -17.601   2.415  1.00  0.00     0.079 A 
HETATM    6  C   UNL     1      42.577 -16.355   2.452  1.00  0.00     0.152 A 
ENDROOT
BRANCH   6   7
HETATM    7  N   UNL     1      41.929 -15.659   1.437  1.00  0.00    -0.303 N 
HETATM    8  C   UNL     1      40.525 -15.390   1.403  1.00  0.00     0.315 C 
HETATM    9  O   UNL     1      39.745 -15.773   2.258  1.00  0.00    -0.262 OA
HETATM   10  H   UNL     1      42.496 -15.302   0.658  1.00  0.00     0.171 HD
BRANCH   8  11
HETATM   11  C   UNL     1      40.061 -14.558   0.194  1.00  0.00     0.310 C 
HETATM   12  N   UNL     1      40.392 -13.220   0.259  1.00  0.00    -0.348 N 
HETATM   13  H   UNL     1      40.813 -12.884   1.123  1.00  0.00     0.163 HD
HETATM   14  O   UNL     1      39.459 -15.121  -0.710  1.00  0.00    -0.262 OA
BRANCH  12  15
HETATM   15  C   UNL     1      39.980 -12.241  -0.741  1.00  0.00     0.085 C 
HETATM   16  C   UNL     1      41.086 -11.189  -0.904  1.00  0.00     0.034 C 
HETATM   17  C   UNL     1      40.731 -10.056  -1.889  1.00  0.00    -0.045 C 
HETATM   18  C   UNL     1      40.805 -10.559  -3.343  1.00  0.00     0.015 C 
HETATM   19  C   UNL     1      41.784  -8.934  -1.748  1.00  0.00     0.015 C 
HETATM   20  C   UNL     1      39.342  -9.464  -1.554  1.00  0.00     0.013 C 
HETATM   21  C   UNL     1      38.210 -10.468  -1.277  1.00  0.00    -0.016 C 
HETATM   22  C   UNL     1      38.659 -11.584  -0.325  1.00  0.00     0.029 C 
HETATM   23  C   UNL     1      37.562 -11.024  -2.546  1.00  0.00     0.010 C 
ENDBRANCH  12  15
ENDBRANCH   8  11
ENDBRANCH   6   7
BRANCH   1  24
HETATM   24  C   UNL     1      42.333 -14.665   4.268  1.00  0.00     0.732 A 
HETATM   25  N   UNL     1      41.282 -14.805   5.120  1.00  0.00    -0.152 N 
HETATM   26  C   UNL     1      40.717 -13.732   5.728  1.00  0.00     0.268 A 
HETATM   27  H   UNL     1      40.899 -15.726   5.311  1.00  0.00     0.188 HD
HETATM   28  C   UNL     1      41.334 -12.413   5.398  1.00  0.00     0.035 A 
HETATM   29  O   UNL     1      39.769 -13.846   6.494  1.00  0.00    -0.267 OA
HETATM   30  C   UNL     1      42.376 -12.407   4.537  1.00  0.00     0.061 A 
HETATM   31  N   UNL     1      42.899 -13.545   3.949  1.00  0.00    -0.067 NA
HETATM   32  C   UNL     1      43.106 -11.147   4.141  1.00  0.00     0.072 C 
BRANCH  28  33
HETATM   33  C   UNL     1      40.686 -11.213   6.041  1.00  0.00     0.042 C 
HETATM   34  C   UNL     1      39.575 -10.633   5.178  1.00  0.00     0.010 C 
ENDBRANCH  28  33
ENDBRANCH   1  24
TORSDOF 5
ENDMDL
MODEL 5
REMARK VINA RESULT:      -8.3      2.693      5.696
REMARK  5 active torsions:
REMARK  status: ('A' for Active; 'I' for Inactive)
REMARK    1  A    between atoms: C_2  and  C_3 
REMARK    2  A    between atoms: C_7  and  N_8 
REMARK    3  A    between atoms: C_13  and  N_14 
REMARK       I    between atoms: N_14  and  C_15 
REMARK    4  A    between atoms: C_15  and  C_16 
REMARK       I    between atoms: C_16  and  N_17 
REMARK    5  A    between atoms: N_17  and  C_18 
ROOT
HETATM    1  N   UNL     1      42.339 -14.201   5.511  1.00  0.00    -0.045 N 
HETATM    2  N   UNL     1      42.385 -15.336   4.759  1.00  0.00    -0.156 NA
HETATM    3  C   UNL     1      43.374 -16.053   5.305  1.00  0.00     0.055 A 
HETATM    4  C   UNL     1      43.740 -17.383   4.753  1.00  0.00     0.072 C 
HETATM    5  C   UNL     1      43.963 -15.388   6.407  1.00  0.00     0.079 A 
HETATM    6  C   UNL     1      43.286 -14.197   6.523  1.00  0.00     0.152 A 
ENDROOT
BRANCH   6   7
HETATM    7  N   UNL     1      43.476 -13.166   7.438  1.00  0.00    -0.303 N 
HETATM    8  C   UNL     1      44.343 -12.047   7.236  1.00  0.00     0.315 C 
HETATM    9  O   UNL     1      45.030 -11.900   6.241  1.00  0.00    -0.262 OA
HETATM   10  H   UNL     1      42.949 -13.201   8.320  1.00  0.00     0.171 HD
BRANCH   8  11
HETATM   11  C   UNL     1      44.338 -11.018   8.380  1.00  0.00     0.310 C 
HETATM   12  N   UNL     1      43.143 -10.348   8.542  1.00  0.00    -0.348 N 
HETATM   13  H   UNL     1      42.418 -10.511   7.847  1.00  0.00     0.163 HD
HETATM   14  O   UNL     1      45.355 -10.875   9.046  1.00  0.00    -0.262 OA
BRANCH  12  15
HETATM   15  C   UNL     1      42.948  -9.277   9.513  1.00  0.00     0.085 C 
HETATM   16  C   UNL     1      42.481  -9.880  10.845  1.00  0.00     0.034 C 
HETATM   17  C   UNL     1      42.172  -8.832  11.933  1.00  0.00    -0.045 C 
HETATM   18  C   UNL     1      43.475  -8.240  12.500  1.00  0.00     0.015 C 
HETATM   19  C   UNL     1      41.451  -9.536  13.104  1.00  0.00     0.015 C 
HETATM   20  C   UNL     1      41.235  -7.734  11.375  1.00  0.00     0.013 C 
HETATM   21  C   UNL     1      41.589  -7.158   9.993  1.00  0.00    -0.016 C 
HETATM   22  C   UNL     1      41.926  -8.264   8.985  1.00  0.00     0.029 C 
HETATM   23  C   UNL     1      42.671  -6.078  10.041  1.00  0.00     0.010 C 
ENDBRANCH  12  15
ENDBRANCH   8  11
ENDBRANCH   6   7
BRANCH   1  24
HETATM   24  C   UNL     1      41.409 -13.193   5.225  1.00  0.00     0.732 A 
HETATM   25  N   UNL     1      41.173 -13.079   3.890  1.00  0.00    -0.152 N 
HETATM   26  C   UNL     1      40.307 -12.155   3.403  1.00  0.00     0.268 A 
HETATM   27  H   UNL     1      41.651 -13.688   3.233  1.00  0.00     0.188 HD
HETATM   28  C   UNL     1      39.644 -11.298   4.429  1.00  0.00     0.035 A 
HETATM   29  O   UNL     1      40.089 -12.041   2.203  1.00  0.00    -0.267 OA
HETATM   30  C   UNL     1      39.962 -11.512   5.725  1.00  0.00     0.061 A 
HETATM   31  N   UNL     1      40.862 -12.473   6.151  1.00  0.00    -0.067 NA
HETATM   32  C   UNL     1      39.344 -10.735   6.862  1.00  0.00     0.072 C 
BRANCH  28  33
HETATM   33  C   UNL     1      38.710 -10.244   3.891  1.00  0.00     0.042 C 
HETATM   34  C   UNL     1      39.420  -8.921   3.647  1.00  0.00     0.010 C 
ENDBRANCH  28  33
ENDBRANCH   1  24
TORSDOF 5
ENDMDL
MODEL 6
REMARK VINA RESULT:      -8.1      2.041      5.196
REMARK  5 active torsions:
REMARK  status: ('A' for Active; 'I' for Inactive)
REMARK    1  A    between atoms: C_2  and  C_3 
REMARK    2  A    between atoms: C_7  and  N_8 
REMARK    3  A    between atoms: C_13  and  N_14 
REMARK       I    between atoms: N_14  and  C_15 
REMARK    4  A    between atoms: C_15  and  C_16 
REMARK       I    between atoms: C_16  and  N_17 
REMARK    5  A    between atoms: N_17  and  C_18 
ROOT
HETATM    1  N   UNL     1      42.202 -15.297   2.061  1.00  0.00    -0.045 N 
HETATM    2  N   UNL     1      42.195 -16.620   1.734  1.00  0.00    -0.156 NA
HETATM    3  C   UNL     1      42.941 -17.196   2.682  1.00  0.00     0.055 A 
HETATM    4  C   UNL     1      43.178 -18.663   2.673  1.00  0.00     0.072 C 
HETATM    5  C   UNL     1      43.425 -16.254   3.621  1.00  0.00     0.079 A 
HETATM    6  C   UNL     1      42.942 -15.036   3.203  1.00  0.00     0.152 A 
ENDROOT
BRANCH   6   7
HETATM    7  N   UNL     1      43.131 -13.778   3.765  1.00  0.00    -0.303 N 
HETATM    8  C   UNL     1      42.392 -13.263   4.876  1.00  0.00     0.315 C 
HETATM    9  O   UNL     1      41.494 -13.875   5.429  1.00  0.00    -0.262 OA
HETATM   10  H   UNL     1      43.859 -13.175   3.364  1.00  0.00     0.171 HD
BRANCH   8  11
HETATM   11  C   UNL     1      42.826 -11.861   5.340  1.00  0.00     0.310 C 
HETATM   12  N   UNL     1      42.755 -11.662   6.703  1.00  0.00    -0.348 N 
HETATM   13  H   UNL     1      42.336 -12.403   7.263  1.00  0.00     0.163 HD
HETATM   14  O   UNL     1      43.195 -11.053   4.499  1.00  0.00    -0.262 OA
BRANCH  12  15
HETATM   15  C   UNL     1      43.043 -10.384   7.344  1.00  0.00     0.085 C 
HETATM   16  C   UNL     1      43.967 -10.618   8.547  1.00  0.00     0.034 C 
HETATM   17  C   UNL     1      44.285  -9.340   9.350  1.00  0.00    -0.045 C 
HETATM   18  C   UNL     1      45.281  -8.452   8.583  1.00  0.00     0.015 C 
HETATM   19  C   UNL     1      44.972  -9.749  10.672  1.00  0.00     0.015 C 
HETATM   20  C   UNL     1      42.981  -8.581   9.695  1.00  0.00     0.013 C 
HETATM   21  C   UNL     1      41.963  -8.401   8.556  1.00  0.00    -0.016 C 
HETATM   22  C   UNL     1      41.740  -9.706   7.781  1.00  0.00     0.029 C 
HETATM   23  C   UNL     1      42.288  -7.232   7.625  1.00  0.00     0.010 C 
ENDBRANCH  12  15
ENDBRANCH   8  11
ENDBRANCH   6   7
BRANCH   1  24
HETATM   24  C   UNL     1      41.514 -14.364   1.274  1.00  0.00     0.732 A 
HETATM   25  N   UNL     1      40.662 -14.963   0.398  1.00  0.00    -0.152 N 
HETATM   26  C   UNL     1      39.905 -14.235  -0.461  1.00  0.00     0.268 A 
HETATM   27  H   UNL     1      40.584 -15.975   0.373  1.00  0.00     0.188 HD
HETATM   28  C   UNL     1      40.074 -12.755  -0.364  1.00  0.00     0.035 A 
HETATM   29  O   UNL     1      39.138 -14.764  -1.256  1.00  0.00    -0.267 OA
HETATM   30  C   UNL     1      40.952 -12.284   0.550  1.00  0.00     0.061 A 
HETATM   31  N   UNL     1      41.697 -13.088   1.393  1.00  0.00    -0.067 NA
HETATM   32  C   UNL     1      41.196 -10.810   0.768  1.00  0.00     0.072 C 
BRANCH  28  33
HETATM   33  C   UNL     1      39.264 -11.943  -1.342  1.00  0.00     0.042 C 
HETATM   34  C   UNL     1      37.899 -11.569  -0.782  1.00  0.00     0.010 C 
ENDBRANCH  28  33
ENDBRANCH   1  24
TORSDOF 5
ENDMDL
MODEL 7
REMARK VINA RESULT:      -8.0      3.797      9.250
REMARK  5 active torsions:
REMARK  status: ('A' for Active; 'I' for Inactive)
REMARK    1  A    between atoms: C_2  and  C_3 
REMARK    2  A    between atoms: C_7  and  N_8 
REMARK    3  A    between atoms: C_13  and  N_14 
REMARK       I    between atoms: N_14  and  C_15 
REMARK    4  A    between atoms: C_15  and  C_16 
REMARK       I    between atoms: C_16  and  N_17 
REMARK    5  A    between atoms: N_17  and  C_18 
ROOT
HETATM    1  N   UNL     1      40.456  -8.342  10.380  1.00  0.00    -0.045 N 
HETATM    2  N   UNL     1      40.121  -7.301  11.192  1.00  0.00    -0.156 NA
HETATM    3  C   UNL     1      38.794  -7.199  11.065  1.00  0.00     0.055 A 
HETATM    4  C   UNL     1      38.039  -6.158  11.809  1.00  0.00     0.072 C 
HETATM    5  C   UNL     1      38.270  -8.172  10.180  1.00  0.00     0.079 A 
HETATM    6  C   UNL     1      39.355  -8.896   9.746  1.00  0.00     0.152 A 
ENDROOT
BRANCH   6   7
HETATM    7  N   UNL     1      39.397  -9.963   8.854  1.00  0.00    -0.303 N 
HETATM    8  C   UNL     1      39.906  -9.890   7.520  1.00  0.00     0.315 C 
HETATM    9  O   UNL     1      40.333  -8.865   7.018  1.00  0.00    -0.262 OA
HETATM   10  H   UNL     1      39.048 -10.875   9.176  1.00  0.00     0.171 HD
BRANCH   8  11
HETATM   11  C   UNL     1      39.886 -11.224   6.753  1.00  0.00     0.310 C 
HETATM   12  N   UNL     1      41.133 -11.711   6.420  1.00  0.00    -0.348 N 
HETATM   13  H   UNL     1      41.936 -11.115   6.613  1.00  0.00     0.163 HD
HETATM   14  O   UNL     1      38.806 -11.743   6.505  1.00  0.00    -0.262 OA
BRANCH  12  15
HETATM   15  C   UNL     1      41.339 -12.916   5.624  1.00  0.00     0.085 C 
HETATM   16  C   UNL     1      41.596 -14.104   6.561  1.00  0.00     0.034 C 
HETATM   17  C   UNL     1      41.898 -15.427   5.828  1.00  0.00    -0.045 C 
HETATM   18  C   UNL     1      40.614 -16.012   5.213  1.00  0.00     0.015 C 
HETATM   19  C   UNL     1      42.413 -16.455   6.860  1.00  0.00     0.015 C 
HETATM   20  C   UNL     1      43.002 -15.213   4.763  1.00  0.00     0.013 C 
HETATM   21  C   UNL     1      42.859 -13.979   3.856  1.00  0.00    -0.016 C 
HETATM   22  C   UNL     1      42.514 -12.719   4.659  1.00  0.00     0.029 C 
HETATM   23  C   UNL     1      41.900 -14.191   2.683  1.00  0.00     0.010 C 
ENDBRANCH  12  15
ENDBRANCH   8  11
ENDBRANCH   6   7
BRANCH   1  24
HETATM   24  C   UNL     1      41.792  -8.746  10.251  1.00  0.00     0.732 A 
HETATM   25  N   UNL     1      42.486  -7.950   9.393  1.00  0.00    -0.152 N 
HETATM   26  C   UNL     1      43.797  -8.175   9.124  1.00  0.00     0.268 A 
HETATM   27  H   UNL     1      42.025  -7.169   8.935  1.00  0.00     0.188 HD
HETATM   28  C   UNL     1      44.403  -9.338   9.836  1.00  0.00     0.035 A 
HETATM   29  O   UNL     1      44.430  -7.467   8.351  1.00  0.00    -0.267 OA
HETATM   30  C   UNL     1      43.607 -10.050  10.665  1.00  0.00     0.061 A 
HETATM   31  N   UNL     1      42.272  -9.765  10.888  1.00  0.00    -0.067 NA
HETATM   32  C   UNL     1      44.102 -11.231  11.464  1.00  0.00     0.072 C 
BRANCH  28  33
HETATM   33  C   UNL     1      45.849  -9.616   9.512  1.00  0.00     0.042 C 
HETATM   34  C   UNL     1      45.999 -10.504   8.284  1.00  0.00     0.010 C 
ENDBRANCH  28  33
ENDBRANCH   1  24
TORSDOF 5
ENDMDL
MODEL 8
REMARK VINA RESULT:      -7.9      3.289      9.016
REMARK  5 active torsions:
REMARK  status: ('A' for Active; 'I' for Inactive)
REMARK    1  A    between atoms: C_2  and  C_3 
REMARK    2  A    between atoms: C_7  and  N_8 
REMARK    3  A    between atoms: C_13  and  N_14 
REMARK       I    between atoms: N_14  and  C_15 
REMARK    4  A    between atoms: C_15  and  C_16 
REMARK       I    between atoms: C_16  and  N_17 
REMARK    5  A    between atoms: N_17  and  C_18 
ROOT
HETATM    1  N   UNL     1      42.042  -7.704   6.749  1.00  0.00    -0.045 N 
HETATM    2  N   UNL     1      42.097  -6.372   6.468  1.00  0.00    -0.156 NA
HETATM    3  C   UNL     1      41.696  -6.288   5.195  1.00  0.00     0.055 A 
HETATM    4  C   UNL     1      41.620  -4.972   4.509  1.00  0.00     0.072 C 
HETATM    5  C   UNL     1      41.377  -7.557   4.655  1.00  0.00     0.079 A 
HETATM    6  C   UNL     1      41.609  -8.457   5.669  1.00  0.00     0.152 A 
ENDROOT
BRANCH   6   7
HETATM    7  N   UNL     1      41.465  -9.840   5.664  1.00  0.00    -0.303 N 
HETATM    8  C   UNL     1      40.377 -10.548   6.265  1.00  0.00     0.315 C 
HETATM    9  O   UNL     1      39.473 -10.001   6.872  1.00  0.00    -0.262 OA
HETATM   10  H   UNL     1      42.184 -10.399   5.187  1.00  0.00     0.171 HD
BRANCH   8  11
HETATM   11  C   UNL     1      40.425 -12.075   6.078  1.00  0.00     0.310 C 
HETATM   12  N   UNL     1      41.571 -12.541   5.467  1.00  0.00    -0.348 N 
HETATM   13  H   UNL     1      42.225 -11.848   5.108  1.00  0.00     0.163 HD
HETATM   14  O   UNL     1      39.482 -12.745   6.475  1.00  0.00    -0.262 OA
BRANCH  12  15
HETATM   15  C   UNL     1      41.785 -13.942   5.123  1.00  0.00     0.085 C 
HETATM   16  C   UNL     1      42.920 -14.508   5.988  1.00  0.00     0.034 C 
HETATM   17  C   UNL     1      43.285 -15.971   5.662  1.00  0.00    -0.045 C 
HETATM   18  C   UNL     1      42.210 -16.931   6.201  1.00  0.00     0.015 C 
HETATM   19  C   UNL     1      44.605 -16.321   6.386  1.00  0.00     0.015 C 
HETATM   20  C   UNL     1      43.504 -16.146   4.140  1.00  0.00     0.013 C 
HETATM   21  C   UNL     1      42.455 -15.512   3.212  1.00  0.00    -0.016 C 
HETATM   22  C   UNL     1      42.116 -14.076   3.633  1.00  0.00     0.029 C 
HETATM   23  C   UNL     1      41.199 -16.367   3.034  1.00  0.00     0.010 C 
ENDBRANCH  12  15
ENDBRANCH   8  11
ENDBRANCH   6   7
BRANCH   1  24
HETATM   24  C   UNL     1      42.404  -8.181   8.016  1.00  0.00     0.732 A 
HETATM   25  N   UNL     1      41.345  -8.220   8.869  1.00  0.00    -0.152 N 
HETATM   26  C   UNL     1      41.485  -8.647  10.150  1.00  0.00     0.268 A 
HETATM   27  H   UNL     1      40.426  -7.923   8.556  1.00  0.00     0.188 HD
HETATM   28  C   UNL     1      42.865  -9.067  10.535  1.00  0.00     0.035 A 
HETATM   29  O   UNL     1      40.540  -8.683  10.927  1.00  0.00    -0.267 OA
HETATM   30  C   UNL     1      43.831  -8.982   9.594  1.00  0.00     0.061 A 
HETATM   31  N   UNL     1      43.616  -8.531   8.304  1.00  0.00    -0.067 NA
HETATM   32  C   UNL     1      45.260  -9.400   9.844  1.00  0.00     0.072 C 
BRANCH  28  33
HETATM   33  C   UNL     1      43.034  -9.505  11.967  1.00  0.00     0.042 C 
HETATM   34  C   UNL     1      43.265  -8.327  12.902  1.00  0.00     0.010 C 
ENDBRANCH  28  33
ENDBRANCH   1  24
TORSDOF 5
ENDMDL
MODEL 9
REMARK VINA RESULT:      -7.9      1.357      2.260
REMARK  5 active torsions:
REMARK  status: ('A' for Active; 'I' for Inactive)
REMARK    1  A    between atoms: C_2  and  C_3 
REMARK    2  A    between atoms: C_7  and  N_8 
REMARK    3  A    between atoms: C_13  and  N_14 
REMARK       I    between atoms: N_14  and  C_15 
REMARK    4  A    between atoms: C_15  and  C_16 
REMARK       I    between atoms: C_16  and  N_17 
REMARK    5  A    between atoms: N_17  and  C_18 
ROOT
HETATM    1  N   UNL     1      41.559 -14.789   2.455  1.00  0.00    -0.045 N 
HETATM    2  N   UNL     1      40.872 -15.390   1.442  1.00  0.00    -0.156 NA
HETATM    3  C   UNL     1      40.515 -14.379   0.642  1.00  0.00     0.055 A 
HETATM    4  C   UNL     1      39.735 -14.633  -0.596  1.00  0.00     0.072 C 
HETATM    5  C   UNL     1      40.972 -13.131   1.130  1.00  0.00     0.079 A 
HETATM    6  C   UNL     1      41.638 -13.414   2.299  1.00  0.00     0.152 A 
ENDROOT
BRANCH   6   7
HETATM    7  N   UNL     1      42.269 -12.544   3.182  1.00  0.00    -0.303 N 
HETATM    8  C   UNL     1      41.639 -11.926   4.306  1.00  0.00     0.315 C 
HETATM    9  O   UNL     1      40.464 -12.082   4.589  1.00  0.00    -0.262 OA
HETATM   10  H   UNL     1      43.263 -12.334   3.024  1.00  0.00     0.171 HD
BRANCH   8  11
HETATM   11  C   UNL     1      42.569 -11.041   5.156  1.00  0.00     0.310 C 
HETATM   12  N   UNL     1      41.995 -10.553   6.312  1.00  0.00    -0.348 N 
HETATM   13  H   UNL     1      41.001 -10.728   6.451  1.00  0.00     0.163 HD
HETATM   14  O   UNL     1      43.711 -10.844   4.765  1.00  0.00    -0.262 OA
BRANCH  12  15
HETATM   15  C   UNL     1      42.672  -9.632   7.218  1.00  0.00     0.085 C 
HETATM   16  C   UNL     1      43.676 -10.414   8.077  1.00  0.00     0.034 C 
HETATM   17  C   UNL     1      44.405  -9.552   9.127  1.00  0.00    -0.045 C 
HETATM   18  C   UNL     1      45.465  -8.659   8.456  1.00  0.00     0.015 C 
HETATM   19  C   UNL     1      45.157 -10.491  10.097  1.00  0.00     0.015 C 
HETATM   20  C   UNL     1      43.387  -8.722   9.946  1.00  0.00     0.013 C 
HETATM   21  C   UNL     1      42.289  -7.995   9.152  1.00  0.00    -0.016 C 
HETATM   22  C   UNL     1      41.648  -8.909   8.099  1.00  0.00     0.029 C 
HETATM   23  C   UNL     1      42.748  -6.665   8.552  1.00  0.00     0.010 C 
ENDBRANCH  12  15
ENDBRANCH   8  11
ENDBRANCH   6   7
BRANCH   1  24
HETATM   24  C   UNL     1      42.092 -15.549   3.504  1.00  0.00     0.732 A 
HETATM   25  N   UNL     1      42.948 -16.508   3.058  1.00  0.00    -0.152 N 
HETATM   26  C   UNL     1      43.567 -17.356   3.917  1.00  0.00     0.268 A 
HETATM   27  H   UNL     1      43.133 -16.604   2.064  1.00  0.00     0.188 HD
HETATM   28  C   UNL     1      43.245 -17.152   5.360  1.00  0.00     0.035 A 
HETATM   29  O   UNL     1      44.336 -18.225   3.526  1.00  0.00    -0.267 OA
HETATM   30  C   UNL     1      42.380 -16.162   5.675  1.00  0.00     0.061 A 
HETATM   31  N   UNL     1      41.779 -15.335   4.742  1.00  0.00    -0.067 NA
HETATM   32  C   UNL     1      41.991 -15.833   7.095  1.00  0.00     0.072 C 
BRANCH  28  33
HETATM   33  C   UNL     1      43.900 -18.116   6.315  1.00  0.00     0.042 C 
HETATM   34  C   UNL     1      43.209 -19.472   6.323  1.00  0.00     0.010 C 
ENDBRANCH  28  33
ENDBRANCH   1  24
TORSDOF 5
ENDMDL
MODEL 10
REMARK VINA RESULT:      -7.6      2.677      5.555
REMARK  5 active torsions:
REMARK  status: ('A' for Active; 'I' for Inactive)
REMARK    1  A    between atoms: C_2  and  C_3 
REMARK    2  A    between atoms: C_7  and  N_8 
REMARK    3  A    between atoms: C_13  and  N_14 
REMARK       I    between atoms: N_14  and  C_15 
REMARK    4  A    between atoms: C_15  and  C_16 
REMARK       I    between atoms: C_16  and  N_17 
REMARK    5  A    between atoms: N_17  and  C_18 
ROOT
HETATM    1  N   UNL     1      42.734 -14.007   5.346  1.00  0.00    -0.045 N 
HETATM    2  N   UNL     1      42.869 -15.195   4.692  1.00  0.00    -0.156 NA
HETATM    3  C   UNL     1      43.688 -15.908   5.474  1.00  0.00     0.055 A 
HETATM    4  C   UNL     1      44.085 -17.288   5.094  1.00  0.00     0.072 C 
HETATM    5  C   UNL     1      44.077 -15.189   6.629  1.00  0.00     0.079 A 
HETATM    6  C   UNL     1      43.456 -13.966   6.528  1.00  0.00     0.152 A 
ENDROOT
BRANCH   6   7
HETATM    7  N   UNL     1      43.513 -12.880   7.395  1.00  0.00    -0.303 N 
HETATM    8  C   UNL     1      44.503 -11.850   7.347  1.00  0.00     0.315 C 
HETATM    9  O   UNL     1      45.423 -11.838   6.548  1.00  0.00    -0.262 OA
HETATM   10  H   UNL     1      42.787 -12.802   8.118  1.00  0.00     0.171 HD
BRANCH   8  11
HETATM   11  C   UNL     1      44.316 -10.731   8.388  1.00  0.00     0.310 C 
HETATM   12  N   UNL     1      43.135 -10.803   9.098  1.00  0.00    -0.348 N 
HETATM   13  H   UNL     1      42.460 -11.509   8.812  1.00  0.00     0.163 HD
HETATM   14  O   UNL     1      45.197  -9.891   8.512  1.00  0.00    -0.262 OA
BRANCH  12  15
HETATM   15  C   UNL     1      42.723  -9.800  10.074  1.00  0.00     0.085 C 
HETATM   16  C   UNL     1      42.374  -8.496   9.344  1.00  0.00     0.034 C 
HETATM   17  C   UNL     1      41.990  -7.335  10.284  1.00  0.00    -0.045 C 
HETATM   18  C   UNL     1      40.580  -7.550  10.862  1.00  0.00     0.015 C 
HETATM   19  C   UNL     1      41.944  -6.030   9.460  1.00  0.00     0.015 C 
HETATM   20  C   UNL     1      43.051  -7.170  11.398  1.00  0.00     0.013 C 
HETATM   21  C   UNL     1      43.522  -8.454  12.103  1.00  0.00    -0.016 C 
HETATM   22  C   UNL     1      43.840  -9.570  11.099  1.00  0.00     0.029 C 
HETATM   23  C   UNL     1      42.575  -8.928  13.205  1.00  0.00     0.010 C 
ENDBRANCH  12  15
ENDBRANCH   8  11
ENDBRANCH   6   7
BRANCH   1  24
HETATM   24  C   UNL     1      41.936 -12.986   4.813  1.00  0.00     0.732 A 
HETATM   25  N   UNL     1      40.811 -13.472   4.222  1.00  0.00    -0.152 N 
HETATM   26  C   UNL     1      39.907 -12.646   3.638  1.00  0.00     0.268 A 
HETATM   27  H   UNL     1      40.633 -14.472   4.207  1.00  0.00     0.188 HD
HETATM   28  C   UNL     1      40.237 -11.192   3.700  1.00  0.00     0.035 A 
HETATM   29  O   UNL     1      38.893 -13.073   3.100  1.00  0.00    -0.267 OA
HETATM   30  C   UNL     1      41.386 -10.836   4.318  1.00  0.00     0.061 A 
HETATM   31  N   UNL     1      42.267 -11.737   4.889  1.00  0.00    -0.067 NA
HETATM   32  C   UNL     1      41.823  -9.400   4.474  1.00  0.00     0.072 C 
BRANCH  28  33
HETATM   33  C   UNL     1      39.255 -10.273   3.020  1.00  0.00     0.042 C 
HETATM   34  C   UNL     1      38.297  -9.626   4.010  1.00  0.00     0.010 C 
ENDBRANCH  28  33
ENDBRANCH   1  24
TORSDOF 5
ENDMDL
