MODEL 1
REMARK VINA RESULT:      -7.8      0.000      0.000
REMARK  4 active torsions:
REMARK  status: ('A' for Active; 'I' for Inactive)
REMARK    1  A    between atoms: C_2  and  N_3 
REMARK    2  A    between atoms: C_2  and  C_4 
REMARK    3  A    between atoms: C_7  and  C_10 
REMARK       I    between atoms: C_10  and  N_12 
REMARK    4  A    between atoms: N_12  and  C_13 
ROOT
HETATM    1  C   UNL     1      40.581 -14.578   1.341  1.00  0.00     0.226 C 
HETATM    2  O   UNL     1      39.586 -14.043   1.830  1.00  0.00    -0.273 OA
HETATM    3  N   UNL     1      41.076 -14.248   0.090  1.00  0.00    -0.326 N 
HETATM    4  H   UNL     1      42.013 -14.555  -0.134  1.00  0.00     0.169 HD
ENDROOT
BRANCH   1   5
HETATM    5  C   UNL     1      41.296 -15.740   2.057  1.00  0.00     0.078 C 
HETATM    6  C   UNL     1      41.277 -15.486   3.575  1.00  0.00     0.014 C 
HETATM    7  C   UNL     1      41.962 -16.596   4.369  1.00  0.00     0.007 C 
HETATM    8  C   UNL     1      43.405 -16.829   3.893  1.00  0.00     0.018 C 
HETATM    9  C   UNL     1      43.405 -17.128   2.385  1.00  0.00     0.007 C 
HETATM   10  C   UNL     1      42.730 -16.013   1.583  1.00  0.00     0.014 C 
BRANCH   8  11
HETATM   11  C   UNL     1      44.128 -17.904   4.748  1.00  0.00     0.218 C 
HETATM   12  C   UNL     1      43.453 -18.223   6.083  1.00  0.00     0.043 C 
BRANCH  11  13
HETATM   13  N   UNL     1      44.260 -19.147   3.983  1.00  0.00     0.082 N 
HETATM   14  H   UNL     1      44.988 -19.040   3.275  1.00  0.00     0.313 HD
HETATM   15  H   UNL     1      43.399 -19.330   3.472  1.00  0.00     0.313 HD
ENDBRANCH  11  13
ENDBRANCH   8  11
ENDBRANCH   1   5
BRANCH   3  16
HETATM   16  C   UNL     1      40.487 -13.343  -0.820  1.00  0.00     0.050 A 
HETATM   17  C   UNL     1      40.727 -11.959  -0.795  1.00  0.00     0.047 A 
HETATM   18  C   UNL     1      40.120 -11.110  -1.710  1.00  0.00     0.092 A 
HETATM   19  N   UNL     1      39.284 -11.581  -2.641  1.00  0.00    -0.351 N 
HETATM   20  H   UNL     1      38.849 -10.947  -3.308  1.00  0.00     0.166 HD
HETATM   21  C   UNL     1      39.027 -12.915  -2.677  1.00  0.00     0.117 A 
HETATM   22  N   UNL     1      38.210 -13.579  -3.552  1.00  0.00    -0.352 N 
HETATM   23  C   UNL     1      39.588 -13.830  -1.794  1.00  0.00     0.036 A 
HETATM   24  H   UNL     1      37.671 -13.177  -4.310  1.00  0.00     0.166 HD
HETATM   25  C   UNL     1      38.237 -14.918  -3.254  1.00  0.00     0.090 A 
HETATM   26  C   UNL     1      39.077 -15.103  -2.175  1.00  0.00     0.034 A 
ENDBRANCH   3  16
TORSDOF 4
ENDMDL
MODEL 2
REMARK VINA RESULT:      -7.5      0.742      2.339
REMARK  4 active torsions:
REMARK  status: ('A' for Active; 'I' for Inactive)
REMARK    1  A    between atoms: C_2  and  N_3 
REMARK    2  A    between atoms: C_2  and  C_4 
REMARK    3  A    between atoms: C_7  and  C_10 
REMARK       I    between atoms: C_10  and  N_12 
REMARK    4  A    between atoms: N_12  and  C_13 
ROOT
HETATM    1  C   UNL     1      40.632 -14.198   1.158  1.00  0.00     0.226 C 
HETATM    2  O   UNL     1      39.650 -13.583   1.572  1.00  0.00    -0.273 OA
HETATM    3  N   UNL     1      40.902 -14.368  -0.190  1.00  0.00    -0.326 N 
HETATM    4  H   UNL     1      41.833 -14.673  -0.441  1.00  0.00     0.169 HD
ENDROOT
BRANCH   1   5
HETATM    5  C   UNL     1      41.590 -14.918   2.127  1.00  0.00     0.078 C 
HETATM    6  C   UNL     1      42.613 -15.732   1.314  1.00  0.00     0.014 C 
HETATM    7  C   UNL     1      43.611 -16.478   2.196  1.00  0.00     0.007 C 
HETATM    8  C   UNL     1      42.903 -17.388   3.212  1.00  0.00     0.018 C 
HETATM    9  C   UNL     1      41.919 -16.554   4.049  1.00  0.00     0.007 C 
HETATM   10  C   UNL     1      40.909 -15.814   3.170  1.00  0.00     0.014 C 
BRANCH   8  11
HETATM   11  C   UNL     1      43.916 -18.205   4.059  1.00  0.00     0.218 C 
HETATM   12  C   UNL     1      43.633 -18.217   5.562  1.00  0.00     0.043 C 
BRANCH  11  13
HETATM   13  N   UNL     1      43.966 -19.589   3.582  1.00  0.00     0.082 N 
HETATM   14  H   UNL     1      44.923 -19.829   3.320  1.00  0.00     0.313 HD
HETATM   15  H   UNL     1      43.413 -19.681   2.732  1.00  0.00     0.313 HD
ENDBRANCH  11  13
ENDBRANCH   8  11
ENDBRANCH   1   5
BRANCH   3  16
HETATM   16  C   UNL     1      40.076 -13.953  -1.258  1.00  0.00     0.050 A 
HETATM   17  C   UNL     1      39.090 -14.772  -1.832  1.00  0.00     0.047 A 
HETATM   18  C   UNL     1      38.305 -14.319  -2.884  1.00  0.00     0.092 A 
HETATM   19  N   UNL     1      38.466 -13.090  -3.386  1.00  0.00    -0.351 N 
HETATM   20  H   UNL     1      37.880 -12.770  -4.155  1.00  0.00     0.166 HD
HETATM   21  C   UNL     1      39.422 -12.285  -2.854  1.00  0.00     0.117 A 
HETATM   22  N   UNL     1      39.730 -11.004  -3.229  1.00  0.00    -0.352 N 
HETATM   23  C   UNL     1      40.252 -12.664  -1.807  1.00  0.00     0.036 A 
HETATM   24  H   UNL     1      39.290 -10.459  -3.961  1.00  0.00     0.166 HD
HETATM   25  C   UNL     1      40.747 -10.542  -2.432  1.00  0.00     0.090 A 
HETATM   26  C   UNL     1      41.091 -11.543  -1.548  1.00  0.00     0.034 A 
ENDBRANCH   3  16
TORSDOF 4
ENDMDL
MODEL 3
REMARK VINA RESULT:      -7.4      1.572      7.904
REMARK  4 active torsions:
REMARK  status: ('A' for Active; 'I' for Inactive)
REMARK    1  A    between atoms: C_2  and  N_3 
REMARK    2  A    between atoms: C_2  and  C_4 
REMARK    3  A    between atoms: C_7  and  C_10 
REMARK       I    between atoms: C_10  and  N_12 
REMARK    4  A    between atoms: N_12  and  C_13 
ROOT
HETATM    1  C   UNL     1      41.338 -15.659   1.869  1.00  0.00     0.226 C 
HETATM    2  O   UNL     1      40.498 -15.741   2.765  1.00  0.00    -0.273 OA
HETATM    3  N   UNL     1      42.606 -16.206   1.972  1.00  0.00    -0.326 N 
HETATM    4  H   UNL     1      43.141 -16.300   1.119  1.00  0.00     0.169 HD
ENDROOT
BRANCH   1   5
HETATM    5  C   UNL     1      41.065 -14.840   0.592  1.00  0.00     0.078 C 
HETATM    6  C   UNL     1      41.159 -13.340   0.924  1.00  0.00     0.014 C 
HETATM    7  C   UNL     1      40.907 -12.449  -0.290  1.00  0.00     0.007 C 
HETATM    8  C   UNL     1      39.555 -12.757  -0.952  1.00  0.00     0.018 C 
HETATM    9  C   UNL     1      39.493 -14.248  -1.320  1.00  0.00     0.007 C 
HETATM   10  C   UNL     1      39.732 -15.146  -0.105  1.00  0.00     0.014 C 
BRANCH   8  11
HETATM   11  C   UNL     1      39.262 -11.801  -2.140  1.00  0.00     0.218 C 
HETATM   12  C   UNL     1      40.500 -11.154  -2.763  1.00  0.00     0.043 C 
BRANCH  11  13
HETATM   13  N   UNL     1      38.531 -12.516  -3.189  1.00  0.00     0.082 N 
HETATM   14  H   UNL     1      38.057 -13.326  -2.788  1.00  0.00     0.313 HD
HETATM   15  H   UNL     1      39.186 -12.887  -3.874  1.00  0.00     0.313 HD
ENDBRANCH  11  13
ENDBRANCH   8  11
ENDBRANCH   1   5
BRANCH   3  16
HETATM   16  C   UNL     1      43.141 -16.845   3.112  1.00  0.00     0.050 A 
HETATM   17  C   UNL     1      43.465 -16.162   4.296  1.00  0.00     0.047 A 
HETATM   18  C   UNL     1      43.994 -16.834   5.390  1.00  0.00     0.092 A 
HETATM   19  N   UNL     1      44.214 -18.152   5.349  1.00  0.00    -0.351 N 
HETATM   20  H   UNL     1      44.599 -18.633   6.160  1.00  0.00     0.166 HD
HETATM   21  C   UNL     1      43.920 -18.832   4.210  1.00  0.00     0.117 A 
HETATM   22  N   UNL     1      44.071 -20.174   3.982  1.00  0.00    -0.352 N 
HETATM   23  C   UNL     1      43.396 -18.233   3.071  1.00  0.00     0.036 A 
HETATM   24  H   UNL     1      44.425 -20.867   4.629  1.00  0.00     0.166 HD
HETATM   25  C   UNL     1      43.645 -20.457   2.709  1.00  0.00     0.090 A 
HETATM   26  C   UNL     1      43.224 -19.281   2.123  1.00  0.00     0.034 A 
ENDBRANCH   3  16
TORSDOF 4
ENDMDL
MODEL 4
REMARK VINA RESULT:      -7.4      2.132      3.144
REMARK  4 active torsions:
REMARK  status: ('A' for Active; 'I' for Inactive)
REMARK    1  A    between atoms: C_2  and  N_3 
REMARK    2  A    between atoms: C_2  and  C_4 
REMARK    3  A    between atoms: C_7  and  C_10 
REMARK       I    between atoms: C_10  and  N_12 
REMARK    4  A    between atoms: N_12  and  C_13 
ROOT
HETATM    1  C   UNL     1      42.746 -14.906   2.511  1.00  0.00     0.226 C 
HETATM    2  O   UNL     1      43.338 -13.870   2.209  1.00  0.00    -0.273 OA
HETATM    3  N   UNL     1      41.365 -15.005   2.537  1.00  0.00    -0.326 N 
HETATM    4  H   UNL     1      40.967 -15.934   2.563  1.00  0.00     0.169 HD
ENDROOT
BRANCH   1   5
HETATM    5  C   UNL     1      43.514 -16.155   2.987  1.00  0.00     0.078 C 
HETATM    6  C   UNL     1      43.003 -17.386   2.215  1.00  0.00     0.014 C 
HETATM    7  C   UNL     1      43.715 -18.674   2.619  1.00  0.00     0.007 C 
HETATM    8  C   UNL     1      43.622 -18.927   4.132  1.00  0.00     0.018 C 
HETATM    9  C   UNL     1      44.178 -17.710   4.889  1.00  0.00     0.007 C 
HETATM   10  C   UNL     1      43.459 -16.417   4.498  1.00  0.00     0.014 C 
BRANCH   8  11
HETATM   11  C   UNL     1      44.279 -20.274   4.534  1.00  0.00     0.218 C 
HETATM   12  C   UNL     1      43.840 -20.822   5.893  1.00  0.00     0.043 C 
BRANCH  11  13
HETATM   13  N   UNL     1      44.009 -21.288   3.512  1.00  0.00     0.082 N 
HETATM   14  H   UNL     1      43.940 -20.844   2.595  1.00  0.00     0.313 HD
HETATM   15  H   UNL     1      43.100 -21.716   3.682  1.00  0.00     0.313 HD
ENDBRANCH  11  13
ENDBRANCH   8  11
ENDBRANCH   1   5
BRANCH   3  16
HETATM   16  C   UNL     1      40.456 -13.947   2.314  1.00  0.00     0.050 A 
HETATM   17  C   UNL     1      40.019 -13.080   3.329  1.00  0.00     0.047 A 
HETATM   18  C   UNL     1      39.121 -12.056   3.060  1.00  0.00     0.092 A 
HETATM   19  N   UNL     1      38.639 -11.867   1.827  1.00  0.00    -0.351 N 
HETATM   20  H   UNL     1      37.983 -11.110   1.643  1.00  0.00     0.166 HD
HETATM   21  C   UNL     1      39.038 -12.702   0.831  1.00  0.00     0.117 A 
HETATM   22  N   UNL     1      38.661 -12.663  -0.485  1.00  0.00    -0.352 N 
HETATM   23  C   UNL     1      39.928 -13.752   1.019  1.00  0.00     0.036 A 
HETATM   24  H   UNL     1      38.026 -12.005  -0.919  1.00  0.00     0.166 HD
HETATM   25  C   UNL     1      39.300 -13.673  -1.158  1.00  0.00     0.090 A 
HETATM   26  C   UNL     1      40.087 -14.362  -0.258  1.00  0.00     0.034 A 
ENDBRANCH   3  16
TORSDOF 4
ENDMDL
MODEL 5
REMARK VINA RESULT:      -7.4      4.935      6.893
REMARK  4 active torsions:
REMARK  status: ('A' for Active; 'I' for Inactive)
REMARK    1  A    between atoms: C_2  and  N_3 
REMARK    2  A    between atoms: C_2  and  C_4 
REMARK    3  A    between atoms: C_7  and  C_10 
REMARK       I    between atoms: C_10  and  N_12 
REMARK    4  A    between atoms: N_12  and  C_13 
ROOT
HETATM    1  C   UNL     1      42.321 -14.341   4.132  1.00  0.00     0.226 C 
HETATM    2  O   UNL     1      42.690 -13.551   3.264  1.00  0.00    -0.273 OA
HETATM    3  N   UNL     1      41.901 -13.938   5.389  1.00  0.00    -0.326 N 
HETATM    4  H   UNL     1      41.399 -14.615   5.949  1.00  0.00     0.169 HD
ENDROOT
BRANCH   1   5
HETATM    5  C   UNL     1      42.398 -15.864   3.910  1.00  0.00     0.078 C 
HETATM    6  C   UNL     1      43.569 -16.436   4.732  1.00  0.00     0.014 C 
HETATM    7  C   UNL     1      43.718 -17.947   4.577  1.00  0.00     0.007 C 
HETATM    8  C   UNL     1      43.863 -18.356   3.103  1.00  0.00     0.018 C 
HETATM    9  C   UNL     1      42.664 -17.820   2.303  1.00  0.00     0.007 C 
HETATM   10  C   UNL     1      42.517 -16.304   2.445  1.00  0.00     0.014 C 
BRANCH   8  11
HETATM   11  C   UNL     1      44.091 -19.884   2.948  1.00  0.00     0.218 C 
HETATM   12  C   UNL     1      43.899 -20.695   4.230  1.00  0.00     0.043 C 
BRANCH  11  13
HETATM   13  N   UNL     1      43.199 -20.422   1.917  1.00  0.00     0.082 N 
HETATM   14  H   UNL     1      43.749 -20.880   1.190  1.00  0.00     0.313 HD
HETATM   15  H   UNL     1      42.707 -19.658   1.455  1.00  0.00     0.313 HD
ENDBRANCH  11  13
ENDBRANCH   8  11
ENDBRANCH   1   5
BRANCH   3  16
HETATM   16  C   UNL     1      41.913 -12.614   5.880  1.00  0.00     0.050 A 
HETATM   17  C   UNL     1      40.787 -11.774   5.857  1.00  0.00     0.047 A 
HETATM   18  C   UNL     1      40.851 -10.477   6.349  1.00  0.00     0.092 A 
HETATM   19  N   UNL     1      41.986  -9.986   6.855  1.00  0.00    -0.351 N 
HETATM   20  H   UNL     1      42.017  -9.034   7.216  1.00  0.00     0.166 HD
HETATM   21  C   UNL     1      43.091 -10.776   6.876  1.00  0.00     0.117 A 
HETATM   22  N   UNL     1      44.333 -10.454   7.356  1.00  0.00    -0.352 N 
HETATM   23  C   UNL     1      43.113 -12.081   6.399  1.00  0.00     0.036 A 
HETATM   24  H   UNL     1      44.619  -9.575   7.770  1.00  0.00     0.166 HD
HETATM   25  C   UNL     1      45.162 -11.537   7.202  1.00  0.00     0.090 A 
HETATM   26  C   UNL     1      44.438 -12.553   6.614  1.00  0.00     0.034 A 
ENDBRANCH   3  16
TORSDOF 4
ENDMDL
MODEL 6
REMARK VINA RESULT:      -7.4      5.189      6.844
REMARK  4 active torsions:
REMARK  status: ('A' for Active; 'I' for Inactive)
REMARK    1  A    between atoms: C_2  and  N_3 
REMARK    2  A    between atoms: C_2  and  C_4 
REMARK    3  A    between atoms: C_7  and  C_10 
REMARK       I    between atoms: C_10  and  N_12 
REMARK    4  A    between atoms: N_12  and  C_13 
ROOT
HETATM    1  C   UNL     1      42.979 -14.341   4.259  1.00  0.00     0.226 C 
HETATM    2  O   UNL     1      43.085 -13.484   3.382  1.00  0.00    -0.273 OA
HETATM    3  N   UNL     1      43.066 -14.050   5.611  1.00  0.00    -0.326 N 
HETATM    4  H   UNL     1      42.737 -14.754   6.258  1.00  0.00     0.169 HD
ENDROOT
BRANCH   1   5
HETATM    5  C   UNL     1      42.840 -15.834   3.905  1.00  0.00     0.078 C 
HETATM    6  C   UNL     1      43.741 -16.661   4.841  1.00  0.00     0.014 C 
HETATM    7  C   UNL     1      43.662 -18.160   4.564  1.00  0.00     0.007 C 
HETATM    8  C   UNL     1      43.988 -18.487   3.098  1.00  0.00     0.018 C 
HETATM    9  C   UNL     1      43.051 -17.690   2.175  1.00  0.00     0.007 C 
HETATM   10  C   UNL     1      43.135 -16.185   2.440  1.00  0.00     0.014 C 
BRANCH   8  11
HETATM   11  C   UNL     1      43.984 -20.016   2.832  1.00  0.00     0.218 C 
HETATM   12  C   UNL     1      43.862 -20.885   4.085  1.00  0.00     0.043 C 
BRANCH  11  13
HETATM   13  N   UNL     1      42.893 -20.362   1.916  1.00  0.00     0.082 N 
HETATM   14  H   UNL     1      43.277 -20.631   1.010  1.00  0.00     0.313 HD
HETATM   15  H   UNL     1      42.316 -19.541   1.742  1.00  0.00     0.313 HD
ENDBRANCH  11  13
ENDBRANCH   8  11
ENDBRANCH   1   5
BRANCH   3  16
HETATM   16  C   UNL     1      43.365 -12.788   6.168  1.00  0.00     0.050 A 
HETATM   17  C   UNL     1      44.639 -12.440   6.647  1.00  0.00     0.047 A 
HETATM   18  C   UNL     1      44.883 -11.186   7.190  1.00  0.00     0.092 A 
HETATM   19  N   UNL     1      43.912 -10.271   7.277  1.00  0.00    -0.351 N 
HETATM   20  H   UNL     1      44.106  -9.353   7.675  1.00  0.00     0.166 HD
HETATM   21  C   UNL     1      42.669 -10.589   6.831  1.00  0.00     0.117 A 
HETATM   22  N   UNL     1      41.557  -9.789   6.833  1.00  0.00    -0.352 N 
HETATM   23  C   UNL     1      42.341 -11.822   6.282  1.00  0.00     0.036 A 
HETATM   24  H   UNL     1      41.490  -8.836   7.167  1.00  0.00     0.166 HD
HETATM   25  C   UNL     1      40.510 -10.486   6.284  1.00  0.00     0.090 A 
HETATM   26  C   UNL     1      40.962 -11.742   5.937  1.00  0.00     0.034 A 
ENDBRANCH   3  16
TORSDOF 4
ENDMDL
MODEL 7
REMARK VINA RESULT:      -7.3      2.119      3.566
REMARK  4 active torsions:
REMARK  status: ('A' for Active; 'I' for Inactive)
REMARK    1  A    between atoms: C_2  and  N_3 
REMARK    2  A    between atoms: C_2  and  C_4 
REMARK    3  A    between atoms: C_7  and  C_10 
REMARK       I    between atoms: C_10  and  N_12 
REMARK    4  A    between atoms: N_12  and  C_13 
ROOT
HETATM    1  C   UNL     1      42.796 -15.095   1.939  1.00  0.00     0.226 C 
HETATM    2  O   UNL     1      43.299 -13.974   1.878  1.00  0.00    -0.273 OA
HETATM    3  N   UNL     1      41.512 -15.371   1.497  1.00  0.00    -0.326 N 
HETATM    4  H   UNL     1      41.266 -16.342   1.365  1.00  0.00     0.169 HD
ENDROOT
BRANCH   1   5
HETATM    5  C   UNL     1      43.536 -16.267   2.613  1.00  0.00     0.078 C 
HETATM    6  C   UNL     1      43.042 -17.593   2.005  1.00  0.00     0.014 C 
HETATM    7  C   UNL     1      43.728 -18.814   2.612  1.00  0.00     0.007 C 
HETATM    8  C   UNL     1      43.579 -18.849   4.142  1.00  0.00     0.018 C 
HETATM    9  C   UNL     1      44.119 -17.539   4.739  1.00  0.00     0.007 C 
HETATM   10  C   UNL     1      43.426 -16.313   4.143  1.00  0.00     0.014 C 
BRANCH   8  11
HETATM   11  C   UNL     1      44.210 -20.129   4.754  1.00  0.00     0.218 C 
HETATM   12  C   UNL     1      43.683 -20.505   6.139  1.00  0.00     0.043 C 
BRANCH  11  13
HETATM   13  N   UNL     1      44.009 -21.266   3.852  1.00  0.00     0.082 N 
HETATM   14  H   UNL     1      43.047 -21.599   3.926  1.00  0.00     0.313 HD
HETATM   15  H   UNL     1      44.596 -22.046   4.146  1.00  0.00     0.313 HD
ENDBRANCH  11  13
ENDBRANCH   8  11
ENDBRANCH   1   5
BRANCH   3  16
HETATM   16  C   UNL     1      40.585 -14.424   1.008  1.00  0.00     0.050 A 
HETATM   17  C   UNL     1      40.215 -14.335  -0.344  1.00  0.00     0.047 A 
HETATM   18  C   UNL     1      39.302 -13.384  -0.776  1.00  0.00     0.092 A 
HETATM   19  N   UNL     1      38.748 -12.519   0.080  1.00  0.00    -0.351 N 
HETATM   20  H   UNL     1      38.076 -11.828  -0.251  1.00  0.00     0.166 HD
HETATM   21  C   UNL     1      39.100 -12.578   1.391  1.00  0.00     0.117 A 
HETATM   22  N   UNL     1      38.640 -11.787   2.410  1.00  0.00    -0.352 N 
HETATM   23  C   UNL     1      40.010 -13.494   1.903  1.00  0.00     0.036 A 
HETATM   24  H   UNL     1      37.965 -11.034   2.343  1.00  0.00     0.166 HD
HETATM   25  C   UNL     1      39.236 -12.181   3.581  1.00  0.00     0.090 A 
HETATM   26  C   UNL     1      40.086 -13.231   3.300  1.00  0.00     0.034 A 
ENDBRANCH   3  16
TORSDOF 4
ENDMDL
MODEL 8
REMARK VINA RESULT:      -7.2      1.924      8.121
REMARK  4 active torsions:
REMARK  status: ('A' for Active; 'I' for Inactive)
REMARK    1  A    between atoms: C_2  and  N_3 
REMARK    2  A    between atoms: C_2  and  C_4 
REMARK    3  A    between atoms: C_7  and  C_10 
REMARK       I    between atoms: C_10  and  N_12 
REMARK    4  A    between atoms: N_12  and  C_13 
ROOT
HETATM    1  C   UNL     1      42.449 -15.096   2.149  1.00  0.00     0.226 C 
HETATM    2  O   UNL     1      43.379 -14.450   2.632  1.00  0.00    -0.273 OA
HETATM    3  N   UNL     1      42.087 -16.352   2.604  1.00  0.00    -0.326 N 
HETATM    4  H   UNL     1      41.183 -16.706   2.321  1.00  0.00     0.169 HD
ENDROOT
BRANCH   1   5
HETATM    5  C   UNL     1      41.675 -14.583   0.918  1.00  0.00     0.078 C 
HETATM    6  C   UNL     1      41.468 -13.062   1.050  1.00  0.00     0.014 C 
HETATM    7  C   UNL     1      40.711 -12.465  -0.133  1.00  0.00     0.007 C 
HETATM    8  C   UNL     1      39.360 -13.162  -0.356  1.00  0.00     0.018 C 
HETATM    9  C   UNL     1      39.586 -14.672  -0.533  1.00  0.00     0.007 C 
HETATM   10  C   UNL     1      40.333 -15.279   0.656  1.00  0.00     0.014 C 
BRANCH   8  11
HETATM   11  C   UNL     1      38.555 -12.506  -1.511  1.00  0.00     0.218 C 
HETATM   12  C   UNL     1      39.392 -12.095  -2.723  1.00  0.00     0.043 C 
BRANCH  11  13
HETATM   13  N   UNL     1      37.495 -13.412  -1.960  1.00  0.00     0.082 N 
HETATM   14  H   UNL     1      37.597 -14.317  -1.500  1.00  0.00     0.313 HD
HETATM   15  H   UNL     1      37.598 -13.594  -2.957  1.00  0.00     0.313 HD
ENDBRANCH  11  13
ENDBRANCH   8  11
ENDBRANCH   1   5
BRANCH   3  16
HETATM   16  C   UNL     1      42.759 -17.097   3.598  1.00  0.00     0.050 A 
HETATM   17  C   UNL     1      43.646 -18.146   3.306  1.00  0.00     0.047 A 
HETATM   18  C   UNL     1      44.281 -18.852   4.320  1.00  0.00     0.092 A 
HETATM   19  N   UNL     1      44.064 -18.557   5.606  1.00  0.00    -0.351 N 
HETATM   20  H   UNL     1      44.539 -19.081   6.339  1.00  0.00     0.166 HD
HETATM   21  C   UNL     1      43.200 -17.554   5.913  1.00  0.00     0.117 A 
HETATM   22  N   UNL     1      42.857 -17.107   7.161  1.00  0.00    -0.352 N 
HETATM   23  C   UNL     1      42.521 -16.805   4.960  1.00  0.00     0.036 A 
HETATM   24  H   UNL     1      43.195 -17.457   8.050  1.00  0.00     0.166 HD
HETATM   25  C   UNL     1      41.966 -16.072   7.031  1.00  0.00     0.090 A 
HETATM   26  C   UNL     1      41.739 -15.864   5.687  1.00  0.00     0.034 A 
ENDBRANCH   3  16
TORSDOF 4
ENDMDL
MODEL 9
REMARK VINA RESULT:      -7.2      1.814      7.970
REMARK  4 active torsions:
REMARK  status: ('A' for Active; 'I' for Inactive)
REMARK    1  A    between atoms: C_2  and  N_3 
REMARK    2  A    between atoms: C_2  and  C_4 
REMARK    3  A    between atoms: C_7  and  C_10 
REMARK       I    between atoms: C_10  and  N_12 
REMARK    4  A    between atoms: N_12  and  C_13 
ROOT
HETATM    1  C   UNL     1      42.172 -14.581   2.577  1.00  0.00     0.226 C 
HETATM    2  O   UNL     1      43.168 -13.985   2.986  1.00  0.00    -0.273 OA
HETATM    3  N   UNL     1      41.599 -15.645   3.252  1.00  0.00    -0.326 N 
HETATM    4  H   UNL     1      40.665 -15.919   2.978  1.00  0.00     0.169 HD
ENDROOT
BRANCH   1   5
HETATM    5  C   UNL     1      41.544 -14.240   1.211  1.00  0.00     0.078 C 
HETATM    6  C   UNL     1      41.156 -12.750   1.190  1.00  0.00     0.014 C 
HETATM    7  C   UNL     1      40.528 -12.321  -0.133  1.00  0.00     0.007 C 
HETATM    8  C   UNL     1      39.310 -13.186  -0.493  1.00  0.00     0.018 C 
HETATM    9  C   UNL     1      39.722 -14.667  -0.515  1.00  0.00     0.007 C 
HETATM   10  C   UNL     1      40.341 -15.106   0.814  1.00  0.00     0.014 C 
BRANCH   8  11
HETATM   11  C   UNL     1      38.625 -12.703  -1.799  1.00  0.00     0.218 C 
HETATM   12  C   UNL     1      39.499 -12.786  -3.051  1.00  0.00     0.043 C 
BRANCH  11  13
HETATM   13  N   UNL     1      37.398 -13.469  -2.034  1.00  0.00     0.082 N 
HETATM   14  H   UNL     1      37.634 -14.436  -2.260  1.00  0.00     0.313 HD
HETATM   15  H   UNL     1      36.914 -13.103  -2.853  1.00  0.00     0.313 HD
ENDBRANCH  11  13
ENDBRANCH   8  11
ENDBRANCH   1   5
BRANCH   3  16
HETATM   16  C   UNL     1      42.102 -16.246   4.427  1.00  0.00     0.050 A 
HETATM   17  C   UNL     1      41.799 -15.785   5.719  1.00  0.00     0.047 A 
HETATM   18  C   UNL     1      42.322 -16.408   6.844  1.00  0.00     0.092 A 
HETATM   19  N   UNL     1      43.134 -17.464   6.733  1.00  0.00    -0.351 N 
HETATM   20  H   UNL     1      43.507 -17.913   7.567  1.00  0.00     0.166 HD
HETATM   21  C   UNL     1      43.451 -17.920   5.493  1.00  0.00     0.117 A 
HETATM   22  N   UNL     1      44.256 -18.984   5.181  1.00  0.00    -0.352 N 
HETATM   23  C   UNL     1      42.976 -17.350   4.319  1.00  0.00     0.036 A 
HETATM   24  H   UNL     1      44.739 -19.595   5.829  1.00  0.00     0.166 HD
HETATM   25  C   UNL     1      44.305 -19.116   3.816  1.00  0.00     0.090 A 
HETATM   26  C   UNL     1      43.527 -18.123   3.258  1.00  0.00     0.034 A 
ENDBRANCH   3  16
TORSDOF 4
ENDMDL
MODEL 10
REMARK VINA RESULT:      -6.9     14.758     15.961
REMARK  4 active torsions:
REMARK  status: ('A' for Active; 'I' for Inactive)
REMARK    1  A    between atoms: C_2  and  N_3 
REMARK    2  A    between atoms: C_2  and  C_4 
REMARK    3  A    between atoms: C_7  and  C_10 
REMARK       I    between atoms: C_10  and  N_12 
REMARK    4  A    between atoms: N_12  and  C_13 
ROOT
HETATM    1  C   UNL     1      43.245 -30.325   0.515  1.00  0.00     0.226 C 
HETATM    2  O   UNL     1      43.877 -31.315   0.146  1.00  0.00    -0.273 OA
HETATM    3  N   UNL     1      43.570 -29.036   0.127  1.00  0.00    -0.326 N 
HETATM    4  H   UNL     1      42.875 -28.318   0.278  1.00  0.00     0.169 HD
ENDROOT
BRANCH   1   5
HETATM    5  C   UNL     1      42.093 -30.447   1.531  1.00  0.00     0.078 C 
HETATM    6  C   UNL     1      42.640 -30.190   2.948  1.00  0.00     0.014 C 
HETATM    7  C   UNL     1      41.561 -30.285   4.024  1.00  0.00     0.007 C 
HETATM    8  C   UNL     1      40.830 -31.636   3.980  1.00  0.00     0.018 C 
HETATM    9  C   UNL     1      40.249 -31.858   2.574  1.00  0.00     0.007 C 
HETATM   10  C   UNL     1      41.327 -31.776   1.492  1.00  0.00     0.014 C 
BRANCH   8  11
HETATM   11  C   UNL     1      39.785 -31.764   5.121  1.00  0.00     0.218 C 
HETATM   12  C   UNL     1      38.809 -32.932   4.970  1.00  0.00     0.043 C 
BRANCH  11  13
HETATM   13  N   UNL     1      40.466 -31.889   6.413  1.00  0.00     0.082 N 
HETATM   14  H   UNL     1      39.970 -31.344   7.118  1.00  0.00     0.313 HD
HETATM   15  H   UNL     1      41.398 -31.482   6.351  1.00  0.00     0.313 HD
ENDBRANCH  11  13
ENDBRANCH   8  11
ENDBRANCH   1   5
BRANCH   3  16
HETATM   16  C   UNL     1      44.687 -28.664  -0.653  1.00  0.00     0.050 A 
HETATM   17  C   UNL     1      44.642 -28.535  -2.051  1.00  0.00     0.047 A 
HETATM   18  C   UNL     1      45.769 -28.170  -2.774  1.00  0.00     0.092 A 
HETATM   19  N   UNL     1      46.935 -27.934  -2.163  1.00  0.00    -0.351 N 
HETATM   20  H   UNL     1      47.753 -27.663  -2.705  1.00  0.00     0.166 HD
HETATM   21  C   UNL     1      47.005 -28.064  -0.812  1.00  0.00     0.117 A 
HETATM   22  N   UNL     1      48.101 -27.862  -0.015  1.00  0.00    -0.352 N 
HETATM   23  C   UNL     1      45.927 -28.431  -0.017  1.00  0.00     0.036 A 
HETATM   24  H   UNL     1      49.028 -27.582  -0.311  1.00  0.00     0.166 HD
HETATM   25  C   UNL     1      47.745 -28.086   1.291  1.00  0.00     0.090 A 
HETATM   26  C   UNL     1      46.412 -28.440   1.321  1.00  0.00     0.034 A 
ENDBRANCH   3  16
TORSDOF 4
ENDMDL
