MODEL 1
REMARK VINA RESULT:      -8.4      0.000      0.000
REMARK  6 active torsions:
REMARK  status: ('A' for Active; 'I' for Inactive)
REMARK    1  A    between atoms: O_2  and  C_3 
REMARK    2  A    between atoms: C_6  and  C_7 
REMARK    3  A    between atoms: C_12  and  C_13 
REMARK       I    between atoms: C_13  and  N_14 
REMARK    4  A    between atoms: N_14  and  C_15 
REMARK    5  A    between atoms: C_17  and  O_18 
REMARK    6  A    between atoms: C_24  and  C_25 
ROOT
HETATM    1  C   UNL     1      44.468  -9.216  10.134  1.00  0.00     0.118 C 
HETATM    2  N   UNL     1      44.481 -10.535   9.512  1.00  0.00    -0.366 N 
HETATM    3  C   UNL     1      44.023 -10.769   8.265  1.00  0.00     0.123 A 
HETATM    4  N   UNL     1      43.402  -9.798   7.535  1.00  0.00    -0.240 N 
HETATM    5  N   UNL     1      43.076 -10.173   6.284  1.00  0.00    -0.165 NA
HETATM    6  C   UNL     1      43.440 -11.477   6.244  1.00  0.00     0.148 A 
HETATM    7  C   UNL     1      44.035 -11.884   7.471  1.00  0.00     0.089 A 
HETATM    8  C   UNL     1      43.166  -8.453   8.022  1.00  0.00     0.221 C 
HETATM    9  C   UNL     1      44.199  -8.101   9.105  1.00  0.00     0.066 C 
HETATM   10  H   UNL     1      44.903 -11.278  10.069  1.00  0.00     0.161 HD
ENDROOT
BRANCH   6  11
HETATM   11  C   UNL     1      43.234 -12.313   5.047  1.00  0.00     0.276 C 
HETATM   12  N   UNL     1      42.466 -13.428   5.325  1.00  0.00    -0.322 N 
HETATM   13  H   UNL     1      42.179 -13.486   6.299  1.00  0.00     0.169 HD
HETATM   14  O   UNL     1      43.711 -12.004   3.961  1.00  0.00    -0.266 OA
BRANCH  12  15
HETATM   15  C   UNL     1      42.057 -14.449   4.449  1.00  0.00     0.037 A 
HETATM   16  C   UNL     1      40.793 -14.503   3.858  1.00  0.00     0.066 A 
HETATM   17  C   UNL     1      40.474 -15.556   3.000  1.00  0.00     0.067 A 
HETATM   18  C   UNL     1      41.394 -16.559   2.721  1.00  0.00     0.036 A 
HETATM   19  C   UNL     1      42.656 -16.511   3.307  1.00  0.00     0.005 A 
HETATM   20  C   UNL     1      42.986 -15.459   4.168  1.00  0.00     0.029 A 
BRANCH  17  21
HETATM   21  O   UNL     1      39.248 -15.638   2.406  1.00  0.00    -0.361 OA
HETATM   22  H   UNL     1      39.037 -14.770   2.021  1.00  0.00     0.217 HD
ENDBRANCH  17  21
ENDBRANCH  12  15
ENDBRANCH   6  11
BRANCH   8  23
HETATM   23  C   UNL     1      41.727  -8.308   8.459  1.00  0.00     0.409 C 
HETATM   24  F   UNL     1      41.183  -9.438   8.945  1.00  0.00    -0.169 F 
HETATM   25  F   UNL     1      41.627  -7.361   9.427  1.00  0.00    -0.169 F 
HETATM   26  F   UNL     1      40.939  -7.889   7.440  1.00  0.00    -0.169 F 
ENDBRANCH   8  23
BRANCH   1  27
HETATM   27  C   UNL     1      43.587  -9.162  11.369  1.00  0.00    -0.035 A 
HETATM   28  C   UNL     1      43.656  -8.040  12.212  1.00  0.00     0.012 A 
HETATM   29  C   UNL     1      42.877  -7.951  13.374  1.00  0.00     0.037 A 
HETATM   30  C   UNL     1      42.010  -8.984  13.716  1.00  0.00     0.068 A 
HETATM   31  C   UNL     1      41.937 -10.107  12.891  1.00  0.00     0.037 A 
HETATM   32  C   UNL     1      42.718 -10.199  11.735  1.00  0.00     0.012 A 
BRANCH  30  33
HETATM   33  O   UNL     1      41.196  -9.025  14.813  1.00  0.00    -0.356 OA
HETATM   34  C   UNL     1      41.350  -7.983  15.768  1.00  0.00     0.210 C 
ENDBRANCH  30  33
ENDBRANCH   1  27
TORSDOF 6
ENDMDL
MODEL 2
REMARK VINA RESULT:      -8.4      3.764      9.543
REMARK  6 active torsions:
REMARK  status: ('A' for Active; 'I' for Inactive)
REMARK    1  A    between atoms: O_2  and  C_3 
REMARK    2  A    between atoms: C_6  and  C_7 
REMARK    3  A    between atoms: C_12  and  C_13 
REMARK       I    between atoms: C_13  and  N_14 
REMARK    4  A    between atoms: N_14  and  C_15 
REMARK    5  A    between atoms: C_17  and  O_18 
REMARK    6  A    between atoms: C_24  and  C_25 
ROOT
HETATM    1  C   UNL     1      40.670 -15.173   3.391  1.00  0.00     0.118 C 
HETATM    2  N   UNL     1      40.199 -14.602   4.648  1.00  0.00    -0.366 N 
HETATM    3  C   UNL     1      40.336 -13.298   4.965  1.00  0.00     0.123 A 
HETATM    4  N   UNL     1      41.036 -12.437   4.171  1.00  0.00    -0.240 N 
HETATM    5  N   UNL     1      41.010 -11.157   4.589  1.00  0.00    -0.165 NA
HETATM    6  C   UNL     1      40.321 -11.224   5.754  1.00  0.00     0.148 A 
HETATM    7  C   UNL     1      39.886 -12.553   6.021  1.00  0.00     0.089 A 
HETATM    8  C   UNL     1      41.698 -12.832   2.944  1.00  0.00     0.221 C 
HETATM    9  C   UNL     1      41.017 -14.080   2.361  1.00  0.00     0.066 C 
HETATM   10  H   UNL     1      39.714 -15.250   5.268  1.00  0.00     0.161 HD
ENDROOT
BRANCH   6  11
HETATM   11  C   UNL     1      40.073 -10.034   6.588  1.00  0.00     0.276 C 
HETATM   12  N   UNL     1      40.528 -10.209   7.882  1.00  0.00    -0.322 N 
HETATM   13  H   UNL     1      40.948 -11.122   8.040  1.00  0.00     0.169 HD
HETATM   14  O   UNL     1      39.526  -9.036   6.132  1.00  0.00    -0.266 OA
BRANCH  12  15
HETATM   15  C   UNL     1      40.474  -9.306   8.958  1.00  0.00     0.037 A 
HETATM   16  C   UNL     1      39.313  -9.035   9.687  1.00  0.00     0.066 A 
HETATM   17  C   UNL     1      39.354  -8.122  10.740  1.00  0.00     0.067 A 
HETATM   18  C   UNL     1      40.533  -7.470  11.080  1.00  0.00     0.036 A 
HETATM   19  C   UNL     1      41.693  -7.736  10.358  1.00  0.00     0.005 A 
HETATM   20  C   UNL     1      41.663  -8.650   9.301  1.00  0.00     0.029 A 
BRANCH  17  21
HETATM   21  O   UNL     1      38.238  -7.836  11.472  1.00  0.00    -0.361 OA
HETATM   22  H   UNL     1      37.552  -7.506  10.867  1.00  0.00     0.217 HD
ENDBRANCH  17  21
ENDBRANCH  12  15
ENDBRANCH   6  11
BRANCH   8  23
HETATM   23  C   UNL     1      43.182 -12.984   3.185  1.00  0.00     0.409 C 
HETATM   24  F   UNL     1      43.496 -13.448   4.408  1.00  0.00    -0.169 F 
HETATM   25  F   UNL     1      43.717 -13.841   2.278  1.00  0.00    -0.169 F 
HETATM   26  F   UNL     1      43.834 -11.808   3.021  1.00  0.00    -0.169 F 
ENDBRANCH   8  23
BRANCH   1  27
HETATM   27  C   UNL     1      41.754 -16.217   3.594  1.00  0.00    -0.035 A 
HETATM   28  C   UNL     1      42.225 -16.940   2.485  1.00  0.00     0.012 A 
HETATM   29  C   UNL     1      43.210 -17.927   2.623  1.00  0.00     0.037 A 
HETATM   30  C   UNL     1      43.746 -18.210   3.875  1.00  0.00     0.068 A 
HETATM   31  C   UNL     1      43.282 -17.504   4.985  1.00  0.00     0.037 A 
HETATM   32  C   UNL     1      42.295 -16.523   4.849  1.00  0.00     0.012 A 
BRANCH  30  33
HETATM   33  O   UNL     1      44.709 -19.141   4.149  1.00  0.00    -0.356 OA
HETATM   34  C   UNL     1      44.308 -20.282   4.897  1.00  0.00     0.210 C 
ENDBRANCH  30  33
ENDBRANCH   1  27
TORSDOF 6
ENDMDL
MODEL 3
REMARK VINA RESULT:      -8.2      3.221      9.791
REMARK  6 active torsions:
REMARK  status: ('A' for Active; 'I' for Inactive)
REMARK    1  A    between atoms: O_2  and  C_3 
REMARK    2  A    between atoms: C_6  and  C_7 
REMARK    3  A    between atoms: C_12  and  C_13 
REMARK       I    between atoms: C_13  and  N_14 
REMARK    4  A    between atoms: N_14  and  C_15 
REMARK    5  A    between atoms: C_17  and  O_18 
REMARK    6  A    between atoms: C_24  and  C_25 
ROOT
HETATM    1  C   UNL     1      43.096 -13.816   2.509  1.00  0.00     0.118 C 
HETATM    2  N   UNL     1      43.601 -12.608   3.151  1.00  0.00    -0.366 N 
HETATM    3  C   UNL     1      43.622 -12.435   4.488  1.00  0.00     0.123 A 
HETATM    4  N   UNL     1      43.060 -13.343   5.338  1.00  0.00    -0.240 N 
HETATM    5  N   UNL     1      43.237 -13.059   6.643  1.00  0.00    -0.165 NA
HETATM    6  C   UNL     1      43.879 -11.867   6.618  1.00  0.00     0.148 A 
HETATM    7  C   UNL     1      44.134 -11.445   5.283  1.00  0.00     0.089 A 
HETATM    8  C   UNL     1      42.387 -14.548   4.897  1.00  0.00     0.221 C 
HETATM    9  C   UNL     1      42.920 -14.968   3.518  1.00  0.00     0.066 C 
HETATM   10  H   UNL     1      43.982 -11.903   2.520  1.00  0.00     0.161 HD
ENDROOT
BRANCH   6  11
HETATM   11  C   UNL     1      44.253 -11.152   7.852  1.00  0.00     0.276 C 
HETATM   12  N   UNL     1      43.176 -10.487   8.408  1.00  0.00    -0.322 N 
HETATM   13  H   UNL     1      42.317 -10.598   7.876  1.00  0.00     0.169 HD
HETATM   14  O   UNL     1      45.400 -11.181   8.285  1.00  0.00    -0.266 OA
BRANCH  12  15
HETATM   15  C   UNL     1      43.139  -9.706   9.577  1.00  0.00     0.037 A 
HETATM   16  C   UNL     1      42.937  -8.324   9.581  1.00  0.00     0.066 A 
HETATM   17  C   UNL     1      42.915  -7.631  10.791  1.00  0.00     0.067 A 
HETATM   18  C   UNL     1      43.094  -8.290  12.000  1.00  0.00     0.036 A 
HETATM   19  C   UNL     1      43.295  -9.668  12.003  1.00  0.00     0.005 A 
HETATM   20  C   UNL     1      43.318 -10.373  10.796  1.00  0.00     0.029 A 
BRANCH  17  21
HETATM   21  O   UNL     1      42.719  -6.280  10.829  1.00  0.00    -0.361 OA
HETATM   22  H   UNL     1      43.332  -5.865  10.198  1.00  0.00     0.217 HD
ENDBRANCH  17  21
ENDBRANCH  12  15
ENDBRANCH   6  11
BRANCH   8  23
HETATM   23  C   UNL     1      40.890 -14.353   4.957  1.00  0.00     0.409 C 
HETATM   24  F   UNL     1      40.483 -13.112   4.639  1.00  0.00    -0.169 F 
HETATM   25  F   UNL     1      40.274 -15.211   4.103  1.00  0.00    -0.169 F 
HETATM   26  F   UNL     1      40.402 -14.634   6.189  1.00  0.00    -0.169 F 
ENDBRANCH   8  23
BRANCH   1  27
HETATM   27  C   UNL     1      41.883 -13.550   1.636  1.00  0.00    -0.035 A 
HETATM   28  C   UNL     1      41.261 -14.627   0.981  1.00  0.00     0.012 A 
HETATM   29  C   UNL     1      40.151 -14.431   0.148  1.00  0.00     0.037 A 
HETATM   30  C   UNL     1      39.637 -13.152  -0.044  1.00  0.00     0.068 A 
HETATM   31  C   UNL     1      40.250 -12.074   0.595  1.00  0.00     0.037 A 
HETATM   32  C   UNL     1      41.361 -12.268   1.421  1.00  0.00     0.012 A 
BRANCH  30  33
HETATM   33  O   UNL     1      38.564 -12.822  -0.823  1.00  0.00    -0.356 OA
HETATM   34  C   UNL     1      38.353 -13.601  -1.993  1.00  0.00     0.210 C 
ENDBRANCH  30  33
ENDBRANCH   1  27
TORSDOF 6
ENDMDL
MODEL 4
REMARK VINA RESULT:      -8.2     20.273     22.691
REMARK  6 active torsions:
REMARK  status: ('A' for Active; 'I' for Inactive)
REMARK    1  A    between atoms: O_2  and  C_3 
REMARK    2  A    between atoms: C_6  and  C_7 
REMARK    3  A    between atoms: C_12  and  C_13 
REMARK       I    between atoms: C_13  and  N_14 
REMARK    4  A    between atoms: N_14  and  C_15 
REMARK    5  A    between atoms: C_17  and  O_18 
REMARK    6  A    between atoms: C_24  and  C_25 
ROOT
HETATM    1  C   UNL     1      45.615 -27.893  -0.865  1.00  0.00     0.118 C 
HETATM    2  N   UNL     1      45.327 -28.591   0.382  1.00  0.00    -0.366 N 
HETATM    3  C   UNL     1      46.287 -29.037   1.219  1.00  0.00     0.123 A 
HETATM    4  N   UNL     1      47.610 -28.966   0.894  1.00  0.00    -0.240 N 
HETATM    5  N   UNL     1      48.440 -29.381   1.871  1.00  0.00    -0.165 NA
HETATM    6  C   UNL     1      47.593 -29.811   2.837  1.00  0.00     0.148 A 
HETATM    7  C   UNL     1      46.236 -29.612   2.459  1.00  0.00     0.089 A 
HETATM    8  C   UNL     1      48.104 -28.430  -0.359  1.00  0.00     0.221 C 
HETATM    9  C   UNL     1      47.085 -27.435  -0.938  1.00  0.00     0.066 C 
HETATM   10  H   UNL     1      44.338 -28.689   0.611  1.00  0.00     0.161 HD
ENDROOT
BRANCH   6  11
HETATM   11  C   UNL     1      48.078 -30.389   4.104  1.00  0.00     0.276 C 
HETATM   12  N   UNL     1      49.388 -30.820   4.005  1.00  0.00    -0.322 N 
HETATM   13  H   UNL     1      49.791 -30.671   3.083  1.00  0.00     0.169 HD
HETATM   14  O   UNL     1      47.358 -30.453   5.094  1.00  0.00    -0.266 OA
BRANCH  12  15
HETATM   15  C   UNL     1      50.189 -31.417   4.994  1.00  0.00     0.037 A 
HETATM   16  C   UNL     1      51.441 -30.930   5.376  1.00  0.00     0.066 A 
HETATM   17  C   UNL     1      52.167 -31.589   6.369  1.00  0.00     0.067 A 
HETATM   18  C   UNL     1      51.668 -32.728   6.987  1.00  0.00     0.036 A 
HETATM   19  C   UNL     1      50.420 -33.219   6.611  1.00  0.00     0.005 A 
HETATM   20  C   UNL     1      49.684 -32.565   5.618  1.00  0.00     0.029 A 
BRANCH  17  21
HETATM   21  O   UNL     1      53.393 -31.139   6.765  1.00  0.00    -0.361 OA
HETATM   22  H   UNL     1      54.012 -31.242   6.022  1.00  0.00     0.217 HD
ENDBRANCH  17  21
ENDBRANCH  12  15
ENDBRANCH   6  11
BRANCH   8  23
HETATM   23  C   UNL     1      48.477 -29.559  -1.291  1.00  0.00     0.409 C 
HETATM   24  F   UNL     1      47.759 -30.682  -1.110  1.00  0.00    -0.169 F 
HETATM   25  F   UNL     1      48.306 -29.173  -2.582  1.00  0.00    -0.169 F 
HETATM   26  F   UNL     1      49.784 -29.892  -1.168  1.00  0.00    -0.169 F 
ENDBRANCH   8  23
BRANCH   1  27
HETATM   27  C   UNL     1      45.129 -28.654  -2.086  1.00  0.00    -0.035 A 
HETATM   28  C   UNL     1      45.267 -28.071  -3.357  1.00  0.00     0.012 A 
HETATM   29  C   UNL     1      44.817 -28.724  -4.512  1.00  0.00     0.037 A 
HETATM   30  C   UNL     1      44.219 -29.978  -4.419  1.00  0.00     0.068 A 
HETATM   31  C   UNL     1      44.070 -30.565  -3.163  1.00  0.00     0.037 A 
HETATM   32  C   UNL     1      44.514 -29.911  -2.009  1.00  0.00     0.012 A 
BRANCH  30  33
HETATM   33  O   UNL     1      43.741 -30.723  -5.460  1.00  0.00    -0.356 OA
HETATM   34  C   UNL     1      44.701 -31.279  -6.349  1.00  0.00     0.210 C 
ENDBRANCH  30  33
ENDBRANCH   1  27
TORSDOF 6
ENDMDL
MODEL 5
REMARK VINA RESULT:      -8.0     20.286     22.940
REMARK  6 active torsions:
REMARK  status: ('A' for Active; 'I' for Inactive)
REMARK    1  A    between atoms: O_2  and  C_3 
REMARK    2  A    between atoms: C_6  and  C_7 
REMARK    3  A    between atoms: C_12  and  C_13 
REMARK       I    between atoms: C_13  and  N_14 
REMARK    4  A    between atoms: N_14  and  C_15 
REMARK    5  A    between atoms: C_17  and  O_18 
REMARK    6  A    between atoms: C_24  and  C_25 
ROOT
HETATM    1  C   UNL     1      44.309 -28.894  -1.115  1.00  0.00     0.118 C 
HETATM    2  N   UNL     1      44.341 -29.702   0.098  1.00  0.00    -0.366 N 
HETATM    3  C   UNL     1      45.381 -29.706   0.956  1.00  0.00     0.123 A 
HETATM    4  N   UNL     1      46.538 -29.035   0.685  1.00  0.00    -0.240 N 
HETATM    5  N   UNL     1      47.445 -29.076   1.679  1.00  0.00    -0.165 NA
HETATM    6  C   UNL     1      46.864 -29.883   2.599  1.00  0.00     0.148 A 
HETATM    7  C   UNL     1      45.569 -30.298   2.176  1.00  0.00     0.089 A 
HETATM    8  C   UNL     1      46.763 -28.279  -0.531  1.00  0.00     0.221 C 
HETATM    9  C   UNL     1      45.417 -27.823  -1.118  1.00  0.00     0.066 C 
HETATM   10  H   UNL     1      43.497 -30.243   0.286  1.00  0.00     0.161 HD
ENDROOT
BRANCH   6  11
HETATM   11  C   UNL     1      47.531 -30.238   3.865  1.00  0.00     0.276 C 
HETATM   12  N   UNL     1      48.730 -30.890   3.649  1.00  0.00    -0.322 N 
HETATM   13  H   UNL     1      48.947 -31.017   2.663  1.00  0.00     0.169 HD
HETATM   14  O   UNL     1      47.032 -29.961   4.950  1.00  0.00    -0.266 OA
BRANCH  12  15
HETATM   15  C   UNL     1      49.644 -31.377   4.599  1.00  0.00     0.037 A 
HETATM   16  C   UNL     1      49.402 -32.487   5.411  1.00  0.00     0.066 A 
HETATM   17  C   UNL     1      50.370 -32.899   6.329  1.00  0.00     0.067 A 
HETATM   18  C   UNL     1      51.576 -32.221   6.453  1.00  0.00     0.036 A 
HETATM   19  C   UNL     1      51.824 -31.113   5.646  1.00  0.00     0.005 A 
HETATM   20  C   UNL     1      50.861 -30.694   4.723  1.00  0.00     0.029 A 
BRANCH  17  21
HETATM   21  O   UNL     1      50.164 -33.980   7.136  1.00  0.00    -0.361 OA
HETATM   22  H   UNL     1      50.935 -34.569   7.060  1.00  0.00     0.217 HD
ENDBRANCH  17  21
ENDBRANCH  12  15
ENDBRANCH   6  11
BRANCH   8  23
HETATM   23  C   UNL     1      47.622 -29.079  -1.483  1.00  0.00     0.409 C 
HETATM   24  F   UNL     1      47.399 -28.813  -2.782  1.00  0.00    -0.169 F 
HETATM   25  F   UNL     1      48.936 -28.835  -1.240  1.00  0.00    -0.169 F 
HETATM   26  F   UNL     1      47.447 -30.410  -1.308  1.00  0.00    -0.169 F 
ENDBRANCH   8  23
BRANCH   1  27
HETATM   27  C   UNL     1      44.242 -29.737  -2.376  1.00  0.00    -0.035 A 
HETATM   28  C   UNL     1      44.359 -31.135  -2.274  1.00  0.00     0.012 A 
HETATM   29  C   UNL     1      44.322 -31.955  -3.409  1.00  0.00     0.037 A 
HETATM   30  C   UNL     1      44.165 -31.393  -4.673  1.00  0.00     0.068 A 
HETATM   31  C   UNL     1      44.055 -30.008  -4.789  1.00  0.00     0.037 A 
HETATM   32  C   UNL     1      44.096 -29.188  -3.657  1.00  0.00     0.012 A 
BRANCH  30  33
HETATM   33  O   UNL     1      44.111 -32.074  -5.857  1.00  0.00    -0.356 OA
HETATM   34  C   UNL     1      44.071 -31.296  -7.046  1.00  0.00     0.210 C 
ENDBRANCH  30  33
ENDBRANCH   1  27
TORSDOF 6
ENDMDL
MODEL 6
REMARK VINA RESULT:      -7.9      5.223     11.285
REMARK  6 active torsions:
REMARK  status: ('A' for Active; 'I' for Inactive)
REMARK    1  A    between atoms: O_2  and  C_3 
REMARK    2  A    between atoms: C_6  and  C_7 
REMARK    3  A    between atoms: C_12  and  C_13 
REMARK       I    between atoms: C_13  and  N_14 
REMARK    4  A    between atoms: N_14  and  C_15 
REMARK    5  A    between atoms: C_17  and  O_18 
REMARK    6  A    between atoms: C_24  and  C_25 
ROOT
HETATM    1  C   UNL     1      43.583  -8.903  11.697  1.00  0.00     0.118 C 
HETATM    2  N   UNL     1      43.634  -7.897  12.752  1.00  0.00    -0.366 N 
HETATM    3  C   UNL     1      42.813  -7.906  13.822  1.00  0.00     0.123 A 
HETATM    4  N   UNL     1      41.790  -8.802  13.934  1.00  0.00    -0.240 N 
HETATM    5  N   UNL     1      41.116  -8.727  15.098  1.00  0.00    -0.165 NA
HETATM    6  C   UNL     1      41.694  -7.674  15.725  1.00  0.00     0.148 A 
HETATM    7  C   UNL     1      42.760  -7.134  14.952  1.00  0.00     0.089 A 
HETATM    8  C   UNL     1      41.482  -9.801  12.930  1.00  0.00     0.221 C 
HETATM    9  C   UNL     1      42.744 -10.126  12.114  1.00  0.00     0.066 C 
HETATM   10  H   UNL     1      44.367  -7.195  12.653  1.00  0.00     0.161 HD
ENDROOT
BRANCH   6  11
HETATM   11  C   UNL     1      41.241  -7.204  17.047  1.00  0.00     0.276 C 
HETATM   12  N   UNL     1      41.502  -8.130  18.039  1.00  0.00    -0.322 N 
HETATM   13  H   UNL     1      41.953  -8.973  17.693  1.00  0.00     0.169 HD
HETATM   14  O   UNL     1      40.705  -6.110  17.187  1.00  0.00    -0.266 OA
BRANCH  12  15
HETATM   15  C   UNL     1      41.222  -8.040  19.414  1.00  0.00     0.037 A 
HETATM   16  C   UNL     1      39.931  -8.055  19.946  1.00  0.00     0.066 A 
HETATM   17  C   UNL     1      39.750  -7.960  21.326  1.00  0.00     0.067 A 
HETATM   18  C   UNL     1      40.834  -7.850  22.187  1.00  0.00     0.036 A 
HETATM   19  C   UNL     1      42.124  -7.835  21.663  1.00  0.00     0.005 A 
HETATM   20  C   UNL     1      42.316  -7.930  20.282  1.00  0.00     0.029 A 
BRANCH  17  21
HETATM   21  O   UNL     1      38.501  -7.972  21.878  1.00  0.00    -0.361 OA
HETATM   22  H   UNL     1      38.587  -8.176  22.825  1.00  0.00     0.217 HD
ENDBRANCH  17  21
ENDBRANCH  12  15
ENDBRANCH   6  11
BRANCH   8  23
HETATM   23  C   UNL     1      40.300  -9.353  12.103  1.00  0.00     0.409 C 
HETATM   24  F   UNL     1      40.250  -8.027  11.886  1.00  0.00    -0.169 F 
HETATM   25  F   UNL     1      40.324  -9.960  10.888  1.00  0.00    -0.169 F 
HETATM   26  F   UNL     1      39.128  -9.711  12.679  1.00  0.00    -0.169 F 
ENDBRANCH   8  23
BRANCH   1  27
HETATM   27  C   UNL     1      43.215  -8.314  10.347  1.00  0.00    -0.035 A 
HETATM   28  C   UNL     1      43.177  -9.154   9.220  1.00  0.00     0.012 A 
HETATM   29  C   UNL     1      42.862  -8.656   7.949  1.00  0.00     0.037 A 
HETATM   30  C   UNL     1      42.576  -7.305   7.779  1.00  0.00     0.068 A 
HETATM   31  C   UNL     1      42.617  -6.459   8.887  1.00  0.00     0.037 A 
HETATM   32  C   UNL     1      42.936  -6.955  10.155  1.00  0.00     0.012 A 
BRANCH  30  33
HETATM   33  O   UNL     1      42.252  -6.691   6.601  1.00  0.00    -0.356 OA
HETATM   34  C   UNL     1      41.428  -5.536   6.682  1.00  0.00     0.210 C 
ENDBRANCH  30  33
ENDBRANCH   1  27
TORSDOF 6
ENDMDL
MODEL 7
REMARK VINA RESULT:      -7.7      2.801      3.595
REMARK  6 active torsions:
REMARK  status: ('A' for Active; 'I' for Inactive)
REMARK    1  A    between atoms: O_2  and  C_3 
REMARK    2  A    between atoms: C_6  and  C_7 
REMARK    3  A    between atoms: C_12  and  C_13 
REMARK       I    between atoms: C_13  and  N_14 
REMARK    4  A    between atoms: N_14  and  C_15 
REMARK    5  A    between atoms: C_17  and  O_18 
REMARK    6  A    between atoms: C_24  and  C_25 
ROOT
HETATM    1  C   UNL     1      41.375  -8.580  10.315  1.00  0.00     0.118 C 
HETATM    2  N   UNL     1      41.365  -8.745   8.866  1.00  0.00    -0.366 N 
HETATM    3  C   UNL     1      42.168  -9.612   8.215  1.00  0.00     0.123 A 
HETATM    4  N   UNL     1      43.137 -10.319   8.866  1.00  0.00    -0.240 N 
HETATM    5  N   UNL     1      43.796 -11.197   8.085  1.00  0.00    -0.165 NA
HETATM    6  C   UNL     1      43.269 -10.979   6.857  1.00  0.00     0.148 A 
HETATM    7  C   UNL     1      42.247  -9.989   6.902  1.00  0.00     0.089 A 
HETATM    8  C   UNL     1      43.403 -10.201  10.285  1.00  0.00     0.221 C 
HETATM    9  C   UNL     1      42.138  -9.721  11.015  1.00  0.00     0.066 C 
HETATM   10  H   UNL     1      40.674  -8.186   8.366  1.00  0.00     0.161 HD
ENDROOT
BRANCH   6  11
HETATM   11  C   UNL     1      43.727 -11.715   5.664  1.00  0.00     0.276 C 
HETATM   12  N   UNL     1      42.936 -12.818   5.406  1.00  0.00    -0.322 N 
HETATM   13  H   UNL     1      42.181 -12.938   6.077  1.00  0.00     0.169 HD
HETATM   14  O   UNL     1      44.700 -11.344   5.018  1.00  0.00    -0.266 OA
BRANCH  12  15
HETATM   15  C   UNL     1      43.054 -13.755   4.364  1.00  0.00     0.037 A 
HETATM   16  C   UNL     1      43.130 -15.135   4.566  1.00  0.00     0.066 A 
HETATM   17  C   UNL     1      43.247 -15.990   3.469  1.00  0.00     0.067 A 
HETATM   18  C   UNL     1      43.290 -15.493   2.173  1.00  0.00     0.036 A 
HETATM   19  C   UNL     1      43.214 -14.118   1.965  1.00  0.00     0.005 A 
HETATM   20  C   UNL     1      43.096 -13.253   3.057  1.00  0.00     0.029 A 
BRANCH  17  21
HETATM   21  O   UNL     1      43.323 -17.343   3.633  1.00  0.00    -0.361 OA
HETATM   22  H   UNL     1      44.241 -17.619   3.470  1.00  0.00     0.217 HD
ENDBRANCH  17  21
ENDBRANCH  12  15
ENDBRANCH   6  11
BRANCH   8  23
HETATM   23  C   UNL     1      44.621  -9.336  10.511  1.00  0.00     0.409 C 
HETATM   24  F   UNL     1      45.779 -10.018  10.566  1.00  0.00    -0.169 F 
HETATM   25  F   UNL     1      44.736  -8.424   9.511  1.00  0.00    -0.169 F 
HETATM   26  F   UNL     1      44.518  -8.624  11.659  1.00  0.00    -0.169 F 
ENDBRANCH   8  23
BRANCH   1  27
HETATM   27  C   UNL     1      41.797  -7.184  10.740  1.00  0.00    -0.035 A 
HETATM   28  C   UNL     1      41.686  -6.817  12.093  1.00  0.00     0.012 A 
HETATM   29  C   UNL     1      42.044  -5.536  12.532  1.00  0.00     0.037 A 
HETATM   30  C   UNL     1      42.522  -4.593  11.626  1.00  0.00     0.068 A 
HETATM   31  C   UNL     1      42.630  -4.943  10.280  1.00  0.00     0.037 A 
HETATM   32  C   UNL     1      42.268  -6.220   9.840  1.00  0.00     0.012 A 
BRANCH  30  33
HETATM   33  O   UNL     1      42.906  -3.315  11.919  1.00  0.00    -0.356 OA
HETATM   34  C   UNL     1      43.546  -2.581  10.883  1.00  0.00     0.210 C 
ENDBRANCH  30  33
ENDBRANCH   1  27
TORSDOF 6
ENDMDL
MODEL 8
REMARK VINA RESULT:      -7.6      2.238      2.820
REMARK  6 active torsions:
REMARK  status: ('A' for Active; 'I' for Inactive)
REMARK    1  A    between atoms: O_2  and  C_3 
REMARK    2  A    between atoms: C_6  and  C_7 
REMARK    3  A    between atoms: C_12  and  C_13 
REMARK       I    between atoms: C_13  and  N_14 
REMARK    4  A    between atoms: N_14  and  C_15 
REMARK    5  A    between atoms: C_17  and  O_18 
REMARK    6  A    between atoms: C_24  and  C_25 
ROOT
HETATM    1  C   UNL     1      43.137  -7.089  10.093  1.00  0.00     0.118 C 
HETATM    2  N   UNL     1      44.089  -8.168   9.858  1.00  0.00    -0.366 N 
HETATM    3  C   UNL     1      43.822  -9.231   9.073  1.00  0.00     0.123 A 
HETATM    4  N   UNL     1      42.585  -9.430   8.530  1.00  0.00    -0.240 N 
HETATM    5  N   UNL     1      42.509 -10.495   7.709  1.00  0.00    -0.165 NA
HETATM    6  C   UNL     1      43.743 -11.046   7.797  1.00  0.00     0.148 A 
HETATM    7  C   UNL     1      44.591 -10.280   8.645  1.00  0.00     0.089 A 
HETATM    8  C   UNL     1      41.459  -8.546   8.751  1.00  0.00     0.221 C 
HETATM    9  C   UNL     1      41.962  -7.135   9.096  1.00  0.00     0.066 C 
HETATM   10  H   UNL     1      45.001  -8.050  10.297  1.00  0.00     0.161 HD
ENDROOT
BRANCH   6  11
HETATM   11  C   UNL     1      44.107 -12.276   7.069  1.00  0.00     0.276 C 
HETATM   12  N   UNL     1      43.139 -13.254   7.197  1.00  0.00    -0.322 N 
HETATM   13  H   UNL     1      42.349 -12.966   7.769  1.00  0.00     0.169 HD
HETATM   14  O   UNL     1      45.157 -12.360   6.442  1.00  0.00    -0.266 OA
BRANCH  12  15
HETATM   15  C   UNL     1      43.127 -14.549   6.650  1.00  0.00     0.037 A 
HETATM   16  C   UNL     1      43.240 -15.715   7.411  1.00  0.00     0.066 A 
HETATM   17  C   UNL     1      43.218 -16.959   6.780  1.00  0.00     0.067 A 
HETATM   18  C   UNL     1      43.086 -17.062   5.401  1.00  0.00     0.036 A 
HETATM   19  C   UNL     1      42.973 -15.904   4.636  1.00  0.00     0.005 A 
HETATM   20  C   UNL     1      42.993 -14.653   5.259  1.00  0.00     0.029 A 
BRANCH  17  21
HETATM   21  O   UNL     1      43.325 -18.116   7.495  1.00  0.00    -0.361 OA
HETATM   22  H   UNL     1      42.593 -18.703   7.238  1.00  0.00     0.217 HD
ENDBRANCH  17  21
ENDBRANCH  12  15
ENDBRANCH   6  11
BRANCH   8  23
HETATM   23  C   UNL     1      40.526  -9.146   9.778  1.00  0.00     0.409 C 
HETATM   24  F   UNL     1      41.144  -9.879  10.721  1.00  0.00    -0.169 F 
HETATM   25  F   UNL     1      39.840  -8.163  10.415  1.00  0.00    -0.169 F 
HETATM   26  F   UNL     1      39.595  -9.940   9.197  1.00  0.00    -0.169 F 
ENDBRANCH   8  23
BRANCH   1  27
HETATM   27  C   UNL     1      42.725  -6.982  11.550  1.00  0.00    -0.035 A 
HETATM   28  C   UNL     1      43.170  -7.954  12.462  1.00  0.00     0.012 A 
HETATM   29  C   UNL     1      42.801  -7.910  13.813  1.00  0.00     0.037 A 
HETATM   30  C   UNL     1      41.980  -6.889  14.282  1.00  0.00     0.068 A 
HETATM   31  C   UNL     1      41.526  -5.921  13.386  1.00  0.00     0.037 A 
HETATM   32  C   UNL     1      41.889  -5.967  12.036  1.00  0.00     0.012 A 
BRANCH  30  33
HETATM   33  O   UNL     1      41.550  -6.726  15.569  1.00  0.00    -0.356 OA
HETATM   34  C   UNL     1      40.762  -5.575  15.844  1.00  0.00     0.210 C 
ENDBRANCH  30  33
ENDBRANCH   1  27
TORSDOF 6
ENDMDL
MODEL 9
REMARK VINA RESULT:      -7.5      4.902     11.085
REMARK  6 active torsions:
REMARK  status: ('A' for Active; 'I' for Inactive)
REMARK    1  A    between atoms: O_2  and  C_3 
REMARK    2  A    between atoms: C_6  and  C_7 
REMARK    3  A    between atoms: C_12  and  C_13 
REMARK       I    between atoms: C_13  and  N_14 
REMARK    4  A    between atoms: N_14  and  C_15 
REMARK    5  A    between atoms: C_17  and  O_18 
REMARK    6  A    between atoms: C_24  and  C_25 
ROOT
HETATM    1  C   UNL     1      41.358  -9.489  11.033  1.00  0.00     0.118 C 
HETATM    2  N   UNL     1      41.522  -9.721  12.463  1.00  0.00    -0.366 N 
HETATM    3  C   UNL     1      41.252  -8.788  13.399  1.00  0.00     0.123 A 
HETATM    4  N   UNL     1      40.913  -7.510  13.061  1.00  0.00    -0.240 N 
HETATM    5  N   UNL     1      40.599  -6.728  14.111  1.00  0.00    -0.165 NA
HETATM    6  C   UNL     1      40.827  -7.530  15.178  1.00  0.00     0.148 A 
HETATM    7  C   UNL     1      41.241  -8.829  14.767  1.00  0.00     0.089 A 
HETATM    8  C   UNL     1      40.824  -7.036  11.695  1.00  0.00     0.221 C 
HETATM    9  C   UNL     1      40.538  -8.215  10.751  1.00  0.00     0.066 C 
HETATM   10  H   UNL     1      41.820 -10.660  12.723  1.00  0.00     0.161 HD
ENDROOT
BRANCH   6  11
HETATM   11  C   UNL     1      40.640  -7.066  16.565  1.00  0.00     0.276 C 
HETATM   12  N   UNL     1      40.850  -8.080  17.480  1.00  0.00    -0.322 N 
HETATM   13  H   UNL     1      41.092  -8.968  17.047  1.00  0.00     0.169 HD
HETATM   14  O   UNL     1      40.335  -5.905  16.814  1.00  0.00    -0.266 OA
BRANCH  12  15
HETATM   15  C   UNL     1      40.768  -8.023  18.882  1.00  0.00     0.037 A 
HETATM   16  C   UNL     1      41.831  -7.648  19.707  1.00  0.00     0.066 A 
HETATM   17  C   UNL     1      41.657  -7.621  21.091  1.00  0.00     0.067 A 
HETATM   18  C   UNL     1      40.442  -7.964  21.670  1.00  0.00     0.036 A 
HETATM   19  C   UNL     1      39.378  -8.339  20.853  1.00  0.00     0.005 A 
HETATM   20  C   UNL     1      39.542  -8.368  19.465  1.00  0.00     0.029 A 
BRANCH  17  21
HETATM   21  O   UNL     1      42.676  -7.258  21.924  1.00  0.00    -0.361 OA
HETATM   22  H   UNL     1      42.498  -6.359  22.250  1.00  0.00     0.217 HD
ENDBRANCH  17  21
ENDBRANCH  12  15
ENDBRANCH   6  11
BRANCH   8  23
HETATM   23  C   UNL     1      42.060  -6.240  11.345  1.00  0.00     0.409 C 
HETATM   24  F   UNL     1      41.993  -4.940  11.683  1.00  0.00    -0.169 F 
HETATM   25  F   UNL     1      43.145  -6.765  11.971  1.00  0.00    -0.169 F 
HETATM   26  F   UNL     1      42.327  -6.298  10.018  1.00  0.00    -0.169 F 
ENDBRANCH   8  23
BRANCH   1  27
HETATM   27  C   UNL     1      42.669  -9.578  10.273  1.00  0.00    -0.035 A 
HETATM   28  C   UNL     1      43.865  -9.763  10.988  1.00  0.00     0.012 A 
HETATM   29  C   UNL     1      45.102  -9.832  10.334  1.00  0.00     0.037 A 
HETATM   30  C   UNL     1      45.169  -9.719   8.948  1.00  0.00     0.068 A 
HETATM   31  C   UNL     1      43.990  -9.529   8.227  1.00  0.00     0.037 A 
HETATM   32  C   UNL     1      42.755  -9.455   8.880  1.00  0.00     0.012 A 
BRANCH  30  33
HETATM   33  O   UNL     1      46.304  -9.772   8.188  1.00  0.00    -0.356 OA
HETATM   34  C   UNL     1      46.354 -10.766   7.173  1.00  0.00     0.210 C 
ENDBRANCH  30  33
ENDBRANCH   1  27
TORSDOF 6
ENDMDL
MODEL 10
REMARK VINA RESULT:      -7.3      3.273      4.711
REMARK  6 active torsions:
REMARK  status: ('A' for Active; 'I' for Inactive)
REMARK    1  A    between atoms: O_2  and  C_3 
REMARK    2  A    between atoms: C_6  and  C_7 
REMARK    3  A    between atoms: C_12  and  C_13 
REMARK       I    between atoms: C_13  and  N_14 
REMARK    4  A    between atoms: N_14  and  C_15 
REMARK    5  A    between atoms: C_17  and  O_18 
REMARK    6  A    between atoms: C_24  and  C_25 
ROOT
HETATM    1  C   UNL     1      40.582  -9.267  13.553  1.00  0.00     0.118 C 
HETATM    2  N   UNL     1      39.634  -9.072  12.462  1.00  0.00    -0.366 N 
HETATM    3  C   UNL     1      39.962  -9.220  11.162  1.00  0.00     0.123 A 
HETATM    4  N   UNL     1      41.248  -9.454  10.769  1.00  0.00    -0.240 N 
HETATM    5  N   UNL     1      41.392  -9.656   9.446  1.00  0.00    -0.165 NA
HETATM    6  C   UNL     1      40.141  -9.463   8.964  1.00  0.00     0.148 A 
HETATM    7  C   UNL     1      39.220  -9.185  10.013  1.00  0.00     0.089 A 
HETATM    8  C   UNL     1      42.366  -9.549  11.688  1.00  0.00     0.221 C 
HETATM    9  C   UNL     1      41.864  -9.977  13.077  1.00  0.00     0.066 C 
HETATM   10  H   UNL     1      38.680  -8.852  12.745  1.00  0.00     0.161 HD
ENDROOT
BRANCH   6  11
HETATM   11  C   UNL     1      39.831  -9.556   7.525  1.00  0.00     0.276 C 
HETATM   12  N   UNL     1      40.628 -10.487   6.887  1.00  0.00    -0.322 N 
HETATM   13  H   UNL     1      41.291 -10.943   7.509  1.00  0.00     0.169 HD
HETATM   14  O   UNL     1      38.958  -8.865   7.013  1.00  0.00    -0.266 OA
BRANCH  12  15
HETATM   15  C   UNL     1      40.627 -10.857   5.530  1.00  0.00     0.037 A 
HETATM   16  C   UNL     1      41.585 -10.428   4.608  1.00  0.00     0.066 A 
HETATM   17  C   UNL     1      41.503 -10.846   3.280  1.00  0.00     0.067 A 
HETATM   18  C   UNL     1      40.482 -11.684   2.852  1.00  0.00     0.036 A 
HETATM   19  C   UNL     1      39.524 -12.116   3.766  1.00  0.00     0.005 A 
HETATM   20  C   UNL     1      39.598 -11.703   5.100  1.00  0.00     0.029 A 
BRANCH  17  21
HETATM   21  O   UNL     1      42.423 -10.445   2.354  1.00  0.00    -0.361 OA
HETATM   22  H   UNL     1      42.619  -9.505   2.506  1.00  0.00     0.217 HD
ENDBRANCH  17  21
ENDBRANCH  12  15
ENDBRANCH   6  11
BRANCH   8  23
HETATM   23  C   UNL     1      43.153  -8.259  11.676  1.00  0.00     0.409 C 
HETATM   24  F   UNL     1      44.052  -8.171  10.680  1.00  0.00    -0.169 F 
HETATM   25  F   UNL     1      42.311  -7.201  11.555  1.00  0.00    -0.169 F 
HETATM   26  F   UNL     1      43.822  -8.077  12.840  1.00  0.00    -0.169 F 
ENDBRANCH   8  23
BRANCH   1  27
HETATM   27  C   UNL     1      40.822  -7.998  14.352  1.00  0.00    -0.035 A 
HETATM   28  C   UNL     1      41.748  -8.019  15.410  1.00  0.00     0.012 A 
HETATM   29  C   UNL     1      41.990  -6.880  16.189  1.00  0.00     0.037 A 
HETATM   30  C   UNL     1      41.312  -5.693  15.924  1.00  0.00     0.068 A 
HETATM   31  C   UNL     1      40.386  -5.661  14.881  1.00  0.00     0.037 A 
HETATM   32  C   UNL     1      40.140  -6.800  14.107  1.00  0.00     0.012 A 
BRANCH  30  33
HETATM   33  O   UNL     1      41.455  -4.514  16.601  1.00  0.00    -0.356 OA
HETATM   34  C   UNL     1      41.757  -4.600  17.987  1.00  0.00     0.210 C 
ENDBRANCH  30  33
ENDBRANCH   1  27
TORSDOF 6
ENDMDL
