MODEL 1
REMARK VINA RESULT:      -9.4      0.000      0.000
REMARK  4 active torsions:
REMARK  status: ('A' for Active; 'I' for Inactive)
REMARK    1  A    between atoms: C_7  and  C_8 
REMARK    2  A    between atoms: C_8  and  N_9 
REMARK    3  A    between atoms: N_9  and  C_10 
REMARK    4  A    between atoms: N_16  and  C_17 
ROOT
HETATM    1  C   UNL     1      42.550 -13.154   3.943  1.00  0.00     0.141 A 
HETATM    2  N   UNL     1      42.400 -11.990   3.261  1.00  0.00    -0.224 NA
HETATM    3  C   UNL     1      42.841 -10.847   3.825  1.00  0.00     0.237 A 
HETATM    4  N   UNL     1      43.412 -10.688   5.023  1.00  0.00    -0.221 NA
HETATM    5  C   UNL     1      43.528 -11.851   5.697  1.00  0.00     0.186 A 
HETATM    6  C   UNL     1      43.124 -13.089   5.221  1.00  0.00     0.077 A 
HETATM    7  N   UNL     1      44.059 -12.067   6.966  1.00  0.00    -0.041 N 
HETATM    8  N   UNL     1      44.006 -13.401   7.307  1.00  0.00    -0.162 NA
HETATM    9  C   UNL     1      43.435 -13.987   6.256  1.00  0.00     0.159 A 
ENDROOT
BRANCH   1  10
HETATM   10  N   UNL     1      42.112 -14.350   3.392  1.00  0.00    -0.367 N 
HETATM   11  H   UNL     1      41.548 -14.919   4.009  1.00  0.00     0.161 HD
BRANCH  10  12
HETATM   12  C   UNL     1      43.042 -15.117   2.566  1.00  0.00     0.199 C 
BRANCH  12  13
HETATM   13  C   UNL     1      43.282 -16.524   3.009  1.00  0.00     0.123 A 
HETATM   14  N   UNL     1      43.494 -16.829   4.330  1.00  0.00    -0.341 N 
HETATM   15  C   UNL     1      43.666 -18.183   4.441  1.00  0.00     0.063 A 
HETATM   16  H   UNL     1      43.529 -16.141   5.071  1.00  0.00     0.167 HD
HETATM   17  C   UNL     1      43.560 -18.651   3.135  1.00  0.00     0.091 A 
HETATM   18  C   UNL     1      43.905 -19.009   5.539  1.00  0.00     0.032 A 
HETATM   19  C   UNL     1      43.702 -20.028   2.872  1.00  0.00    -0.031 A 
HETATM   20  N   UNL     1      43.315 -17.612   2.264  1.00  0.00    -0.231 NA
HETATM   21  C   UNL     1      43.615 -20.612   1.493  1.00  0.00     0.050 C 
HETATM   22  C   UNL     1      43.942 -20.875   3.974  1.00  0.00     0.009 A 
HETATM   23  C   UNL     1      44.039 -20.374   5.276  1.00  0.00     0.003 A 
ENDBRANCH  12  13
ENDBRANCH  10  12
ENDBRANCH   1  10
BRANCH   7  24
HETATM   24  C   UNL     1      44.612 -11.089   7.866  1.00  0.00     0.750 A 
HETATM   25  N   UNL     1      45.585 -10.266   7.420  1.00  0.00    -0.073 NA
HETATM   26  C   UNL     1      46.073  -9.365   8.294  1.00  0.00     0.138 A 
HETATM   27  C   UNL     1      45.632  -9.250   9.591  1.00  0.00     0.040 A 
HETATM   28  C   UNL     1      44.643 -10.126   9.958  1.00  0.00     0.138 A 
HETATM   29  N   UNL     1      44.119 -11.045   9.127  1.00  0.00    -0.073 NA
ENDBRANCH   7  24
TORSDOF 4
ENDMDL
MODEL 2
REMARK VINA RESULT:      -8.9      0.467      1.593
REMARK  4 active torsions:
REMARK  status: ('A' for Active; 'I' for Inactive)
REMARK    1  A    between atoms: C_7  and  C_8 
REMARK    2  A    between atoms: C_8  and  N_9 
REMARK    3  A    between atoms: N_9  and  C_10 
REMARK    4  A    between atoms: N_16  and  C_17 
ROOT
HETATM    1  C   UNL     1      42.461 -13.294   3.561  1.00  0.00     0.141 A 
HETATM    2  N   UNL     1      42.348 -12.128   2.876  1.00  0.00    -0.224 NA
HETATM    3  C   UNL     1      42.833 -10.999   3.432  1.00  0.00     0.237 A 
HETATM    4  N   UNL     1      43.418 -10.856   4.626  1.00  0.00    -0.221 NA
HETATM    5  C   UNL     1      43.497 -12.020   5.303  1.00  0.00     0.186 A 
HETATM    6  C   UNL     1      43.046 -13.245   4.835  1.00  0.00     0.077 A 
HETATM    7  N   UNL     1      44.029 -12.251   6.569  1.00  0.00    -0.041 N 
HETATM    8  N   UNL     1      43.932 -13.581   6.915  1.00  0.00    -0.162 NA
HETATM    9  C   UNL     1      43.333 -14.150   5.871  1.00  0.00     0.159 A 
ENDROOT
BRANCH   1  10
HETATM   10  N   UNL     1      41.978 -14.476   3.017  1.00  0.00    -0.367 N 
HETATM   11  H   UNL     1      41.347 -14.991   3.616  1.00  0.00     0.161 HD
BRANCH  10  12
HETATM   12  C   UNL     1      42.899 -15.322   2.263  1.00  0.00     0.199 C 
BRANCH  12  13
HETATM   13  C   UNL     1      43.151 -16.675   2.847  1.00  0.00     0.123 A 
HETATM   14  N   UNL     1      43.310 -17.778   2.046  1.00  0.00    -0.341 N 
HETATM   15  C   UNL     1      43.542 -18.865   2.846  1.00  0.00     0.063 A 
HETATM   16  H   UNL     1      43.242 -17.759   1.037  1.00  0.00     0.167 HD
HETATM   17  C   UNL     1      43.499 -18.355   4.140  1.00  0.00     0.091 A 
HETATM   18  C   UNL     1      43.773 -20.210   2.554  1.00  0.00     0.032 A 
HETATM   19  C   UNL     1      43.688 -19.218   5.238  1.00  0.00    -0.031 A 
HETATM   20  N   UNL     1      43.263 -16.998   4.120  1.00  0.00    -0.231 NA
HETATM   21  C   UNL     1      43.644 -18.751   6.663  1.00  0.00     0.050 C 
HETATM   22  C   UNL     1      43.924 -20.580   4.956  1.00  0.00     0.009 A 
HETATM   23  C   UNL     1      43.966 -21.061   3.645  1.00  0.00     0.003 A 
ENDBRANCH  12  13
ENDBRANCH  10  12
ENDBRANCH   1  10
BRANCH   7  24
HETATM   24  C   UNL     1      44.622 -11.290   7.462  1.00  0.00     0.750 A 
HETATM   25  N   UNL     1      45.680 -10.567   7.036  1.00  0.00    -0.073 NA
HETATM   26  C   UNL     1      46.203  -9.678   7.902  1.00  0.00     0.138 A 
HETATM   27  C   UNL     1      45.718  -9.481   9.172  1.00  0.00     0.040 A 
HETATM   28  C   UNL     1      44.643 -10.258   9.521  1.00  0.00     0.138 A 
HETATM   29  N   UNL     1      44.081 -11.160   8.697  1.00  0.00    -0.073 NA
ENDBRANCH   7  24
TORSDOF 4
ENDMDL
MODEL 3
REMARK VINA RESULT:      -8.7      1.609      2.726
REMARK  4 active torsions:
REMARK  status: ('A' for Active; 'I' for Inactive)
REMARK    1  A    between atoms: C_7  and  C_8 
REMARK    2  A    between atoms: C_8  and  N_9 
REMARK    3  A    between atoms: N_9  and  C_10 
REMARK    4  A    between atoms: N_16  and  C_17 
ROOT
HETATM    1  C   UNL     1      43.109 -11.271   4.560  1.00  0.00     0.141 A 
HETATM    2  N   UNL     1      42.004 -10.493   4.434  1.00  0.00    -0.224 NA
HETATM    3  C   UNL     1      41.582  -9.788   5.504  1.00  0.00     0.237 A 
HETATM    4  N   UNL     1      42.110  -9.763   6.732  1.00  0.00    -0.221 NA
HETATM    5  C   UNL     1      43.190 -10.563   6.845  1.00  0.00     0.186 A 
HETATM    6  C   UNL     1      43.725 -11.326   5.819  1.00  0.00     0.077 A 
HETATM    7  N   UNL     1      43.982 -10.795   7.966  1.00  0.00    -0.041 N 
HETATM    8  N   UNL     1      45.002 -11.677   7.682  1.00  0.00    -0.162 NA
HETATM    9  C   UNL     1      44.821 -11.987   6.400  1.00  0.00     0.159 A 
ENDROOT
BRANCH   1  10
HETATM   10  N   UNL     1      43.575 -12.007   3.479  1.00  0.00    -0.367 N 
HETATM   11  H   UNL     1      44.128 -11.481   2.816  1.00  0.00     0.161 HD
BRANCH  10  12
HETATM   12  C   UNL     1      42.677 -12.979   2.861  1.00  0.00     0.199 C 
BRANCH  12  13
HETATM   13  C   UNL     1      42.964 -14.411   3.182  1.00  0.00     0.123 A 
HETATM   14  N   UNL     1      42.963 -15.374   2.204  1.00  0.00    -0.341 N 
HETATM   15  C   UNL     1      43.271 -16.577   2.780  1.00  0.00     0.063 A 
HETATM   16  H   UNL     1      42.749 -15.193   1.232  1.00  0.00     0.167 HD
HETATM   17  C   UNL     1      43.438 -16.280   4.129  1.00  0.00     0.091 A 
HETATM   18  C   UNL     1      43.408 -17.861   2.251  1.00  0.00     0.032 A 
HETATM   19  C   UNL     1      43.755 -17.309   5.038  1.00  0.00    -0.031 A 
HETATM   20  N   UNL     1      43.250 -14.934   4.357  1.00  0.00    -0.231 NA
HETATM   21  C   UNL     1      43.938 -17.075   6.508  1.00  0.00     0.050 C 
HETATM   22  C   UNL     1      43.898 -18.611   4.515  1.00  0.00     0.009 A 
HETATM   23  C   UNL     1      43.729 -18.877   3.153  1.00  0.00     0.003 A 
ENDBRANCH  12  13
ENDBRANCH  10  12
ENDBRANCH   1  10
BRANCH   7  24
HETATM   24  C   UNL     1      43.831 -10.231   9.282  1.00  0.00     0.750 A 
HETATM   25  N   UNL     1      43.697  -8.892   9.409  1.00  0.00    -0.073 NA
HETATM   26  C   UNL     1      43.556  -8.407  10.657  1.00  0.00     0.138 A 
HETATM   27  C   UNL     1      43.542  -9.196  11.781  1.00  0.00     0.040 A 
HETATM   28  C   UNL     1      43.684 -10.542  11.560  1.00  0.00     0.138 A 
HETATM   29  N   UNL     1      43.828 -11.081  10.336  1.00  0.00    -0.073 NA
ENDBRANCH   7  24
TORSDOF 4
ENDMDL
MODEL 4
REMARK VINA RESULT:      -8.4      1.777      2.430
REMARK  4 active torsions:
REMARK  status: ('A' for Active; 'I' for Inactive)
REMARK    1  A    between atoms: C_7  and  C_8 
REMARK    2  A    between atoms: C_8  and  N_9 
REMARK    3  A    between atoms: N_9  and  C_10 
REMARK    4  A    between atoms: N_16  and  C_17 
ROOT
HETATM    1  C   UNL     1      42.657 -13.024   5.407  1.00  0.00     0.141 A 
HETATM    2  N   UNL     1      41.400 -12.622   5.094  1.00  0.00    -0.224 NA
HETATM    3  C   UNL     1      40.911 -11.508   5.677  1.00  0.00     0.237 A 
HETATM    4  N   UNL     1      41.509 -10.720   6.576  1.00  0.00    -0.221 NA
HETATM    5  C   UNL     1      42.747 -11.151   6.895  1.00  0.00     0.186 A 
HETATM    6  C   UNL     1      43.363 -12.271   6.358  1.00  0.00     0.077 A 
HETATM    7  N   UNL     1      43.653 -10.594   7.794  1.00  0.00    -0.041 N 
HETATM    8  N   UNL     1      44.821 -11.323   7.841  1.00  0.00    -0.162 NA
HETATM    9  C   UNL     1      44.619 -12.323   6.985  1.00  0.00     0.159 A 
ENDROOT
BRANCH   1  10
HETATM   10  N   UNL     1      43.195 -14.162   4.824  1.00  0.00    -0.367 N 
HETATM   11  H   UNL     1      42.817 -14.392   3.914  1.00  0.00     0.161 HD
BRANCH  10  12
HETATM   12  C   UNL     1      43.446 -15.326   5.670  1.00  0.00     0.199 C 
BRANCH  12  13
HETATM   13  C   UNL     1      43.498 -16.639   4.957  1.00  0.00     0.123 A 
HETATM   14  N   UNL     1      43.179 -16.739   3.626  1.00  0.00    -0.341 N 
HETATM   15  C   UNL     1      43.330 -18.044   3.240  1.00  0.00     0.063 A 
HETATM   16  H   UNL     1      42.870 -15.960   3.058  1.00  0.00     0.167 HD
HETATM   17  C   UNL     1      43.734 -18.700   4.399  1.00  0.00     0.091 A 
HETATM   18  C   UNL     1      43.146 -18.685   2.015  1.00  0.00     0.032 A 
HETATM   19  C   UNL     1      43.973 -20.088   4.369  1.00  0.00    -0.031 A 
HETATM   20  N   UNL     1      43.839 -17.813   5.448  1.00  0.00    -0.231 NA
HETATM   21  C   UNL     1      44.399 -20.872   5.575  1.00  0.00     0.050 C 
HETATM   22  C   UNL     1      43.792 -20.748   3.136  1.00  0.00     0.009 A 
HETATM   23  C   UNL     1      43.390 -20.061   1.988  1.00  0.00     0.003 A 
ENDBRANCH  12  13
ENDBRANCH  10  12
ENDBRANCH   1  10
BRANCH   7  24
HETATM   24  C   UNL     1      43.476  -9.417   8.604  1.00  0.00     0.750 A 
HETATM   25  N   UNL     1      43.679  -8.203   8.047  1.00  0.00    -0.073 NA
HETATM   26  C   UNL     1      43.501  -7.128   8.840  1.00  0.00     0.138 A 
HETATM   27  C   UNL     1      43.132  -7.212  10.160  1.00  0.00     0.040 A 
HETATM   28  C   UNL     1      42.948  -8.483  10.642  1.00  0.00     0.138 A 
HETATM   29  N   UNL     1      43.111  -9.591   9.897  1.00  0.00    -0.073 NA
ENDBRANCH   7  24
TORSDOF 4
ENDMDL
MODEL 5
REMARK VINA RESULT:      -8.3      1.486      8.674
REMARK  4 active torsions:
REMARK  status: ('A' for Active; 'I' for Inactive)
REMARK    1  A    between atoms: C_7  and  C_8 
REMARK    2  A    between atoms: C_8  and  N_9 
REMARK    3  A    between atoms: N_9  and  C_10 
REMARK    4  A    between atoms: N_16  and  C_17 
ROOT
HETATM    1  C   UNL     1      42.382 -13.666   4.951  1.00  0.00     0.141 A 
HETATM    2  N   UNL     1      42.066 -14.078   6.204  1.00  0.00    -0.224 NA
HETATM    3  C   UNL     1      42.168 -15.389   6.502  1.00  0.00     0.237 A 
HETATM    4  N   UNL     1      42.533 -16.390   5.694  1.00  0.00    -0.221 NA
HETATM    5  C   UNL     1      42.818 -15.965   4.445  1.00  0.00     0.186 A 
HETATM    6  C   UNL     1      42.761 -14.646   4.021  1.00  0.00     0.077 A 
HETATM    7  N   UNL     1      43.218 -16.719   3.345  1.00  0.00    -0.041 N 
HETATM    8  N   UNL     1      43.419 -15.920   2.241  1.00  0.00    -0.162 NA
HETATM    9  C   UNL     1      43.130 -14.691   2.666  1.00  0.00     0.159 A 
ENDROOT
BRANCH   1  10
HETATM   10  N   UNL     1      42.294 -12.324   4.610  1.00  0.00    -0.367 N 
HETATM   11  H   UNL     1      41.777 -12.134   3.762  1.00  0.00     0.161 HD
BRANCH  10  12
HETATM   12  C   UNL     1      43.477 -11.484   4.781  1.00  0.00     0.199 C 
BRANCH  12  13
HETATM   13  C   UNL     1      43.696 -10.958   6.163  1.00  0.00     0.123 A 
HETATM   14  N   UNL     1      44.929 -11.021   6.762  1.00  0.00    -0.341 N 
HETATM   15  C   UNL     1      44.837 -10.455   8.005  1.00  0.00     0.063 A 
HETATM   16  H   UNL     1      45.745 -11.440   6.334  1.00  0.00     0.167 HD
HETATM   17  C   UNL     1      43.503 -10.073   8.111  1.00  0.00     0.091 A 
HETATM   18  C   UNL     1      45.778 -10.257   9.015  1.00  0.00     0.032 A 
HETATM   19  C   UNL     1      43.044  -9.457   9.292  1.00  0.00    -0.031 A 
HETATM   20  N   UNL     1      42.814 -10.386   6.959  1.00  0.00    -0.231 NA
HETATM   21  C   UNL     1      41.621  -9.027   9.492  1.00  0.00     0.050 C 
HETATM   22  C   UNL     1      43.986  -9.249  10.321  1.00  0.00     0.009 A 
HETATM   23  C   UNL     1      45.321  -9.640  10.182  1.00  0.00     0.003 A 
ENDBRANCH  12  13
ENDBRANCH  10  12
ENDBRANCH   1  10
BRANCH   7  24
HETATM   24  C   UNL     1      43.422 -18.142   3.281  1.00  0.00     0.750 A 
HETATM   25  N   UNL     1      43.031 -18.810   2.174  1.00  0.00    -0.073 NA
HETATM   26  C   UNL     1      43.242 -20.140   2.155  1.00  0.00     0.138 A 
HETATM   27  C   UNL     1      43.824 -20.831   3.190  1.00  0.00     0.040 A 
HETATM   28  C   UNL     1      44.189 -20.074   4.274  1.00  0.00     0.138 A 
HETATM   29  N   UNL     1      44.003 -18.744   4.347  1.00  0.00    -0.073 NA
ENDBRANCH   7  24
TORSDOF 4
ENDMDL
MODEL 6
REMARK VINA RESULT:      -8.0      3.984      8.415
REMARK  4 active torsions:
REMARK  status: ('A' for Active; 'I' for Inactive)
REMARK    1  A    between atoms: C_7  and  C_8 
REMARK    2  A    between atoms: C_8  and  N_9 
REMARK    3  A    between atoms: N_9  and  C_10 
REMARK    4  A    between atoms: N_16  and  C_17 
ROOT
HETATM    1  C   UNL     1      41.470 -13.622   3.535  1.00  0.00     0.141 A 
HETATM    2  N   UNL     1      40.764 -13.907   4.658  1.00  0.00    -0.224 NA
HETATM    3  C   UNL     1      40.847 -15.148   5.180  1.00  0.00     0.237 A 
HETATM    4  N   UNL     1      41.542 -16.191   4.714  1.00  0.00    -0.221 NA
HETATM    5  C   UNL     1      42.216 -15.897   3.583  1.00  0.00     0.186 A 
HETATM    6  C   UNL     1      42.219 -14.659   2.958  1.00  0.00     0.077 A 
HETATM    7  N   UNL     1      43.030 -16.729   2.819  1.00  0.00    -0.041 N 
HETATM    8  N   UNL     1      43.549 -16.058   1.733  1.00  0.00    -0.162 NA
HETATM    9  C   UNL     1      43.043 -14.830   1.833  1.00  0.00     0.159 A 
ENDROOT
BRANCH   1  10
HETATM   10  N   UNL     1      41.412 -12.355   2.973  1.00  0.00    -0.367 N 
HETATM   11  H   UNL     1      42.127 -11.716   3.294  1.00  0.00     0.161 HD
BRANCH  10  12
HETATM   12  C   UNL     1      40.103 -11.734   2.790  1.00  0.00     0.199 C 
BRANCH  12  13
HETATM   13  C   UNL     1      39.492 -11.911   1.438  1.00  0.00     0.123 A 
HETATM   14  N   UNL     1      38.738 -10.920   0.861  1.00  0.00    -0.341 N 
HETATM   15  C   UNL     1      38.326 -11.350  -0.372  1.00  0.00     0.063 A 
HETATM   16  H   UNL     1      38.527 -10.037   1.308  1.00  0.00     0.167 HD
HETATM   17  C   UNL     1      38.856 -12.631  -0.484  1.00  0.00     0.091 A 
HETATM   18  C   UNL     1      37.553 -10.746  -1.363  1.00  0.00     0.032 A 
HETATM   19  C   UNL     1      38.613 -13.389  -1.646  1.00  0.00    -0.031 A 
HETATM   20  N   UNL     1      39.580 -12.959   0.642  1.00  0.00    -0.231 NA
HETATM   21  C   UNL     1      39.136 -14.782  -1.841  1.00  0.00     0.050 C 
HETATM   22  C   UNL     1      37.834 -12.789  -2.658  1.00  0.00     0.009 A 
HETATM   23  C   UNL     1      37.319 -11.498  -2.517  1.00  0.00     0.003 A 
ENDBRANCH  12  13
ENDBRANCH  10  12
ENDBRANCH   1  10
BRANCH   7  24
HETATM   24  C   UNL     1      43.343 -18.113   3.058  1.00  0.00     0.750 A 
HETATM   25  N   UNL     1      43.934 -18.459   4.223  1.00  0.00    -0.073 NA
HETATM   26  C   UNL     1      44.208 -19.765   4.406  1.00  0.00     0.138 A 
HETATM   27  C   UNL     1      43.918 -20.738   3.481  1.00  0.00     0.040 A 
HETATM   28  C   UNL     1      43.319 -20.298   2.329  1.00  0.00     0.138 A 
HETATM   29  N   UNL     1      43.023 -19.008   2.092  1.00  0.00    -0.073 NA
ENDBRANCH   7  24
TORSDOF 4
ENDMDL
MODEL 7
REMARK VINA RESULT:      -7.9      1.946      9.105
REMARK  4 active torsions:
REMARK  status: ('A' for Active; 'I' for Inactive)
REMARK    1  A    between atoms: C_7  and  C_8 
REMARK    2  A    between atoms: C_8  and  N_9 
REMARK    3  A    between atoms: N_9  and  C_10 
REMARK    4  A    between atoms: N_16  and  C_17 
ROOT
HETATM    1  C   UNL     1      42.911 -11.919   5.232  1.00  0.00     0.141 A 
HETATM    2  N   UNL     1      43.012 -11.483   3.951  1.00  0.00    -0.224 NA
HETATM    3  C   UNL     1      43.136 -12.392   2.963  1.00  0.00     0.237 A 
HETATM    4  N   UNL     1      43.198 -13.723   3.074  1.00  0.00    -0.221 NA
HETATM    5  C   UNL     1      43.123 -14.137   4.356  1.00  0.00     0.186 A 
HETATM    6  C   UNL     1      42.983 -13.302   5.454  1.00  0.00     0.077 A 
HETATM    7  N   UNL     1      43.164 -15.438   4.849  1.00  0.00    -0.041 N 
HETATM    8  N   UNL     1      43.052 -15.454   6.223  1.00  0.00    -0.162 NA
HETATM    9  C   UNL     1      42.956 -14.169   6.560  1.00  0.00     0.159 A 
ENDROOT
BRANCH   1  10
HETATM   10  N   UNL     1      42.777 -11.012   6.273  1.00  0.00    -0.367 N 
HETATM   11  H   UNL     1      42.242 -10.184   6.048  1.00  0.00     0.161 HD
BRANCH  10  12
HETATM   12  C   UNL     1      43.936 -10.753   7.124  1.00  0.00     0.199 C 
BRANCH  12  13
HETATM   13  C   UNL     1      43.640 -10.067   8.418  1.00  0.00     0.123 A 
HETATM   14  N   UNL     1      43.558 -10.769   9.594  1.00  0.00    -0.341 N 
HETATM   15  C   UNL     1      43.295  -9.888  10.609  1.00  0.00     0.063 A 
HETATM   16  H   UNL     1      43.662 -11.774   9.662  1.00  0.00     0.167 HD
HETATM   17  C   UNL     1      43.215  -8.651   9.977  1.00  0.00     0.091 A 
HETATM   18  C   UNL     1      43.122 -10.066  11.981  1.00  0.00     0.032 A 
HETATM   19  C   UNL     1      42.936  -7.496  10.735  1.00  0.00    -0.031 A 
HETATM   20  N   UNL     1      43.437  -8.780   8.624  1.00  0.00    -0.231 NA
HETATM   21  C   UNL     1      42.819  -6.128  10.130  1.00  0.00     0.050 C 
HETATM   22  C   UNL     1      42.760  -7.662  12.124  1.00  0.00     0.009 A 
HETATM   23  C   UNL     1      42.853  -8.918  12.731  1.00  0.00     0.003 A 
ENDBRANCH  12  13
ENDBRANCH  10  12
ENDBRANCH   1  10
BRANCH   7  24
HETATM   24  C   UNL     1      43.300 -16.659   4.099  1.00  0.00     0.750 A 
HETATM   25  N   UNL     1      42.549 -16.833   2.990  1.00  0.00    -0.073 NA
HETATM   26  C   UNL     1      42.709 -17.989   2.317  1.00  0.00     0.138 A 
HETATM   27  C   UNL     1      43.583 -18.976   2.701  1.00  0.00     0.040 A 
HETATM   28  C   UNL     1      44.305 -18.715   3.838  1.00  0.00     0.138 A 
HETATM   29  N   UNL     1      44.186 -17.580   4.549  1.00  0.00    -0.073 NA
ENDBRANCH   7  24
TORSDOF 4
ENDMDL
MODEL 8
REMARK VINA RESULT:      -7.9      2.625      3.088
REMARK  4 active torsions:
REMARK  status: ('A' for Active; 'I' for Inactive)
REMARK    1  A    between atoms: C_7  and  C_8 
REMARK    2  A    between atoms: C_8  and  N_9 
REMARK    3  A    between atoms: N_9  and  C_10 
REMARK    4  A    between atoms: N_16  and  C_17 
ROOT
HETATM    1  C   UNL     1      41.693 -13.082   3.304  1.00  0.00     0.141 A 
HETATM    2  N   UNL     1      42.542 -12.194   2.728  1.00  0.00    -0.224 NA
HETATM    3  C   UNL     1      42.657 -10.963   3.267  1.00  0.00     0.237 A 
HETATM    4  N   UNL     1      42.008 -10.464   4.324  1.00  0.00    -0.221 NA
HETATM    5  C   UNL     1      41.149 -11.352   4.866  1.00  0.00     0.186 A 
HETATM    6  C   UNL     1      40.950 -12.646   4.412  1.00  0.00     0.077 A 
HETATM    7  N   UNL     1      40.305 -11.181   5.960  1.00  0.00    -0.041 N 
HETATM    8  N   UNL     1      39.581 -12.326   6.213  1.00  0.00    -0.162 NA
HETATM    9  C   UNL     1      39.975 -13.180   5.271  1.00  0.00     0.159 A 
ENDROOT
BRANCH   1  10
HETATM   10  N   UNL     1      41.552 -14.359   2.780  1.00  0.00    -0.367 N 
HETATM   11  H   UNL     1      40.966 -14.978   3.323  1.00  0.00     0.161 HD
BRANCH  10  12
HETATM   12  C   UNL     1      42.729 -15.010   2.209  1.00  0.00     0.199 C 
BRANCH  12  13
HETATM   13  C   UNL     1      43.057 -16.353   2.776  1.00  0.00     0.123 A 
HETATM   14  N   UNL     1      43.281 -16.523   4.120  1.00  0.00    -0.341 N 
HETATM   15  C   UNL     1      43.541 -17.847   4.352  1.00  0.00     0.063 A 
HETATM   16  H   UNL     1      43.267 -15.770   4.795  1.00  0.00     0.167 HD
HETATM   17  C   UNL     1      43.473 -18.437   3.094  1.00  0.00     0.091 A 
HETATM   18  C   UNL     1      43.826 -18.554   5.521  1.00  0.00     0.032 A 
HETATM   19  C   UNL     1      43.706 -19.820   2.956  1.00  0.00    -0.031 A 
HETATM   20  N   UNL     1      43.166 -17.499   2.133  1.00  0.00    -0.231 NA
HETATM   21  C   UNL     1      43.665 -20.530   1.636  1.00  0.00     0.050 C 
HETATM   22  C   UNL     1      43.994 -20.546   4.130  1.00  0.00     0.009 A 
HETATM   23  C   UNL     1      44.050 -19.926   5.382  1.00  0.00     0.003 A 
ENDBRANCH  12  13
ENDBRANCH  10  12
ENDBRANCH   1  10
BRANCH   7  24
HETATM   24  C   UNL     1      40.148 -10.005   6.775  1.00  0.00     0.750 A 
HETATM   25  N   UNL     1      39.063  -9.221   6.589  1.00  0.00    -0.073 NA
HETATM   26  C   UNL     1      38.954  -8.132   7.374  1.00  0.00     0.138 A 
HETATM   27  C   UNL     1      39.877  -7.791   8.332  1.00  0.00     0.040 A 
HETATM   28  C   UNL     1      40.946  -8.643   8.452  1.00  0.00     0.138 A 
HETATM   29  N   UNL     1      41.105  -9.744   7.696  1.00  0.00    -0.073 NA
ENDBRANCH   7  24
TORSDOF 4
ENDMDL
MODEL 9
REMARK VINA RESULT:      -7.9      3.429      5.241
REMARK  4 active torsions:
REMARK  status: ('A' for Active; 'I' for Inactive)
REMARK    1  A    between atoms: C_7  and  C_8 
REMARK    2  A    between atoms: C_8  and  N_9 
REMARK    3  A    between atoms: N_9  and  C_10 
REMARK    4  A    between atoms: N_16  and  C_17 
ROOT
HETATM    1  C   UNL     1      40.647 -13.099   4.177  1.00  0.00     0.141 A 
HETATM    2  N   UNL     1      40.275 -11.861   3.766  1.00  0.00    -0.224 NA
HETATM    3  C   UNL     1      40.932 -10.790   4.255  1.00  0.00     0.237 A 
HETATM    4  N   UNL     1      41.930 -10.773   5.143  1.00  0.00    -0.221 NA
HETATM    5  C   UNL     1      42.269 -12.010   5.561  1.00  0.00     0.186 A 
HETATM    6  C   UNL     1      41.677 -13.187   5.126  1.00  0.00     0.077 A 
HETATM    7  N   UNL     1      43.248 -12.376   6.481  1.00  0.00    -0.041 N 
HETATM    8  N   UNL     1      43.296 -13.744   6.640  1.00  0.00    -0.162 NA
HETATM    9  C   UNL     1      42.344 -14.203   5.830  1.00  0.00     0.159 A 
ENDROOT
BRANCH   1  10
HETATM   10  N   UNL     1      39.996 -14.225   3.691  1.00  0.00    -0.367 N 
HETATM   11  H   UNL     1      39.557 -14.799   4.398  1.00  0.00     0.161 HD
BRANCH  10  12
HETATM   12  C   UNL     1      40.634 -14.990   2.622  1.00  0.00     0.199 C 
BRANCH  12  13
HETATM   13  C   UNL     1      40.484 -14.420   1.249  1.00  0.00     0.123 A 
HETATM   14  N   UNL     1      41.029 -13.204   0.919  1.00  0.00    -0.341 N 
HETATM   15  C   UNL     1      40.749 -12.946  -0.397  1.00  0.00     0.063 A 
HETATM   16  H   UNL     1      41.532 -12.615   1.569  1.00  0.00     0.167 HD
HETATM   17  C   UNL     1      40.011 -14.050  -0.814  1.00  0.00     0.091 A 
HETATM   18  C   UNL     1      41.066 -11.871  -1.227  1.00  0.00     0.032 A 
HETATM   19  C   UNL     1      39.537 -14.112  -2.139  1.00  0.00    -0.031 A 
HETATM   20  N   UNL     1      39.863 -14.953   0.215  1.00  0.00    -0.231 NA
HETATM   21  C   UNL     1      38.723 -15.258  -2.665  1.00  0.00     0.050 C 
HETATM   22  C   UNL     1      39.852 -13.032  -2.990  1.00  0.00     0.009 A 
HETATM   23  C   UNL     1      40.600 -11.940  -2.543  1.00  0.00     0.003 A 
ENDBRANCH  12  13
ENDBRANCH  10  12
ENDBRANCH   1  10
BRANCH   7  24
HETATM   24  C   UNL     1      44.135 -11.510   7.212  1.00  0.00     0.750 A 
HETATM   25  N   UNL     1      45.440 -11.465   6.864  1.00  0.00    -0.073 NA
HETATM   26  C   UNL     1      46.234 -10.640   7.572  1.00  0.00     0.138 A 
HETATM   27  C   UNL     1      45.785  -9.860   8.610  1.00  0.00     0.040 A 
HETATM   28  C   UNL     1      44.448  -9.969   8.895  1.00  0.00     0.138 A 
HETATM   29  N   UNL     1      43.609 -10.775   8.221  1.00  0.00    -0.073 NA
ENDBRANCH   7  24
TORSDOF 4
ENDMDL
MODEL 10
REMARK VINA RESULT:      -7.8      1.656      8.360
REMARK  4 active torsions:
REMARK  status: ('A' for Active; 'I' for Inactive)
REMARK    1  A    between atoms: C_7  and  C_8 
REMARK    2  A    between atoms: C_8  and  N_9 
REMARK    3  A    between atoms: N_9  and  C_10 
REMARK    4  A    between atoms: N_16  and  C_17 
ROOT
HETATM    1  C   UNL     1      41.363 -13.627   4.555  1.00  0.00     0.141 A 
HETATM    2  N   UNL     1      40.584 -13.988   3.505  1.00  0.00    -0.224 NA
HETATM    3  C   UNL     1      40.647 -15.259   3.056  1.00  0.00     0.237 A 
HETATM    4  N   UNL     1      41.420 -16.252   3.508  1.00  0.00    -0.221 NA
HETATM    5  C   UNL     1      42.206 -15.868   4.534  1.00  0.00     0.186 A 
HETATM    6  C   UNL     1      42.225 -14.597   5.089  1.00  0.00     0.077 A 
HETATM    7  N   UNL     1      43.137 -16.623   5.242  1.00  0.00    -0.041 N 
HETATM    8  N   UNL     1      43.741 -15.874   6.228  1.00  0.00    -0.162 NA
HETATM    9  C   UNL     1      43.188 -14.668   6.109  1.00  0.00     0.159 A 
ENDROOT
BRANCH   1  10
HETATM   10  N   UNL     1      41.321 -12.330   5.046  1.00  0.00    -0.367 N 
HETATM   11  H   UNL     1      40.468 -11.827   4.842  1.00  0.00     0.161 HD
BRANCH  10  12
HETATM   12  C   UNL     1      42.526 -11.511   4.953  1.00  0.00     0.199 C 
BRANCH  12  13
HETATM   13  C   UNL     1      43.035 -10.968   6.249  1.00  0.00     0.123 A 
HETATM   14  N   UNL     1      44.348 -11.118   6.618  1.00  0.00    -0.341 N 
HETATM   15  C   UNL     1      44.530 -10.513   7.832  1.00  0.00     0.063 A 
HETATM   16  H   UNL     1      45.038 -11.614   6.067  1.00  0.00     0.167 HD
HETATM   17  C   UNL     1      43.272 -10.019   8.162  1.00  0.00     0.091 A 
HETATM   18  C   UNL     1      45.653 -10.367   8.647  1.00  0.00     0.032 A 
HETATM   19  C   UNL     1      43.086  -9.335   9.380  1.00  0.00    -0.031 A 
HETATM   20  N   UNL     1      42.362 -10.304   7.167  1.00  0.00    -0.231 NA
HETATM   21  C   UNL     1      41.761  -8.783   9.816  1.00  0.00     0.050 C 
HETATM   22  C   UNL     1      44.214  -9.179  10.212  1.00  0.00     0.009 A 
HETATM   23  C   UNL     1      45.467  -9.683   9.851  1.00  0.00     0.003 A 
ENDBRANCH  12  13
ENDBRANCH  10  12
ENDBRANCH   1  10
BRANCH   7  24
HETATM   24  C   UNL     1      43.483 -18.006   5.040  1.00  0.00     0.750 A 
HETATM   25  N   UNL     1      43.454 -18.849   6.096  1.00  0.00    -0.073 NA
HETATM   26  C   UNL     1      43.783 -20.133   5.863  1.00  0.00     0.138 A 
HETATM   27  C   UNL     1      44.139 -20.613   4.626  1.00  0.00     0.040 A 
HETATM   28  C   UNL     1      44.142 -19.689   3.612  1.00  0.00     0.138 A 
HETATM   29  N   UNL     1      43.822 -18.394   3.788  1.00  0.00    -0.073 NA
ENDBRANCH   7  24
TORSDOF 4
ENDMDL
