MODEL 1
REMARK VINA RESULT:      -8.3      0.000      0.000
REMARK  5 active torsions:
REMARK  status: ('A' for Active; 'I' for Inactive)
REMARK    1  A    between atoms: C_7  and  C_8 
REMARK    2  A    between atoms: N_9  and  N_10 
REMARK       I    between atoms: N_10  and  C_11 
REMARK    3  A    between atoms: C_11  and  C_12 
REMARK    4  A    between atoms: C_12  and  N_13 
REMARK    5  A    between atoms: N_13  and  C_14 
ROOT
HETATM    1  N   UNL     1      43.570 -14.396   5.900  1.00  0.00    -0.246 N 
HETATM    2  C   UNL     1      43.694 -15.408   6.863  1.00  0.00     0.250 C 
HETATM    3  O   UNL     1      43.133 -15.415   7.957  1.00  0.00    -0.270 OA
HETATM    4  H   UNL     1      44.415 -14.172   5.385  1.00  0.00     0.192 HD
ENDROOT
BRANCH   1   5
HETATM    5  N   UNL     1      42.766 -13.307   6.119  1.00  0.00    -0.184 NA
HETATM    6  C   UNL     1      41.543 -13.336   5.665  1.00  0.00     0.153 C 
BRANCH   6   7
HETATM    7  C   UNL     1      40.973 -14.310   4.745  1.00  0.00     0.018 A 
HETATM    8  C   UNL     1      40.338 -15.474   5.157  1.00  0.00     0.018 A 
HETATM    9  C   UNL     1      40.092 -16.016   6.519  1.00  0.00     0.069 C 
HETATM   10  N   UNL     1      39.981 -16.174   4.033  1.00  0.00    -0.358 N 
HETATM   11  H   UNL     1      39.538 -17.083   4.030  1.00  0.00     0.166 HD
HETATM   12  C   UNL     1      40.300 -15.468   2.899  1.00  0.00     0.043 A 
HETATM   13  C   UNL     1      40.893 -14.275   3.311  1.00  0.00     0.004 A 
HETATM   14  C   UNL     1      40.102 -15.795   1.552  1.00  0.00     0.030 A 
HETATM   15  C   UNL     1      41.262 -13.341   2.317  1.00  0.00     0.014 A 
HETATM   16  C   UNL     1      41.072 -13.650   0.965  1.00  0.00     0.001 A 
HETATM   17  C   UNL     1      40.506 -14.865   0.591  1.00  0.00     0.002 A 
ENDBRANCH   6   7
ENDBRANCH   1   5
BRANCH   2  18
HETATM   18  C   UNL     1      44.630 -16.525   6.381  1.00  0.00     0.197 C 
BRANCH  18  19
HETATM   19  N   UNL     1      43.901 -17.764   6.097  1.00  0.00    -0.283 NA
HETATM   20  H   UNL     1      44.181 -18.531   6.714  1.00  0.00     0.128 HD
BRANCH  19  21
HETATM   21  C   UNL     1      43.777 -18.162   4.756  1.00  0.00     0.030 A 
HETATM   22  C   UNL     1      43.924 -19.514   4.381  1.00  0.00     0.055 A 
HETATM   23 CL   UNL     1      44.363 -20.711   5.551  1.00  0.00    -0.082 Cl
HETATM   24  C   UNL     1      43.752 -19.924   3.054  1.00  0.00     0.026 A 
HETATM   25  C   UNL     1      43.406 -18.994   2.077  1.00  0.00     0.002 A 
HETATM   26  C   UNL     1      43.225 -17.659   2.429  1.00  0.00     0.002 A 
HETATM   27  C   UNL     1      43.401 -17.252   3.756  1.00  0.00     0.025 A 
ENDBRANCH  19  21
ENDBRANCH  18  19
ENDBRANCH   2  18
TORSDOF 5
ENDMDL
MODEL 2
REMARK VINA RESULT:      -8.1      1.638      2.474
REMARK  5 active torsions:
REMARK  status: ('A' for Active; 'I' for Inactive)
REMARK    1  A    between atoms: C_7  and  C_8 
REMARK    2  A    between atoms: N_9  and  N_10 
REMARK       I    between atoms: N_10  and  C_11 
REMARK    3  A    between atoms: C_11  and  C_12 
REMARK    4  A    between atoms: C_12  and  N_13 
REMARK    5  A    between atoms: N_13  and  C_14 
ROOT
HETATM    1  N   UNL     1      41.878 -16.085   6.353  1.00  0.00    -0.246 N 
HETATM    2  C   UNL     1      42.998 -16.183   7.191  1.00  0.00     0.250 C 
HETATM    3  O   UNL     1      43.093 -15.673   8.306  1.00  0.00    -0.270 OA
HETATM    4  H   UNL     1      42.077 -15.993   5.362  1.00  0.00     0.192 HD
ENDROOT
BRANCH   1   5
HETATM    5  N   UNL     1      40.760 -15.396   6.746  1.00  0.00    -0.184 NA
HETATM    6  C   UNL     1      40.238 -14.535   5.917  1.00  0.00     0.153 C 
BRANCH   6   7
HETATM    7  C   UNL     1      40.828 -14.039   4.682  1.00  0.00     0.018 A 
HETATM    8  C   UNL     1      41.740 -12.994   4.633  1.00  0.00     0.018 A 
HETATM    9  C   UNL     1      42.313 -12.154   5.717  1.00  0.00     0.069 C 
HETATM   10  N   UNL     1      42.036 -12.759   3.314  1.00  0.00    -0.358 N 
HETATM   11  H   UNL     1      42.644 -12.025   2.976  1.00  0.00     0.166 HD
HETATM   12  C   UNL     1      41.399 -13.667   2.505  1.00  0.00     0.043 A 
HETATM   13  C   UNL     1      40.658 -14.508   3.335  1.00  0.00     0.004 A 
HETATM   14  C   UNL     1      41.429 -13.805   1.112  1.00  0.00     0.030 A 
HETATM   15  C   UNL     1      39.951 -15.574   2.735  1.00  0.00     0.014 A 
HETATM   16  C   UNL     1      39.969 -15.729   1.344  1.00  0.00     0.001 A 
HETATM   17  C   UNL     1      40.694 -14.849   0.545  1.00  0.00     0.002 A 
ENDBRANCH   6   7
ENDBRANCH   1   5
BRANCH   2  18
HETATM   18  C   UNL     1      44.112 -17.016   6.542  1.00  0.00     0.197 C 
BRANCH  18  19
HETATM   19  N   UNL     1      44.009 -17.022   5.080  1.00  0.00    -0.283 NA
HETATM   20  H   UNL     1      43.346 -16.323   4.733  1.00  0.00     0.128 HD
BRANCH  19  21
HETATM   21  C   UNL     1      43.879 -18.262   4.434  1.00  0.00     0.030 A 
HETATM   22  C   UNL     1      43.610 -18.338   3.051  1.00  0.00     0.055 A 
HETATM   23 CL   UNL     1      43.332 -16.902   2.126  1.00  0.00    -0.082 Cl
HETATM   24  C   UNL     1      43.529 -19.570   2.393  1.00  0.00     0.026 A 
HETATM   25  C   UNL     1      43.738 -20.753   3.098  1.00  0.00     0.002 A 
HETATM   26  C   UNL     1      44.035 -20.700   4.458  1.00  0.00     0.002 A 
HETATM   27  C   UNL     1      44.112 -19.468   5.114  1.00  0.00     0.025 A 
ENDBRANCH  19  21
ENDBRANCH  18  19
ENDBRANCH   2  18
TORSDOF 5
ENDMDL
MODEL 3
REMARK VINA RESULT:      -8.0      1.336      2.177
REMARK  5 active torsions:
REMARK  status: ('A' for Active; 'I' for Inactive)
REMARK    1  A    between atoms: C_7  and  C_8 
REMARK    2  A    between atoms: N_9  and  N_10 
REMARK       I    between atoms: N_10  and  C_11 
REMARK    3  A    between atoms: C_11  and  C_12 
REMARK    4  A    between atoms: C_12  and  N_13 
REMARK    5  A    between atoms: N_13  and  C_14 
ROOT
HETATM    1  N   UNL     1      43.603 -14.453   6.413  1.00  0.00    -0.246 N 
HETATM    2  C   UNL     1      43.293 -15.785   6.725  1.00  0.00     0.250 C 
HETATM    3  O   UNL     1      42.258 -16.160   7.272  1.00  0.00    -0.270 OA
HETATM    4  H   UNL     1      44.574 -14.187   6.535  1.00  0.00     0.192 HD
ENDROOT
BRANCH   1   5
HETATM    5  N   UNL     1      42.725 -13.439   6.698  1.00  0.00    -0.184 NA
HETATM    6  C   UNL     1      41.977 -12.976   5.734  1.00  0.00     0.153 C 
BRANCH   6   7
HETATM    7  C   UNL     1      42.109 -13.256   4.311  1.00  0.00     0.018 A 
HETATM    8  C   UNL     1      43.032 -12.624   3.488  1.00  0.00     0.018 A 
HETATM    9  C   UNL     1      44.042 -11.576   3.787  1.00  0.00     0.069 C 
HETATM   10  N   UNL     1      42.837 -13.086   2.211  1.00  0.00    -0.358 N 
HETATM   11  H   UNL     1      43.341 -12.769   1.394  1.00  0.00     0.166 HD
HETATM   12  C   UNL     1      41.863 -14.054   2.189  1.00  0.00     0.043 A 
HETATM   13  C   UNL     1      41.409 -14.210   3.498  1.00  0.00     0.004 A 
HETATM   14  C   UNL     1      41.360 -14.798   1.114  1.00  0.00     0.030 A 
HETATM   15  C   UNL     1      40.432 -15.201   3.746  1.00  0.00     0.014 A 
HETATM   16  C   UNL     1      39.918 -15.955   2.684  1.00  0.00     0.001 A 
HETATM   17  C   UNL     1      40.373 -15.748   1.385  1.00  0.00     0.002 A 
ENDBRANCH   6   7
ENDBRANCH   1   5
BRANCH   2  18
HETATM   18  C   UNL     1      44.418 -16.735   6.295  1.00  0.00     0.197 C 
BRANCH  18  19
HETATM   19  N   UNL     1      43.918 -18.084   6.017  1.00  0.00    -0.283 NA
HETATM   20  H   UNL     1      44.388 -18.798   6.581  1.00  0.00     0.128 HD
BRANCH  19  21
HETATM   21  C   UNL     1      43.764 -18.467   4.675  1.00  0.00     0.030 A 
HETATM   22  C   UNL     1      43.924 -19.811   4.278  1.00  0.00     0.055 A 
HETATM   23 CL   UNL     1      44.416 -21.016   5.419  1.00  0.00    -0.082 Cl
HETATM   24  C   UNL     1      43.724 -20.205   2.950  1.00  0.00     0.026 A 
HETATM   25  C   UNL     1      43.335 -19.269   1.995  1.00  0.00     0.002 A 
HETATM   26  C   UNL     1      43.141 -17.942   2.371  1.00  0.00     0.002 A 
HETATM   27  C   UNL     1      43.346 -17.550   3.698  1.00  0.00     0.025 A 
ENDBRANCH  19  21
ENDBRANCH  18  19
ENDBRANCH   2  18
TORSDOF 5
ENDMDL
MODEL 4
REMARK VINA RESULT:      -7.9      2.555      4.370
REMARK  5 active torsions:
REMARK  status: ('A' for Active; 'I' for Inactive)
REMARK    1  A    between atoms: C_7  and  C_8 
REMARK    2  A    between atoms: N_9  and  N_10 
REMARK       I    between atoms: N_10  and  C_11 
REMARK    3  A    between atoms: C_11  and  C_12 
REMARK    4  A    between atoms: C_12  and  N_13 
REMARK    5  A    between atoms: N_13  and  C_14 
ROOT
HETATM    1  N   UNL     1      42.445 -11.079   3.637  1.00  0.00    -0.246 N 
HETATM    2  C   UNL     1      43.688 -11.413   4.194  1.00  0.00     0.250 C 
HETATM    3  O   UNL     1      44.747 -11.478   3.572  1.00  0.00    -0.270 OA
HETATM    4  H   UNL     1      41.648 -11.589   4.004  1.00  0.00     0.192 HD
ENDROOT
BRANCH   1   5
HETATM    5  N   UNL     1      42.327 -10.775   2.305  1.00  0.00    -0.184 NA
HETATM    6  C   UNL     1      41.557 -11.523   1.564  1.00  0.00     0.153 C 
BRANCH   6   7
HETATM    7  C   UNL     1      40.960 -12.800   1.930  1.00  0.00     0.018 A 
HETATM    8  C   UNL     1      39.596 -12.984   2.116  1.00  0.00     0.018 A 
HETATM    9  C   UNL     1      38.465 -12.024   2.019  1.00  0.00     0.069 C 
HETATM   10  N   UNL     1      39.400 -14.284   2.506  1.00  0.00    -0.358 N 
HETATM   11  H   UNL     1      38.506 -14.689   2.752  1.00  0.00     0.166 HD
HETATM   12  C   UNL     1      40.587 -14.974   2.510  1.00  0.00     0.043 A 
HETATM   13  C   UNL     1      41.583 -14.080   2.118  1.00  0.00     0.004 A 
HETATM   14  C   UNL     1      40.846 -16.314   2.824  1.00  0.00     0.030 A 
HETATM   15  C   UNL     1      42.901 -14.573   1.989  1.00  0.00     0.014 A 
HETATM   16  C   UNL     1      43.180 -15.910   2.298  1.00  0.00     0.001 A 
HETATM   17  C   UNL     1      42.164 -16.764   2.717  1.00  0.00     0.002 A 
ENDBRANCH   6   7
ENDBRANCH   1   5
BRANCH   2  18
HETATM   18  C   UNL     1      43.570 -11.692   5.699  1.00  0.00     0.197 C 
BRANCH  18  19
HETATM   19  N   UNL     1      43.814 -13.102   6.014  1.00  0.00    -0.283 NA
HETATM   20  H   UNL     1      44.585 -13.495   5.468  1.00  0.00     0.128 HD
BRANCH  19  21
HETATM   21  C   UNL     1      42.707 -13.962   6.088  1.00  0.00     0.030 A 
HETATM   22  C   UNL     1      42.872 -15.344   6.317  1.00  0.00     0.055 A 
HETATM   23 CL   UNL     1      44.453 -16.040   6.412  1.00  0.00    -0.082 Cl
HETATM   24  C   UNL     1      41.770 -16.197   6.441  1.00  0.00     0.026 A 
HETATM   25  C   UNL     1      40.478 -15.683   6.364  1.00  0.00     0.002 A 
HETATM   26  C   UNL     1      40.290 -14.317   6.170  1.00  0.00     0.002 A 
HETATM   27  C   UNL     1      41.394 -13.467   6.042  1.00  0.00     0.025 A 
ENDBRANCH  19  21
ENDBRANCH  18  19
ENDBRANCH   2  18
TORSDOF 5
ENDMDL
MODEL 5
REMARK VINA RESULT:      -7.7      2.816      4.035
REMARK  5 active torsions:
REMARK  status: ('A' for Active; 'I' for Inactive)
REMARK    1  A    between atoms: C_7  and  C_8 
REMARK    2  A    between atoms: N_9  and  N_10 
REMARK       I    between atoms: N_10  and  C_11 
REMARK    3  A    between atoms: C_11  and  C_12 
REMARK    4  A    between atoms: C_12  and  N_13 
REMARK    5  A    between atoms: N_13  and  C_14 
ROOT
HETATM    1  N   UNL     1      43.164 -11.504   4.741  1.00  0.00    -0.246 N 
HETATM    2  C   UNL     1      44.379 -11.629   5.430  1.00  0.00     0.250 C 
HETATM    3  O   UNL     1      45.463 -11.205   5.033  1.00  0.00    -0.270 OA
HETATM    4  H   UNL     1      42.540 -12.302   4.803  1.00  0.00     0.192 HD
ENDROOT
BRANCH   1   5
HETATM    5  N   UNL     1      43.100 -10.860   3.533  1.00  0.00    -0.184 NA
HETATM    6  C   UNL     1      42.240 -11.284   2.648  1.00  0.00     0.153 C 
BRANCH   6   7
HETATM    7  C   UNL     1      41.469 -12.518   2.696  1.00  0.00     0.018 A 
HETATM    8  C   UNL     1      40.101 -12.559   2.932  1.00  0.00     0.018 A 
HETATM    9  C   UNL     1      39.128 -11.466   3.191  1.00  0.00     0.069 C 
HETATM   10  N   UNL     1      39.723 -13.877   2.966  1.00  0.00    -0.358 N 
HETATM   11  H   UNL     1      38.788 -14.210   3.161  1.00  0.00     0.166 HD
HETATM   12  C   UNL     1      40.790 -14.695   2.687  1.00  0.00     0.043 A 
HETATM   13  C   UNL     1      41.896 -13.872   2.478  1.00  0.00     0.004 A 
HETATM   14  C   UNL     1      40.853 -16.092   2.601  1.00  0.00     0.030 A 
HETATM   15  C   UNL     1      43.117 -14.483   2.116  1.00  0.00     0.014 A 
HETATM   16  C   UNL     1      43.199 -15.878   2.024  1.00  0.00     0.001 A 
HETATM   17  C   UNL     1      42.082 -16.669   2.272  1.00  0.00     0.002 A 
ENDBRANCH   6   7
ENDBRANCH   1   5
BRANCH   2  18
HETATM   18  C   UNL     1      44.194 -12.369   6.762  1.00  0.00     0.197 C 
BRANCH  18  19
HETATM   19  N   UNL     1      42.904 -13.060   6.828  1.00  0.00    -0.283 NA
HETATM   20  H   UNL     1      42.377 -12.822   7.673  1.00  0.00     0.128 HD
BRANCH  19  21
HETATM   21  C   UNL     1      42.878 -14.435   6.541  1.00  0.00     0.030 A 
HETATM   22  C   UNL     1      41.663 -15.100   6.276  1.00  0.00     0.055 A 
HETATM   23 CL   UNL     1      40.154 -14.262   6.396  1.00  0.00    -0.082 Cl
HETATM   24  C   UNL     1      41.636 -16.459   5.940  1.00  0.00     0.026 A 
HETATM   25  C   UNL     1      42.826 -17.176   5.840  1.00  0.00     0.002 A 
HETATM   26  C   UNL     1      44.039 -16.532   6.067  1.00  0.00     0.002 A 
HETATM   27  C   UNL     1      44.063 -15.175   6.405  1.00  0.00     0.025 A 
ENDBRANCH  19  21
ENDBRANCH  18  19
ENDBRANCH   2  18
TORSDOF 5
ENDMDL
MODEL 6
REMARK VINA RESULT:      -7.6      3.751      5.991
REMARK  5 active torsions:
REMARK  status: ('A' for Active; 'I' for Inactive)
REMARK    1  A    between atoms: C_7  and  C_8 
REMARK    2  A    between atoms: N_9  and  N_10 
REMARK       I    between atoms: N_10  and  C_11 
REMARK    3  A    between atoms: C_11  and  C_12 
REMARK    4  A    between atoms: C_12  and  N_13 
REMARK    5  A    between atoms: N_13  and  C_14 
ROOT
HETATM    1  N   UNL     1      40.767 -13.747   6.458  1.00  0.00    -0.246 N 
HETATM    2  C   UNL     1      40.170 -12.521   6.134  1.00  0.00     0.250 C 
HETATM    3  O   UNL     1      38.959 -12.318   6.074  1.00  0.00    -0.270 OA
HETATM    4  H   UNL     1      41.612 -13.975   5.944  1.00  0.00     0.192 HD
ENDROOT
BRANCH   1   5
HETATM    5  N   UNL     1      40.004 -14.847   6.758  1.00  0.00    -0.184 NA
HETATM    6  C   UNL     1      40.418 -16.017   6.359  1.00  0.00     0.153 C 
BRANCH   6   7
HETATM    7  C   UNL     1      41.501 -16.293   5.425  1.00  0.00     0.018 A 
HETATM    8  C   UNL     1      42.719 -16.841   5.804  1.00  0.00     0.018 A 
HETATM    9  C   UNL     1      43.224 -17.253   7.140  1.00  0.00     0.069 C 
HETATM   10  N   UNL     1      43.513 -16.906   4.688  1.00  0.00    -0.358 N 
HETATM   11  H   UNL     1      44.472 -17.227   4.673  1.00  0.00     0.166 HD
HETATM   12  C   UNL     1      42.824 -16.483   3.577  1.00  0.00     0.043 A 
HETATM   13  C   UNL     1      41.544 -16.124   4.000  1.00  0.00     0.004 A 
HETATM   14  C   UNL     1      43.237 -16.400   2.242  1.00  0.00     0.030 A 
HETATM   15  C   UNL     1      40.617 -15.704   3.019  1.00  0.00     0.014 A 
HETATM   16  C   UNL     1      41.012 -15.615   1.679  1.00  0.00     0.001 A 
HETATM   17  C   UNL     1      42.308 -15.952   1.300  1.00  0.00     0.002 A 
ENDBRANCH   6   7
ENDBRANCH   1   5
BRANCH   2  18
HETATM   18  C   UNL     1      41.225 -11.441   5.857  1.00  0.00     0.197 C 
BRANCH  18  19
HETATM   19  N   UNL     1      41.843 -10.951   7.092  1.00  0.00    -0.283 NA
HETATM   20  H   UNL     1      41.393 -10.101   7.442  1.00  0.00     0.128 HD
BRANCH  19  21
HETATM   21  C   UNL     1      43.245 -10.886   7.147  1.00  0.00     0.030 A 
HETATM   22  C   UNL     1      43.907 -10.413   8.298  1.00  0.00     0.055 A 
HETATM   23 CL   UNL     1      43.008  -9.801   9.645  1.00  0.00    -0.082 Cl
HETATM   24  C   UNL     1      45.304 -10.392   8.377  1.00  0.00     0.026 A 
HETATM   25  C   UNL     1      46.069 -10.867   7.315  1.00  0.00     0.002 A 
HETATM   26  C   UNL     1      45.436 -11.368   6.180  1.00  0.00     0.002 A 
HETATM   27  C   UNL     1      44.040 -11.384   6.103  1.00  0.00     0.025 A 
ENDBRANCH  19  21
ENDBRANCH  18  19
ENDBRANCH   2  18
TORSDOF 5
ENDMDL
MODEL 7
REMARK VINA RESULT:      -7.2      3.376      6.732
REMARK  5 active torsions:
REMARK  status: ('A' for Active; 'I' for Inactive)
REMARK    1  A    between atoms: C_7  and  C_8 
REMARK    2  A    between atoms: N_9  and  N_10 
REMARK       I    between atoms: N_10  and  C_11 
REMARK    3  A    between atoms: C_11  and  C_12 
REMARK    4  A    between atoms: C_12  and  N_13 
REMARK    5  A    between atoms: N_13  and  C_14 
ROOT
HETATM    1  N   UNL     1      41.201 -15.042   3.920  1.00  0.00    -0.246 N 
HETATM    2  C   UNL     1      40.870 -14.013   3.026  1.00  0.00     0.250 C 
HETATM    3  O   UNL     1      41.399 -12.904   2.998  1.00  0.00    -0.270 OA
HETATM    4  H   UNL     1      40.422 -15.598   4.258  1.00  0.00     0.192 HD
ENDROOT
BRANCH   1   5
HETATM    5  N   UNL     1      42.191 -14.874   4.854  1.00  0.00    -0.184 NA
HETATM    6  C   UNL     1      43.253 -15.627   4.774  1.00  0.00     0.153 C 
BRANCH   6   7
HETATM    7  C   UNL     1      43.435 -16.799   3.930  1.00  0.00     0.018 A 
HETATM    8  C   UNL     1      43.515 -16.742   2.545  1.00  0.00     0.018 A 
HETATM    9  C   UNL     1      43.434 -15.586   1.615  1.00  0.00     0.069 C 
HETATM   10  N   UNL     1      43.627 -18.028   2.080  1.00  0.00    -0.358 N 
HETATM   11  H   UNL     1      43.662 -18.293   1.104  1.00  0.00     0.166 HD
HETATM   12  C   UNL     1      43.695 -18.917   3.124  1.00  0.00     0.043 A 
HETATM   13  C   UNL     1      43.612 -18.175   4.302  1.00  0.00     0.004 A 
HETATM   14  C   UNL     1      43.827 -20.311   3.109  1.00  0.00     0.030 A 
HETATM   15  C   UNL     1      43.718 -18.868   5.529  1.00  0.00     0.014 A 
HETATM   16  C   UNL     1      43.851 -20.262   5.534  1.00  0.00     0.001 A 
HETATM   17  C   UNL     1      43.897 -20.971   4.338  1.00  0.00     0.002 A 
ENDBRANCH   6   7
ENDBRANCH   1   5
BRANCH   2  18
HETATM   18  C   UNL     1      39.750 -14.444   2.069  1.00  0.00     0.197 C 
BRANCH  18  19
HETATM   19  N   UNL     1      39.267 -13.326   1.254  1.00  0.00    -0.283 NA
HETATM   20  H   UNL     1      38.263 -13.167   1.366  1.00  0.00     0.128 HD
BRANCH  19  21
HETATM   21  C   UNL     1      39.682 -13.260  -0.086  1.00  0.00     0.030 A 
HETATM   22  C   UNL     1      40.428 -12.163  -0.565  1.00  0.00     0.055 A 
HETATM   23 CL   UNL     1      40.768 -10.812   0.462  1.00  0.00    -0.082 Cl
HETATM   24  C   UNL     1      40.886 -12.116  -1.886  1.00  0.00     0.026 A 
HETATM   25  C   UNL     1      40.628 -13.177  -2.751  1.00  0.00     0.002 A 
HETATM   26  C   UNL     1      39.921 -14.284  -2.291  1.00  0.00     0.002 A 
HETATM   27  C   UNL     1      39.461 -14.327  -0.972  1.00  0.00     0.025 A 
ENDBRANCH  19  21
ENDBRANCH  18  19
ENDBRANCH   2  18
TORSDOF 5
ENDMDL
MODEL 8
REMARK VINA RESULT:      -7.2      3.681      6.289
REMARK  5 active torsions:
REMARK  status: ('A' for Active; 'I' for Inactive)
REMARK    1  A    between atoms: C_7  and  C_8 
REMARK    2  A    between atoms: N_9  and  N_10 
REMARK       I    between atoms: N_10  and  C_11 
REMARK    3  A    between atoms: C_11  and  C_12 
REMARK    4  A    between atoms: C_12  and  N_13 
REMARK    5  A    between atoms: N_13  and  C_14 
ROOT
HETATM    1  N   UNL     1      41.849 -13.212   3.393  1.00  0.00    -0.246 N 
HETATM    2  C   UNL     1      42.372 -12.072   2.766  1.00  0.00     0.250 C 
HETATM    3  O   UNL     1      41.954 -11.588   1.716  1.00  0.00    -0.270 OA
HETATM    4  H   UNL     1      42.530 -13.826   3.829  1.00  0.00     0.192 HD
ENDROOT
BRANCH   1   5
HETATM    5  N   UNL     1      40.780 -13.884   2.859  1.00  0.00    -0.184 NA
HETATM    6  C   UNL     1      40.498 -15.070   3.322  1.00  0.00     0.153 C 
BRANCH   6   7
HETATM    7  C   UNL     1      41.320 -15.885   4.205  1.00  0.00     0.018 A 
HETATM    8  C   UNL     1      41.217 -15.860   5.589  1.00  0.00     0.018 A 
HETATM    9  C   UNL     1      40.335 -15.065   6.483  1.00  0.00     0.069 C 
HETATM   10  N   UNL     1      42.175 -16.701   6.095  1.00  0.00    -0.358 N 
HETATM   11  H   UNL     1      42.359 -16.850   7.078  1.00  0.00     0.166 HD
HETATM   12  C   UNL     1      42.853 -17.330   5.079  1.00  0.00     0.043 A 
HETATM   13  C   UNL     1      42.317 -16.866   3.878  1.00  0.00     0.004 A 
HETATM   14  C   UNL     1      43.889 -18.271   5.138  1.00  0.00     0.030 A 
HETATM   15  C   UNL     1      42.816 -17.414   2.675  1.00  0.00     0.014 A 
HETATM   16  C   UNL     1      43.851 -18.356   2.714  1.00  0.00     0.001 A 
HETATM   17  C   UNL     1      44.383 -18.771   3.932  1.00  0.00     0.002 A 
ENDBRANCH   6   7
ENDBRANCH   1   5
BRANCH   2  18
HETATM   18  C   UNL     1      43.549 -11.488   3.560  1.00  0.00     0.197 C 
BRANCH  18  19
HETATM   19  N   UNL     1      43.775 -12.210   4.814  1.00  0.00    -0.283 NA
HETATM   20  H   UNL     1      43.007 -12.847   5.041  1.00  0.00     0.128 HD
BRANCH  19  21
HETATM   21  C   UNL     1      44.218 -11.476   5.926  1.00  0.00     0.030 A 
HETATM   22  C   UNL     1      43.303 -10.845   6.794  1.00  0.00     0.055 A 
HETATM   23 CL   UNL     1      41.606 -10.869   6.456  1.00  0.00    -0.082 Cl
HETATM   24  C   UNL     1      43.737 -10.154   7.931  1.00  0.00     0.026 A 
HETATM   25  C   UNL     1      45.094 -10.100   8.239  1.00  0.00     0.002 A 
HETATM   26  C   UNL     1      46.013 -10.744   7.414  1.00  0.00     0.002 A 
HETATM   27  C   UNL     1      45.577 -11.430   6.276  1.00  0.00     0.025 A 
ENDBRANCH  19  21
ENDBRANCH  18  19
ENDBRANCH   2  18
TORSDOF 5
ENDMDL
MODEL 9
REMARK VINA RESULT:      -7.1      3.974      6.742
REMARK  5 active torsions:
REMARK  status: ('A' for Active; 'I' for Inactive)
REMARK    1  A    between atoms: C_7  and  C_8 
REMARK    2  A    between atoms: N_9  and  N_10 
REMARK       I    between atoms: N_10  and  C_11 
REMARK    3  A    between atoms: C_11  and  C_12 
REMARK    4  A    between atoms: C_12  and  N_13 
REMARK    5  A    between atoms: N_13  and  C_14 
ROOT
HETATM    1  N   UNL     1      41.560 -14.090   6.466  1.00  0.00    -0.246 N 
HETATM    2  C   UNL     1      41.708 -12.832   5.864  1.00  0.00     0.250 C 
HETATM    3  O   UNL     1      40.810 -12.208   5.302  1.00  0.00    -0.270 OA
HETATM    4  H   UNL     1      42.344 -14.725   6.357  1.00  0.00     0.192 HD
ENDROOT
BRANCH   1   5
HETATM    5  N   UNL     1      40.346 -14.727   6.482  1.00  0.00    -0.184 NA
HETATM    6  C   UNL     1      40.171 -15.748   5.689  1.00  0.00     0.153 C 
BRANCH   6   7
HETATM    7  C   UNL     1      41.045 -16.179   4.607  1.00  0.00     0.018 A 
HETATM    8  C   UNL     1      40.885 -15.780   3.287  1.00  0.00     0.018 A 
HETATM    9  C   UNL     1      39.869 -14.897   2.657  1.00  0.00     0.069 C 
HETATM   10  N   UNL     1      41.842 -16.417   2.539  1.00  0.00    -0.358 N 
HETATM   11  H   UNL     1      41.938 -16.347   1.535  1.00  0.00     0.166 HD
HETATM   12  C   UNL     1      42.667 -17.165   3.343  1.00  0.00     0.043 A 
HETATM   13  C   UNL     1      42.216 -17.009   4.653  1.00  0.00     0.004 A 
HETATM   14  C   UNL     1      43.773 -17.955   3.006  1.00  0.00     0.030 A 
HETATM   15  C   UNL     1      42.946 -17.643   5.684  1.00  0.00     0.014 A 
HETATM   16  C   UNL     1      44.055 -18.437   5.367  1.00  0.00     0.001 A 
HETATM   17  C   UNL     1      44.456 -18.595   4.044  1.00  0.00     0.002 A 
ENDBRANCH   6   7
ENDBRANCH   1   5
BRANCH   2  18
HETATM   18  C   UNL     1      43.148 -12.317   5.991  1.00  0.00     0.197 C 
BRANCH  18  19
HETATM   19  N   UNL     1      43.529 -12.099   7.389  1.00  0.00    -0.283 NA
HETATM   20  H   UNL     1      42.778 -12.341   8.040  1.00  0.00     0.128 HD
BRANCH  19  21
HETATM   21  C   UNL     1      44.166 -10.892   7.717  1.00  0.00     0.030 A 
HETATM   22  C   UNL     1      43.420  -9.737   8.033  1.00  0.00     0.055 A 
HETATM   23 CL   UNL     1      41.692  -9.747   7.925  1.00  0.00    -0.082 Cl
HETATM   24  C   UNL     1      44.048  -8.545   8.409  1.00  0.00     0.026 A 
HETATM   25  C   UNL     1      45.436  -8.488   8.501  1.00  0.00     0.002 A 
HETATM   26  C   UNL     1      46.193  -9.624   8.225  1.00  0.00     0.002 A 
HETATM   27  C   UNL     1      45.562 -10.813   7.846  1.00  0.00     0.025 A 
ENDBRANCH  19  21
ENDBRANCH  18  19
ENDBRANCH   2  18
TORSDOF 5
ENDMDL
MODEL 10
REMARK VINA RESULT:      -7.0      3.602      6.710
REMARK  5 active torsions:
REMARK  status: ('A' for Active; 'I' for Inactive)
REMARK    1  A    between atoms: C_7  and  C_8 
REMARK    2  A    between atoms: N_9  and  N_10 
REMARK       I    between atoms: N_10  and  C_11 
REMARK    3  A    between atoms: C_11  and  C_12 
REMARK    4  A    between atoms: C_12  and  N_13 
REMARK    5  A    between atoms: N_13  and  C_14 
ROOT
HETATM    1  N   UNL     1      41.133 -12.719   3.918  1.00  0.00    -0.246 N 
HETATM    2  C   UNL     1      40.834 -12.034   5.105  1.00  0.00     0.250 C 
HETATM    3  O   UNL     1      39.797 -12.162   5.753  1.00  0.00    -0.270 OA
HETATM    4  H   UNL     1      41.628 -12.182   3.214  1.00  0.00     0.192 HD
ENDROOT
BRANCH   1   5
HETATM    5  N   UNL     1      40.255 -13.629   3.388  1.00  0.00    -0.184 NA
HETATM    6  C   UNL     1      40.539 -14.898   3.490  1.00  0.00     0.153 C 
BRANCH   6   7
HETATM    7  C   UNL     1      41.804 -15.482   3.914  1.00  0.00     0.018 A 
HETATM    8  C   UNL     1      42.788 -15.904   3.030  1.00  0.00     0.018 A 
HETATM    9  C   UNL     1      42.828 -15.894   1.545  1.00  0.00     0.069 C 
HETATM   10  N   UNL     1      43.806 -16.450   3.770  1.00  0.00    -0.358 N 
HETATM   11  H   UNL     1      44.639 -16.876   3.387  1.00  0.00     0.166 HD
HETATM   12  C   UNL     1      43.548 -16.331   5.113  1.00  0.00     0.043 A 
HETATM   13  C   UNL     1      42.313 -15.696   5.240  1.00  0.00     0.004 A 
HETATM   14  C   UNL     1      44.314 -16.733   6.215  1.00  0.00     0.030 A 
HETATM   15  C   UNL     1      41.848 -15.405   6.542  1.00  0.00     0.014 A 
HETATM   16  C   UNL     1      42.601 -15.798   7.655  1.00  0.00     0.001 A 
HETATM   17  C   UNL     1      43.814 -16.460   7.490  1.00  0.00     0.002 A 
ENDBRANCH   6   7
ENDBRANCH   1   5
BRANCH   2  18
HETATM   18  C   UNL     1      41.974 -11.088   5.507  1.00  0.00     0.197 C 
BRANCH  18  19
HETATM   19  N   UNL     1      42.176 -11.061   6.958  1.00  0.00    -0.283 NA
HETATM   20  H   UNL     1      41.361 -10.694   7.458  1.00  0.00     0.128 HD
BRANCH  19  21
HETATM   21  C   UNL     1      43.389 -10.548   7.445  1.00  0.00     0.030 A 
HETATM   22  C   UNL     1      44.588 -11.282   7.332  1.00  0.00     0.055 A 
HETATM   23 CL   UNL     1      44.583 -12.884   6.678  1.00  0.00    -0.082 Cl
HETATM   24  C   UNL     1      45.808 -10.755   7.770  1.00  0.00     0.026 A 
HETATM   25  C   UNL     1      45.859  -9.472   8.310  1.00  0.00     0.002 A 
HETATM   26  C   UNL     1      44.693  -8.717   8.404  1.00  0.00     0.002 A 
HETATM   27  C   UNL     1      43.475  -9.248   7.968  1.00  0.00     0.025 A 
ENDBRANCH  19  21
ENDBRANCH  18  19
ENDBRANCH   2  18
TORSDOF 5
ENDMDL
