MODEL 1
REMARK VINA RESULT:      -8.1      0.000      0.000
REMARK  3 active torsions:
REMARK  status: ('A' for Active; 'I' for Inactive)
REMARK    1  A    between atoms: C_5  and  N_6 
REMARK       I    between atoms: N_6  and  C_7 
REMARK    2  A    between atoms: C_7  and  C_8 
REMARK    3  A    between atoms: C_8  and  C_9 
ROOT
HETATM    1  C   UNL     1      42.131 -11.440   6.383  1.00  0.00     0.286 C 
HETATM    2  N   UNL     1      43.097 -12.280   7.232  1.00  0.00    -0.056 N 
HETATM    3  H   UNL     1      42.540 -12.716   7.979  1.00  0.00     0.278 HD
HETATM    4  H   UNL     1      43.417 -13.103   6.675  1.00  0.00     0.278 HD
HETATM    5  C   UNL     1      44.266 -11.589   7.865  1.00  0.00     0.209 C 
HETATM    6  C   UNL     1      43.813 -10.233   8.453  1.00  0.00     0.115 C 
HETATM    7  N   UNL     1      43.106  -9.424   7.469  1.00  0.00    -0.353 N 
HETATM    8  C   UNL     1      42.225  -9.921   6.551  1.00  0.00     0.249 C 
HETATM    9  O   UNL     1      41.533  -9.154   5.888  1.00  0.00    -0.271 OA
HETATM   10  C   UNL     1      45.407 -11.460   6.858  1.00  0.00     0.035 C 
HETATM   11  C   UNL     1      46.580 -10.690   7.463  1.00  0.00     0.002 C 
HETATM   12  C   UNL     1      46.144  -9.331   8.004  1.00  0.00     0.002 C 
HETATM   13  C   UNL     1      45.010  -9.467   9.021  1.00  0.00     0.027 C 
HETATM   14  H   UNL     1      43.040  -8.416   7.600  1.00  0.00     0.163 HD
ENDROOT
BRANCH   1  15
HETATM   15  C   UNL     1      42.227 -11.816   4.900  1.00  0.00     0.146 C 
BRANCH  15  16
HETATM   16  C   UNL     1      42.157 -13.316   4.854  1.00  0.00     0.224 C 
HETATM   17  N   UNL     1      43.134 -13.904   4.089  1.00  0.00    -0.327 N 
HETATM   18  H   UNL     1      43.945 -13.351   3.828  1.00  0.00     0.169 HD
HETATM   19  O   UNL     1      41.141 -13.837   5.314  1.00  0.00    -0.273 OA
BRANCH  17  20
HETATM   20  C   UNL     1      43.115 -15.215   3.563  1.00  0.00     0.034 A 
HETATM   21  C   UNL     1      42.951 -15.510   2.209  1.00  0.00     0.030 A 
HETATM   22  C   UNL     1      43.010 -16.833   1.758  1.00  0.00     0.009 A 
HETATM   23  C   UNL     1      43.230 -17.882   2.653  1.00  0.00    -0.062 A 
HETATM   24  C   UNL     1      43.321 -19.299   2.171  1.00  0.00     0.048 C 
HETATM   25  C   UNL     1      43.388 -17.588   4.010  1.00  0.00     0.009 A 
HETATM   26  C   UNL     1      43.323 -16.268   4.463  1.00  0.00     0.030 A 
ENDBRANCH  17  20
ENDBRANCH  15  16
ENDBRANCH   1  15
TORSDOF 3
ENDMDL
MODEL 2
REMARK VINA RESULT:      -8.0      2.246      3.766
REMARK  3 active torsions:
REMARK  status: ('A' for Active; 'I' for Inactive)
REMARK    1  A    between atoms: C_5  and  N_6 
REMARK       I    between atoms: N_6  and  C_7 
REMARK    2  A    between atoms: C_7  and  C_8 
REMARK    3  A    between atoms: C_8  and  C_9 
ROOT
HETATM    1  C   UNL     1      43.305 -13.601   6.167  1.00  0.00     0.286 C 
HETATM    2  N   UNL     1      42.206 -13.679   5.096  1.00  0.00    -0.056 N 
HETATM    3  H   UNL     1      42.678 -13.757   4.186  1.00  0.00     0.278 HD
HETATM    4  H   UNL     1      41.712 -14.595   5.177  1.00  0.00     0.278 HD
HETATM    5  C   UNL     1      41.218 -12.556   5.015  1.00  0.00     0.209 C 
HETATM    6  C   UNL     1      41.951 -11.204   5.169  1.00  0.00     0.115 C 
HETATM    7  N   UNL     1      42.788 -11.174   6.361  1.00  0.00    -0.353 N 
HETATM    8  C   UNL     1      43.528 -12.230   6.811  1.00  0.00     0.249 C 
HETATM    9  O   UNL     1      44.349 -12.065   7.709  1.00  0.00    -0.271 OA
HETATM   10  C   UNL     1      40.106 -12.761   6.042  1.00  0.00     0.035 C 
HETATM   11  C   UNL     1      39.129 -11.586   6.025  1.00  0.00     0.002 C 
HETATM   12  C   UNL     1      39.846 -10.252   6.222  1.00  0.00     0.002 C 
HETATM   13  C   UNL     1      40.949 -10.047   5.183  1.00  0.00     0.027 C 
HETATM   14  H   UNL     1      43.062 -10.278   6.760  1.00  0.00     0.163 HD
ENDROOT
BRANCH   1  15
HETATM   15  C   UNL     1      43.102 -14.668   7.248  1.00  0.00     0.146 C 
BRANCH  15  16
HETATM   16  C   UNL     1      42.737 -15.928   6.515  1.00  0.00     0.224 C 
HETATM   17  N   UNL     1      43.765 -16.478   5.790  1.00  0.00    -0.327 N 
HETATM   18  H   UNL     1      44.715 -16.172   5.985  1.00  0.00     0.169 HD
HETATM   19  O   UNL     1      41.540 -16.212   6.466  1.00  0.00    -0.273 OA
BRANCH  17  20
HETATM   20  C   UNL     1      43.646 -17.414   4.738  1.00  0.00     0.034 A 
HETATM   21  C   UNL     1      43.167 -17.099   3.466  1.00  0.00     0.030 A 
HETATM   22  C   UNL     1      43.142 -18.067   2.457  1.00  0.00     0.009 A 
HETATM   23  C   UNL     1      43.590 -19.366   2.705  1.00  0.00    -0.062 A 
HETATM   24  C   UNL     1      43.590 -20.401   1.619  1.00  0.00     0.048 C 
HETATM   25  C   UNL     1      44.064 -19.684   3.980  1.00  0.00     0.009 A 
HETATM   26  C   UNL     1      44.084 -18.719   4.991  1.00  0.00     0.030 A 
ENDBRANCH  17  20
ENDBRANCH  15  16
ENDBRANCH   1  15
TORSDOF 3
ENDMDL
MODEL 3
REMARK VINA RESULT:      -7.8      2.663      3.894
REMARK  3 active torsions:
REMARK  status: ('A' for Active; 'I' for Inactive)
REMARK    1  A    between atoms: C_5  and  N_6 
REMARK       I    between atoms: N_6  and  C_7 
REMARK    2  A    between atoms: C_7  and  C_8 
REMARK    3  A    between atoms: C_8  and  C_9 
ROOT
HETATM    1  C   UNL     1      43.741  -9.771   8.317  1.00  0.00     0.286 C 
HETATM    2  N   UNL     1      42.446 -10.110   9.071  1.00  0.00    -0.056 N 
HETATM    3  H   UNL     1      41.665  -9.910   8.432  1.00  0.00     0.278 HD
HETATM    4  H   UNL     1      42.382 -11.144   9.195  1.00  0.00     0.278 HD
HETATM    5  C   UNL     1      42.179  -9.408  10.368  1.00  0.00     0.209 C 
HETATM    6  C   UNL     1      42.542  -7.912  10.234  1.00  0.00     0.115 C 
HETATM    7  N   UNL     1      43.894  -7.724   9.724  1.00  0.00    -0.353 N 
HETATM    8  C   UNL     1      44.465  -8.494   8.752  1.00  0.00     0.249 C 
HETATM    9  O   UNL     1      45.531  -8.153   8.248  1.00  0.00    -0.271 OA
HETATM   10  C   UNL     1      42.919 -10.110  11.505  1.00  0.00     0.035 C 
HETATM   11  C   UNL     1      42.719  -9.364  12.824  1.00  0.00     0.002 C 
HETATM   12  C   UNL     1      43.119  -7.895  12.707  1.00  0.00     0.002 C 
HETATM   13  C   UNL     1      42.367  -7.194  11.575  1.00  0.00     0.027 C 
HETATM   14  H   UNL     1      44.375  -6.841   9.888  1.00  0.00     0.163 HD
ENDROOT
BRANCH   1  15
HETATM   15  C   UNL     1      44.711 -10.957   8.321  1.00  0.00     0.146 C 
BRANCH  15  16
HETATM   16  C   UNL     1      44.463 -11.692   7.034  1.00  0.00     0.224 C 
HETATM   17  N   UNL     1      43.565 -12.725   7.136  1.00  0.00    -0.327 N 
HETATM   18  H   UNL     1      42.965 -12.767   7.955  1.00  0.00     0.169 HD
HETATM   19  O   UNL     1      45.224 -11.441   6.098  1.00  0.00    -0.273 OA
BRANCH  17  20
HETATM   20  C   UNL     1      43.409 -13.797   6.230  1.00  0.00     0.034 A 
HETATM   21  C   UNL     1      42.850 -13.667   4.958  1.00  0.00     0.030 A 
HETATM   22  C   UNL     1      42.791 -14.765   4.092  1.00  0.00     0.009 A 
HETATM   23  C   UNL     1      43.285 -16.010   4.486  1.00  0.00    -0.062 A 
HETATM   24  C   UNL     1      43.249 -17.183   3.553  1.00  0.00     0.048 C 
HETATM   25  C   UNL     1      43.839 -16.142   5.763  1.00  0.00     0.009 A 
HETATM   26  C   UNL     1      43.893 -15.048   6.630  1.00  0.00     0.030 A 
ENDBRANCH  17  20
ENDBRANCH  15  16
ENDBRANCH   1  15
TORSDOF 3
ENDMDL
MODEL 4
REMARK VINA RESULT:      -7.7      2.150      3.079
REMARK  3 active torsions:
REMARK  status: ('A' for Active; 'I' for Inactive)
REMARK    1  A    between atoms: C_5  and  N_6 
REMARK       I    between atoms: N_6  and  C_7 
REMARK    2  A    between atoms: C_7  and  C_8 
REMARK    3  A    between atoms: C_8  and  C_9 
ROOT
HETATM    1  C   UNL     1      41.416 -12.660   3.053  1.00  0.00     0.286 C 
HETATM    2  N   UNL     1      41.155 -13.185   4.473  1.00  0.00    -0.056 N 
HETATM    3  H   UNL     1      40.150 -13.068   4.656  1.00  0.00     0.278 HD
HETATM    4  H   UNL     1      41.271 -14.222   4.482  1.00  0.00     0.278 HD
HETATM    5  C   UNL     1      41.912 -12.563   5.606  1.00  0.00     0.209 C 
HETATM    6  C   UNL     1      41.957 -11.029   5.423  1.00  0.00     0.115 C 
HETATM    7  N   UNL     1      42.449 -10.654   4.104  1.00  0.00    -0.353 N 
HETATM    8  C   UNL     1      42.139 -11.314   2.949  1.00  0.00     0.249 C 
HETATM    9  O   UNL     1      42.439 -10.824   1.864  1.00  0.00    -0.271 OA
HETATM   10  C   UNL     1      43.297 -13.198   5.723  1.00  0.00     0.035 C 
HETATM   11  C   UNL     1      44.111 -12.524   6.826  1.00  0.00     0.002 C 
HETATM   12  C   UNL     1      44.195 -11.013   6.623  1.00  0.00     0.002 C 
HETATM   13  C   UNL     1      42.807 -10.381   6.520  1.00  0.00     0.027 C 
HETATM   14  H   UNL     1      42.833  -9.722   3.957  1.00  0.00     0.163 HD
ENDROOT
BRANCH   1  15
HETATM   15  C   UNL     1      42.129 -13.711   2.196  1.00  0.00     0.146 C 
BRANCH  15  16
HETATM   16  C   UNL     1      42.004 -15.005   2.949  1.00  0.00     0.224 C 
HETATM   17  N   UNL     1      43.202 -15.556   3.331  1.00  0.00    -0.327 N 
HETATM   18  H   UNL     1      44.032 -14.971   3.314  1.00  0.00     0.169 HD
HETATM   19  O   UNL     1      40.891 -15.533   2.961  1.00  0.00    -0.273 OA
BRANCH  17  20
HETATM   20  C   UNL     1      43.429 -16.898   3.708  1.00  0.00     0.034 A 
HETATM   21  C   UNL     1      43.603 -17.944   2.801  1.00  0.00     0.030 A 
HETATM   22  C   UNL     1      43.890 -19.236   3.253  1.00  0.00     0.009 A 
HETATM   23  C   UNL     1      44.002 -19.505   4.620  1.00  0.00    -0.062 A 
HETATM   24  C   UNL     1      44.336 -20.882   5.109  1.00  0.00     0.048 C 
HETATM   25  C   UNL     1      43.821 -18.459   5.529  1.00  0.00     0.009 A 
HETATM   26  C   UNL     1      43.528 -17.169   5.078  1.00  0.00     0.030 A 
ENDBRANCH  17  20
ENDBRANCH  15  16
ENDBRANCH   1  15
TORSDOF 3
ENDMDL
MODEL 5
REMARK VINA RESULT:      -7.7      5.108      7.568
REMARK  3 active torsions:
REMARK  status: ('A' for Active; 'I' for Inactive)
REMARK    1  A    between atoms: C_5  and  N_6 
REMARK       I    between atoms: N_6  and  C_7 
REMARK    2  A    between atoms: C_7  and  C_8 
REMARK    3  A    between atoms: C_8  and  C_9 
ROOT
HETATM    1  C   UNL     1      39.672 -12.205   1.291  1.00  0.00     0.286 C 
HETATM    2  N   UNL     1      40.660 -12.741   0.245  1.00  0.00    -0.056 N 
HETATM    3  H   UNL     1      41.384 -12.022   0.118  1.00  0.00     0.278 HD
HETATM    4  H   UNL     1      41.197 -13.537   0.655  1.00  0.00     0.278 HD
HETATM    5  C   UNL     1      40.127 -13.110  -1.106  1.00  0.00     0.209 C 
HETATM    6  C   UNL     1      39.119 -12.039  -1.579  1.00  0.00     0.115 C 
HETATM    7  N   UNL     1      38.087 -11.788  -0.581  1.00  0.00    -0.353 N 
HETATM    8  C   UNL     1      38.309 -11.745   0.765  1.00  0.00     0.249 C 
HETATM    9  O   UNL     1      37.429 -11.342   1.520  1.00  0.00    -0.271 OA
HETATM   10  C   UNL     1      39.540 -14.520  -1.071  1.00  0.00     0.035 C 
HETATM   11  C   UNL     1      38.924 -14.884  -2.421  1.00  0.00     0.002 C 
HETATM   12  C   UNL     1      37.893 -13.850  -2.869  1.00  0.00     0.002 C 
HETATM   13  C   UNL     1      38.490 -12.443  -2.915  1.00  0.00     0.027 C 
HETATM   14  H   UNL     1      37.202 -11.371  -0.867  1.00  0.00     0.163 HD
ENDROOT
BRANCH   1  15
HETATM   15  C   UNL     1      39.487 -13.202   2.440  1.00  0.00     0.146 C 
BRANCH  15  16
HETATM   16  C   UNL     1      40.807 -13.905   2.588  1.00  0.00     0.224 C 
HETATM   17  N   UNL     1      40.713 -15.273   2.666  1.00  0.00    -0.327 N 
HETATM   18  H   UNL     1      39.845 -15.717   2.379  1.00  0.00     0.169 HD
HETATM   19  O   UNL     1      41.785 -13.199   2.830  1.00  0.00    -0.273 OA
BRANCH  17  20
HETATM   20  C   UNL     1      41.697 -16.156   3.164  1.00  0.00     0.034 A 
HETATM   21  C   UNL     1      42.016 -16.285   4.516  1.00  0.00     0.030 A 
HETATM   22  C   UNL     1      42.957 -17.231   4.937  1.00  0.00     0.009 A 
HETATM   23  C   UNL     1      43.597 -18.059   4.011  1.00  0.00    -0.062 A 
HETATM   24  C   UNL     1      44.587 -19.093   4.459  1.00  0.00     0.048 C 
HETATM   25  C   UNL     1      43.283 -17.925   2.656  1.00  0.00     0.009 A 
HETATM   26  C   UNL     1      42.348 -16.976   2.235  1.00  0.00     0.030 A 
ENDBRANCH  17  20
ENDBRANCH  15  16
ENDBRANCH   1  15
TORSDOF 3
ENDMDL
MODEL 6
REMARK VINA RESULT:      -7.4      4.467      6.694
REMARK  3 active torsions:
REMARK  status: ('A' for Active; 'I' for Inactive)
REMARK    1  A    between atoms: C_5  and  N_6 
REMARK       I    between atoms: N_6  and  C_7 
REMARK    2  A    between atoms: C_7  and  C_8 
REMARK    3  A    between atoms: C_8  and  C_9 
ROOT
HETATM    1  C   UNL     1      41.564 -14.749   3.003  1.00  0.00     0.286 C 
HETATM    2  N   UNL     1      41.199 -16.045   3.743  1.00  0.00    -0.056 N 
HETATM    3  H   UNL     1      40.247 -15.922   4.113  1.00  0.00     0.278 HD
HETATM    4  H   UNL     1      41.077 -16.814   3.047  1.00  0.00     0.278 HD
HETATM    5  C   UNL     1      42.084 -16.490   4.867  1.00  0.00     0.209 C 
HETATM    6  C   UNL     1      42.473 -15.273   5.736  1.00  0.00     0.115 C 
HETATM    7  N   UNL     1      43.029 -14.190   4.936  1.00  0.00    -0.353 N 
HETATM    8  C   UNL     1      42.572 -13.830   3.700  1.00  0.00     0.249 C 
HETATM    9  O   UNL     1      42.968 -12.792   3.178  1.00  0.00    -0.271 OA
HETATM   10  C   UNL     1      43.289 -17.250   4.316  1.00  0.00     0.035 C 
HETATM   11  C   UNL     1      44.242 -17.646   5.443  1.00  0.00     0.002 C 
HETATM   12  C   UNL     1      44.664 -16.438   6.276  1.00  0.00     0.002 C 
HETATM   13  C   UNL     1      43.454 -15.689   6.836  1.00  0.00     0.027 C 
HETATM   14  H   UNL     1      43.613 -13.484   5.381  1.00  0.00     0.163 HD
ENDROOT
BRANCH   1  15
HETATM   15  C   UNL     1      42.015 -15.038   1.568  1.00  0.00     0.146 C 
BRANCH  15  16
HETATM   16  C   UNL     1      40.756 -15.107   0.750  1.00  0.00     0.224 C 
HETATM   17  N   UNL     1      40.710 -14.216  -0.293  1.00  0.00    -0.327 N 
HETATM   18  H   UNL     1      41.574 -13.772  -0.592  1.00  0.00     0.169 HD
HETATM   19  O   UNL     1      39.835 -15.783   1.209  1.00  0.00    -0.273 OA
BRANCH  17  20
HETATM   20  C   UNL     1      39.555 -13.793  -0.988  1.00  0.00     0.034 A 
HETATM   21  C   UNL     1      38.860 -12.617  -0.703  1.00  0.00     0.030 A 
HETATM   22  C   UNL     1      37.763 -12.234  -1.480  1.00  0.00     0.009 A 
HETATM   23  C   UNL     1      37.339 -13.023  -2.552  1.00  0.00    -0.062 A 
HETATM   24  C   UNL     1      36.179 -12.604  -3.406  1.00  0.00     0.048 C 
HETATM   25  C   UNL     1      38.029 -14.204  -2.834  1.00  0.00     0.009 A 
HETATM   26  C   UNL     1      39.122 -14.591  -2.054  1.00  0.00     0.030 A 
ENDBRANCH  17  20
ENDBRANCH  15  16
ENDBRANCH   1  15
TORSDOF 3
ENDMDL
MODEL 7
REMARK VINA RESULT:      -7.3      3.692      6.395
REMARK  3 active torsions:
REMARK  status: ('A' for Active; 'I' for Inactive)
REMARK    1  A    between atoms: C_5  and  N_6 
REMARK       I    between atoms: N_6  and  C_7 
REMARK    2  A    between atoms: C_7  and  C_8 
REMARK    3  A    between atoms: C_8  and  C_9 
ROOT
HETATM    1  C   UNL     1      41.371 -13.927   4.958  1.00  0.00     0.286 C 
HETATM    2  N   UNL     1      40.664 -15.215   4.510  1.00  0.00    -0.056 N 
HETATM    3  H   UNL     1      39.891 -15.379   5.169  1.00  0.00     0.278 HD
HETATM    4  H   UNL     1      40.165 -15.037   3.611  1.00  0.00     0.278 HD
HETATM    5  C   UNL     1      41.475 -16.472   4.421  1.00  0.00     0.209 C 
HETATM    6  C   UNL     1      42.411 -16.576   5.646  1.00  0.00     0.115 C 
HETATM    7  N   UNL     1      43.206 -15.368   5.826  1.00  0.00    -0.353 N 
HETATM    8  C   UNL     1      42.739 -14.100   5.626  1.00  0.00     0.249 C 
HETATM    9  O   UNL     1      43.410 -13.137   5.981  1.00  0.00    -0.271 OA
HETATM   10  C   UNL     1      42.217 -16.523   3.087  1.00  0.00     0.035 C 
HETATM   11  C   UNL     1      43.109 -17.762   3.009  1.00  0.00     0.002 C 
HETATM   12  C   UNL     1      44.066 -17.843   4.196  1.00  0.00     0.002 C 
HETATM   13  C   UNL     1      43.317 -17.805   5.528  1.00  0.00     0.027 C 
HETATM   14  H   UNL     1      44.069 -15.409   6.366  1.00  0.00     0.163 HD
ENDROOT
BRANCH   1  15
HETATM   15  C   UNL     1      41.468 -12.919   3.808  1.00  0.00     0.146 C 
BRANCH  15  16
HETATM   16  C   UNL     1      40.383 -13.299   2.840  1.00  0.00     0.224 C 
HETATM   17  N   UNL     1      40.820 -13.513   1.557  1.00  0.00    -0.327 N 
HETATM   18  H   UNL     1      41.815 -13.649   1.399  1.00  0.00     0.169 HD
HETATM   19  O   UNL     1      39.223 -13.175   3.233  1.00  0.00    -0.273 OA
BRANCH  17  20
HETATM   20  C   UNL     1      40.027 -13.517   0.387  1.00  0.00     0.034 A 
HETATM   21  C   UNL     1      39.951 -14.592  -0.499  1.00  0.00     0.030 A 
HETATM   22  C   UNL     1      39.091 -14.544  -1.601  1.00  0.00     0.009 A 
HETATM   23  C   UNL     1      38.297 -13.419  -1.837  1.00  0.00    -0.062 A 
HETATM   24  C   UNL     1      37.353 -13.373  -3.002  1.00  0.00     0.048 C 
HETATM   25  C   UNL     1      38.378 -12.340  -0.953  1.00  0.00     0.009 A 
HETATM   26  C   UNL     1      39.241 -12.384   0.144  1.00  0.00     0.030 A 
ENDBRANCH  17  20
ENDBRANCH  15  16
ENDBRANCH   1  15
TORSDOF 3
ENDMDL
MODEL 8
REMARK VINA RESULT:      -7.3     16.858     19.037
REMARK  3 active torsions:
REMARK  status: ('A' for Active; 'I' for Inactive)
REMARK    1  A    between atoms: C_5  and  N_6 
REMARK       I    between atoms: N_6  and  C_7 
REMARK    2  A    between atoms: C_7  and  C_8 
REMARK    3  A    between atoms: C_8  and  C_9 
ROOT
HETATM    1  C   UNL     1      46.106 -28.994   0.167  1.00  0.00     0.286 C 
HETATM    2  N   UNL     1      45.007 -28.113  -0.446  1.00  0.00    -0.056 N 
HETATM    3  H   UNL     1      44.198 -28.157   0.187  1.00  0.00     0.278 HD
HETATM    4  H   UNL     1      45.294 -27.111  -0.380  1.00  0.00     0.278 HD
HETATM    5  C   UNL     1      44.534 -28.433  -1.831  1.00  0.00     0.209 C 
HETATM    6  C   UNL     1      44.373 -29.962  -1.986  1.00  0.00     0.115 C 
HETATM    7  N   UNL     1      45.579 -30.678  -1.589  1.00  0.00    -0.353 N 
HETATM    8  C   UNL     1      46.365 -30.335  -0.526  1.00  0.00     0.249 C 
HETATM    9  O   UNL     1      47.250 -31.097  -0.148  1.00  0.00    -0.271 OA
HETATM   10  C   UNL     1      45.478 -27.817  -2.863  1.00  0.00     0.035 C 
HETATM   11  C   UNL     1      45.054 -28.197  -4.281  1.00  0.00     0.002 C 
HETATM   12  C   UNL     1      44.938 -29.710  -4.449  1.00  0.00     0.002 C 
HETATM   13  C   UNL     1      43.982 -30.320  -3.422  1.00  0.00     0.027 C 
HETATM   14  H   UNL     1      45.739 -31.623  -1.933  1.00  0.00     0.163 HD
ENDROOT
BRANCH   1  15
HETATM   15  C   UNL     1      47.417 -28.217   0.323  1.00  0.00     0.146 C 
BRANCH  15  16
HETATM   16  C   UNL     1      47.887 -28.487   1.725  1.00  0.00     0.224 C 
HETATM   17  N   UNL     1      48.958 -29.342   1.807  1.00  0.00    -0.327 N 
HETATM   18  H   UNL     1      49.499 -29.525   0.966  1.00  0.00     0.169 HD
HETATM   19  O   UNL     1      47.157 -28.100   2.637  1.00  0.00    -0.273 OA
BRANCH  17  20
HETATM   20  C   UNL     1      49.378 -30.058   2.950  1.00  0.00     0.034 A 
HETATM   21  C   UNL     1      48.517 -30.788   3.771  1.00  0.00     0.030 A 
HETATM   22  C   UNL     1      49.019 -31.526   4.848  1.00  0.00     0.009 A 
HETATM   23  C   UNL     1      50.389 -31.541   5.125  1.00  0.00    -0.062 A 
HETATM   24  C   UNL     1      50.935 -32.351   6.262  1.00  0.00     0.048 C 
HETATM   25  C   UNL     1      51.250 -30.804   4.307  1.00  0.00     0.009 A 
HETATM   26  C   UNL     1      50.748 -30.063   3.235  1.00  0.00     0.030 A 
ENDBRANCH  17  20
ENDBRANCH  15  16
ENDBRANCH   1  15
TORSDOF 3
ENDMDL
MODEL 9
REMARK VINA RESULT:      -7.1      5.819      8.430
REMARK  3 active torsions:
REMARK  status: ('A' for Active; 'I' for Inactive)
REMARK    1  A    between atoms: C_5  and  N_6 
REMARK       I    between atoms: N_6  and  C_7 
REMARK    2  A    between atoms: C_7  and  C_8 
REMARK    3  A    between atoms: C_8  and  C_9 
ROOT
HETATM    1  C   UNL     1      39.107 -13.400  -0.918  1.00  0.00     0.286 C 
HETATM    2  N   UNL     1      39.126 -11.985  -0.320  1.00  0.00    -0.056 N 
HETATM    3  H   UNL     1      38.411 -11.961   0.419  1.00  0.00     0.278 HD
HETATM    4  H   UNL     1      40.012 -11.850   0.214  1.00  0.00     0.278 HD
HETATM    5  C   UNL     1      38.885 -10.827  -1.240  1.00  0.00     0.209 C 
HETATM    6  C   UNL     1      37.730 -11.163  -2.210  1.00  0.00     0.115 C 
HETATM    7  N   UNL     1      37.948 -12.430  -2.895  1.00  0.00    -0.353 N 
HETATM    8  C   UNL     1      38.486 -13.541  -2.310  1.00  0.00     0.249 C 
HETATM    9  O   UNL     1      38.460 -14.617  -2.900  1.00  0.00    -0.271 OA
HETATM   10  C   UNL     1      40.182 -10.445  -1.953  1.00  0.00     0.035 C 
HETATM   11  C   UNL     1      39.939  -9.314  -2.951  1.00  0.00     0.002 C 
HETATM   12  C   UNL     1      38.829  -9.662  -3.940  1.00  0.00     0.002 C 
HETATM   13  C   UNL     1      37.530 -10.031  -3.221  1.00  0.00     0.027 C 
HETATM   14  H   UNL     1      37.463 -12.619  -3.771  1.00  0.00     0.163 HD
ENDROOT
BRANCH   1  15
HETATM   15  C   UNL     1      40.504 -14.030  -0.895  1.00  0.00     0.146 C 
BRANCH  15  16
HETATM   16  C   UNL     1      40.762 -14.400   0.539  1.00  0.00     0.224 C 
HETATM   17  N   UNL     1      42.084 -14.615   0.838  1.00  0.00    -0.327 N 
HETATM   18  H   UNL     1      42.790 -14.281   0.187  1.00  0.00     0.169 HD
HETATM   19  O   UNL     1      39.777 -14.674   1.225  1.00  0.00    -0.273 OA
BRANCH  17  20
HETATM   20  C   UNL     1      42.591 -15.312   1.957  1.00  0.00     0.034 A 
HETATM   21  C   UNL     1      42.686 -14.766   3.238  1.00  0.00     0.030 A 
HETATM   22  C   UNL     1      43.137 -15.543   4.310  1.00  0.00     0.009 A 
HETATM   23  C   UNL     1      43.504 -16.877   4.118  1.00  0.00    -0.062 A 
HETATM   24  C   UNL     1      43.964 -17.722   5.268  1.00  0.00     0.048 C 
HETATM   25  C   UNL     1      43.415 -17.423   2.835  1.00  0.00     0.009 A 
HETATM   26  C   UNL     1      42.971 -16.645   1.762  1.00  0.00     0.030 A 
ENDBRANCH  17  20
ENDBRANCH  15  16
ENDBRANCH   1  15
TORSDOF 3
ENDMDL
MODEL 10
REMARK VINA RESULT:      -7.0      4.706      7.317
REMARK  3 active torsions:
REMARK  status: ('A' for Active; 'I' for Inactive)
REMARK    1  A    between atoms: C_5  and  N_6 
REMARK       I    between atoms: N_6  and  C_7 
REMARK    2  A    between atoms: C_7  and  C_8 
REMARK    3  A    between atoms: C_8  and  C_9 
ROOT
HETATM    1  C   UNL     1      41.028 -13.083   0.703  1.00  0.00     0.286 C 
HETATM    2  N   UNL     1      40.648 -13.893  -0.546  1.00  0.00    -0.056 N 
HETATM    3  H   UNL     1      41.452 -14.493  -0.772  1.00  0.00     0.278 HD
HETATM    4  H   UNL     1      39.909 -14.586  -0.293  1.00  0.00     0.278 HD
HETATM    5  C   UNL     1      40.262 -13.143  -1.784  1.00  0.00     0.209 C 
HETATM    6  C   UNL     1      41.220 -11.948  -1.989  1.00  0.00     0.115 C 
HETATM    7  N   UNL     1      41.314 -11.117  -0.796  1.00  0.00    -0.353 N 
HETATM    8  C   UNL     1      41.339 -11.600   0.481  1.00  0.00     0.249 C 
HETATM    9  O   UNL     1      41.609 -10.850   1.414  1.00  0.00    -0.271 OA
HETATM   10  C   UNL     1      38.792 -12.734  -1.713  1.00  0.00     0.035 C 
HETATM   11  C   UNL     1      38.400 -11.903  -2.934  1.00  0.00     0.002 C 
HETATM   12  C   UNL     1      39.318 -10.696  -3.113  1.00  0.00     0.002 C 
HETATM   13  C   UNL     1      40.787 -11.112  -3.197  1.00  0.00     0.027 C 
HETATM   14  H   UNL     1      41.630 -10.152  -0.879  1.00  0.00     0.163 HD
ENDROOT
BRANCH   1  15
HETATM   15  C   UNL     1      39.979 -13.244   1.808  1.00  0.00     0.146 C 
BRANCH  15  16
HETATM   16  C   UNL     1      40.499 -14.329   2.709  1.00  0.00     0.224 C 
HETATM   17  N   UNL     1      41.859 -14.508   2.653  1.00  0.00    -0.327 N 
HETATM   18  H   UNL     1      42.428 -13.777   2.234  1.00  0.00     0.169 HD
HETATM   19  O   UNL     1      39.660 -15.067   3.227  1.00  0.00    -0.273 OA
BRANCH  17  20
HETATM   20  C   UNL     1      42.576 -15.648   3.078  1.00  0.00     0.034 A 
HETATM   21  C   UNL     1      43.127 -15.791   4.353  1.00  0.00     0.030 A 
HETATM   22  C   UNL     1      43.767 -16.979   4.721  1.00  0.00     0.009 A 
HETATM   23  C   UNL     1      43.870 -18.041   3.819  1.00  0.00    -0.062 A 
HETATM   24  C   UNL     1      44.532 -19.327   4.216  1.00  0.00     0.048 C 
HETATM   25  C   UNL     1      43.325 -17.896   2.540  1.00  0.00     0.009 A 
HETATM   26  C   UNL     1      42.691 -16.707   2.170  1.00  0.00     0.030 A 
ENDBRANCH  17  20
ENDBRANCH  15  16
ENDBRANCH   1  15
TORSDOF 3
ENDMDL
