MODEL 1
REMARK VINA RESULT:      -9.2      0.000      0.000
REMARK  2 active torsions:
REMARK  status: ('A' for Active; 'I' for Inactive)
REMARK    1  A    between atoms: C_9  and  C_10 
REMARK       I    between atoms: C_10  and  N_11 
REMARK    2  A    between atoms: N_11  and  N_12 
ROOT
HETATM    1  C   UNL     1      41.285 -14.882   2.882  1.00  0.00     0.291 C 
HETATM    2  N   UNL     1      41.737 -14.773   1.586  1.00  0.00    -0.251 N 
HETATM    3  O   UNL     1      40.201 -14.462   3.277  1.00  0.00    -0.264 OA
HETATM    4  H   UNL     1      42.685 -15.058   1.361  1.00  0.00     0.191 HD
ENDROOT
BRANCH   2   5
HETATM    5  N   UNL     1      40.940 -14.221   0.606  1.00  0.00    -0.167 N 
HETATM    6  C   UNL     1      39.876 -14.889   0.063  1.00  0.00     0.345 C 
HETATM    7  O   UNL     1      39.537 -16.047   0.248  1.00  0.00    -0.245 OA
HETATM    8  N   UNL     1      39.164 -13.991  -0.708  1.00  0.00    -0.323 N 
HETATM    9  C   UNL     1      39.684 -12.639  -0.599  1.00  0.00     0.117 C 
HETATM   10  H   UNL     1      38.304 -14.267  -1.164  1.00  0.00     0.165 HD
HETATM   11  C   UNL     1      38.664 -11.685   0.032  1.00  0.00     0.041 C 
HETATM   12  C   UNL     1      40.198 -12.133  -1.949  1.00  0.00     0.041 C 
HETATM   13  C   UNL     1      40.850 -12.868   0.386  1.00  0.00     0.275 C 
HETATM   14  C   UNL     1      37.534 -11.326  -0.929  1.00  0.00     0.003 C 
HETATM   15  C   UNL     1      38.070 -10.799  -2.256  1.00  0.00     0.000 C 
HETATM   16  C   UNL     1      39.053 -11.774  -2.898  1.00  0.00     0.003 C 
HETATM   17  O   UNL     1      41.515 -11.979   0.905  1.00  0.00    -0.268 OA
ENDBRANCH   2   5
BRANCH   1  18
HETATM   18  C   UNL     1      42.256 -15.568   3.748  1.00  0.00     0.158 A 
HETATM   19  C   UNL     1      42.812 -16.868   3.567  1.00  0.00     0.029 A 
HETATM   20  C   UNL     1      42.691 -17.899   2.614  1.00  0.00     0.023 A 
HETATM   21  C   UNL     1      43.681 -17.042   4.637  1.00  0.00     0.063 A 
HETATM   22  C   UNL     1      43.453 -19.069   2.762  1.00  0.00    -0.061 A 
HETATM   23  C   UNL     1      43.355 -20.173   1.748  1.00  0.00     0.048 C 
HETATM   24  C   UNL     1      44.309 -19.209   3.862  1.00  0.00     0.009 A 
HETATM   25  C   UNL     1      44.439 -18.200   4.823  1.00  0.00     0.032 A 
HETATM   26  N   UNL     1      43.593 -15.889   5.364  1.00  0.00    -0.277 N 
HETATM   27  H   UNL     1      44.088 -15.666   6.221  1.00  0.00     0.189 HD
HETATM   28  N   UNL     1      42.762 -14.965   4.848  1.00  0.00    -0.168 NA
ENDBRANCH   1  18
TORSDOF 2
ENDMDL
MODEL 2
REMARK VINA RESULT:      -9.0      1.223      2.165
REMARK  2 active torsions:
REMARK  status: ('A' for Active; 'I' for Inactive)
REMARK    1  A    between atoms: C_9  and  C_10 
REMARK       I    between atoms: C_10  and  N_11 
REMARK    2  A    between atoms: N_11  and  N_12 
ROOT
HETATM    1  C   UNL     1      42.658 -14.898   2.447  1.00  0.00     0.291 C 
HETATM    2  N   UNL     1      41.370 -14.425   2.554  1.00  0.00    -0.251 N 
HETATM    3  O   UNL     1      43.422 -14.629   1.524  1.00  0.00    -0.264 OA
HETATM    4  H   UNL     1      40.769 -14.773   3.296  1.00  0.00     0.191 HD
ENDROOT
BRANCH   2   5
HETATM    5  N   UNL     1      40.865 -13.537   1.629  1.00  0.00    -0.167 N 
HETATM    6  C   UNL     1      41.302 -12.242   1.541  1.00  0.00     0.345 C 
HETATM    7  O   UNL     1      42.069 -11.653   2.285  1.00  0.00    -0.245 OA
HETATM    8  N   UNL     1      40.774 -11.697   0.387  1.00  0.00    -0.323 N 
HETATM    9  C   UNL     1      40.051 -12.678  -0.404  1.00  0.00     0.117 C 
HETATM   10  H   UNL     1      41.012 -10.755   0.102  1.00  0.00     0.165 HD
HETATM   11  C   UNL     1      40.713 -12.911  -1.767  1.00  0.00     0.041 C 
HETATM   12  C   UNL     1      38.571 -12.305  -0.531  1.00  0.00     0.041 C 
HETATM   13  C   UNL     1      40.232 -13.933   0.476  1.00  0.00     0.275 C 
HETATM   14  C   UNL     1      40.480 -11.750  -2.731  1.00  0.00     0.003 C 
HETATM   15  C   UNL     1      38.998 -11.415  -2.860  1.00  0.00     0.000 C 
HETATM   16  C   UNL     1      38.356 -11.144  -1.502  1.00  0.00     0.003 C 
HETATM   17  O   UNL     1      39.912 -15.070   0.149  1.00  0.00    -0.268 OA
ENDBRANCH   2   5
BRANCH   1  18
HETATM   18  C   UNL     1      43.020 -15.770   3.575  1.00  0.00     0.158 A 
HETATM   19  C   UNL     1      43.304 -17.166   3.534  1.00  0.00     0.029 A 
HETATM   20  C   UNL     1      43.357 -18.162   2.539  1.00  0.00     0.023 A 
HETATM   21  C   UNL     1      43.606 -17.513   4.846  1.00  0.00     0.063 A 
HETATM   22  C   UNL     1      43.718 -19.472   2.891  1.00  0.00    -0.061 A 
HETATM   23  C   UNL     1      43.801 -20.545   1.843  1.00  0.00     0.048 C 
HETATM   24  C   UNL     1      44.004 -19.782   4.227  1.00  0.00     0.009 A 
HETATM   25  C   UNL     1      43.951 -18.810   5.232  1.00  0.00     0.032 A 
HETATM   26  N   UNL     1      43.484 -16.354   5.561  1.00  0.00    -0.277 N 
HETATM   27  H   UNL     1      43.627 -16.233   6.558  1.00  0.00     0.189 HD
HETATM   28  N   UNL     1      43.157 -15.275   4.826  1.00  0.00    -0.168 NA
ENDBRANCH   1  18
TORSDOF 2
ENDMDL
MODEL 3
REMARK VINA RESULT:      -8.6      5.312      7.655
REMARK  2 active torsions:
REMARK  status: ('A' for Active; 'I' for Inactive)
REMARK    1  A    between atoms: C_9  and  C_10 
REMARK       I    between atoms: C_10  and  N_11 
REMARK    2  A    between atoms: N_11  and  N_12 
ROOT
HETATM    1  C   UNL     1      42.836 -13.331   5.382  1.00  0.00     0.291 C 
HETATM    2  N   UNL     1      43.190 -12.010   5.230  1.00  0.00    -0.251 N 
HETATM    3  O   UNL     1      42.529 -13.850   6.453  1.00  0.00    -0.264 OA
HETATM    4  H   UNL     1      43.525 -11.682   4.330  1.00  0.00     0.191 HD
ENDROOT
BRANCH   2   5
HETATM    5  N   UNL     1      43.158 -11.143   6.302  1.00  0.00    -0.167 N 
HETATM    6  C   UNL     1      41.989 -10.630   6.796  1.00  0.00     0.345 C 
HETATM    7  O   UNL     1      40.863 -10.742   6.339  1.00  0.00    -0.245 OA
HETATM    8  N   UNL     1      42.278  -9.995   7.987  1.00  0.00    -0.323 N 
HETATM    9  C   UNL     1      43.663 -10.177   8.386  1.00  0.00     0.117 C 
HETATM   10  H   UNL     1      41.542  -9.584   8.548  1.00  0.00     0.165 HD
HETATM   11  C   UNL     1      43.780 -10.963   9.697  1.00  0.00     0.041 C 
HETATM   12  C   UNL     1      44.404  -8.838   8.441  1.00  0.00     0.041 C 
HETATM   13  C   UNL     1      44.177 -11.046   7.219  1.00  0.00     0.275 C 
HETATM   14  C   UNL     1      43.390 -10.125  10.912  1.00  0.00     0.003 C 
HETATM   15  C   UNL     1      44.161  -8.809  10.959  1.00  0.00     0.000 C 
HETATM   16  C   UNL     1      44.005  -8.014   9.666  1.00  0.00     0.003 C 
HETATM   17  O   UNL     1      45.276 -11.586   7.178  1.00  0.00    -0.268 OA
ENDBRANCH   2   5
BRANCH   1  18
HETATM   18  C   UNL     1      42.864 -14.059   4.105  1.00  0.00     0.158 A 
HETATM   19  C   UNL     1      43.160 -15.439   3.901  1.00  0.00     0.029 A 
HETATM   20  C   UNL     1      43.497 -16.536   4.718  1.00  0.00     0.023 A 
HETATM   21  C   UNL     1      43.037 -15.637   2.531  1.00  0.00     0.063 A 
HETATM   22  C   UNL     1      43.692 -17.798   4.135  1.00  0.00    -0.061 A 
HETATM   23  C   UNL     1      44.032 -18.986   4.989  1.00  0.00     0.048 C 
HETATM   24  C   UNL     1      43.570 -17.952   2.747  1.00  0.00     0.009 A 
HETATM   25  C   UNL     1      43.242 -16.874   1.916  1.00  0.00     0.032 A 
HETATM   26  N   UNL     1      42.695 -14.416   2.020  1.00  0.00    -0.277 N 
HETATM   27  H   UNL     1      42.528 -14.185   1.047  1.00  0.00     0.189 HD
HETATM   28  N   UNL     1      42.557 -13.444   2.940  1.00  0.00    -0.168 NA
ENDBRANCH   1  18
TORSDOF 2
ENDMDL
MODEL 4
REMARK VINA RESULT:      -8.5      5.652      7.824
REMARK  2 active torsions:
REMARK  status: ('A' for Active; 'I' for Inactive)
REMARK    1  A    between atoms: C_9  and  C_10 
REMARK       I    between atoms: C_10  and  N_11 
REMARK    2  A    between atoms: N_11  and  N_12 
ROOT
HETATM    1  C   UNL     1      43.187 -13.379   5.819  1.00  0.00     0.291 C 
HETATM    2  N   UNL     1      43.454 -12.035   5.690  1.00  0.00    -0.251 N 
HETATM    3  O   UNL     1      43.152 -13.981   6.889  1.00  0.00    -0.264 OA
HETATM    4  H   UNL     1      43.561 -11.632   4.764  1.00  0.00     0.191 HD
ENDROOT
BRANCH   2   5
HETATM    5  N   UNL     1      43.641 -11.243   6.803  1.00  0.00    -0.167 N 
HETATM    6  C   UNL     1      44.885 -10.884   7.247  1.00  0.00     0.345 C 
HETATM    7  O   UNL     1      45.970 -11.267   6.842  1.00  0.00    -0.245 OA
HETATM    8  N   UNL     1      44.722  -9.921   8.223  1.00  0.00    -0.323 N 
HETATM    9  C   UNL     1      43.334  -9.519   8.373  1.00  0.00     0.117 C 
HETATM   10  H   UNL     1      45.524  -9.478   8.654  1.00  0.00     0.165 HD
HETATM   11  C   UNL     1      43.125  -8.045   8.006  1.00  0.00     0.041 C 
HETATM   12  C   UNL     1      42.809  -9.852   9.772  1.00  0.00     0.041 C 
HETATM   13  C   UNL     1      42.668 -10.412   7.305  1.00  0.00     0.275 C 
HETATM   14  C   UNL     1      43.664  -7.099   9.077  1.00  0.00     0.003 C 
HETATM   15  C   UNL     1      43.106  -7.434  10.456  1.00  0.00     0.000 C 
HETATM   16  C   UNL     1      43.356  -8.893  10.830  1.00  0.00     0.003 C 
HETATM   17  O   UNL     1      41.499 -10.329   6.951  1.00  0.00    -0.268 OA
ENDBRANCH   2   5
BRANCH   1  18
HETATM   18  C   UNL     1      42.944 -14.020   4.518  1.00  0.00     0.158 A 
HETATM   19  C   UNL     1      43.164 -15.385   4.170  1.00  0.00     0.029 A 
HETATM   20  C   UNL     1      43.634 -16.537   4.830  1.00  0.00     0.023 A 
HETATM   21  C   UNL     1      42.765 -15.489   2.843  1.00  0.00     0.063 A 
HETATM   22  C   UNL     1      43.682 -17.759   4.140  1.00  0.00    -0.061 A 
HETATM   23  C   UNL     1      44.161 -19.004   4.830  1.00  0.00     0.048 C 
HETATM   24  C   UNL     1      43.281 -17.817   2.798  1.00  0.00     0.009 A 
HETATM   25  C   UNL     1      42.817 -16.684   2.121  1.00  0.00     0.032 A 
HETATM   26  N   UNL     1      42.354 -14.234   2.491  1.00  0.00    -0.277 N 
HETATM   27  H   UNL     1      41.999 -13.936   1.588  1.00  0.00     0.189 HD
HETATM   28  N   UNL     1      42.423 -13.325   3.481  1.00  0.00    -0.168 NA
ENDBRANCH   1  18
TORSDOF 2
ENDMDL
MODEL 5
REMARK VINA RESULT:      -8.4      2.211      8.093
REMARK  2 active torsions:
REMARK  status: ('A' for Active; 'I' for Inactive)
REMARK    1  A    between atoms: C_9  and  C_10 
REMARK       I    between atoms: C_10  and  N_11 
REMARK    2  A    between atoms: N_11  and  N_12 
ROOT
HETATM    1  C   UNL     1      40.881 -13.003   0.337  1.00  0.00     0.291 C 
HETATM    2  N   UNL     1      41.316 -14.308   0.269  1.00  0.00    -0.251 N 
HETATM    3  O   UNL     1      40.671 -12.394   1.383  1.00  0.00    -0.264 OA
HETATM    4  H   UNL     1      41.371 -14.771  -0.633  1.00  0.00     0.191 HD
ENDROOT
BRANCH   2   5
HETATM    5  N   UNL     1      41.613 -15.012   1.416  1.00  0.00    -0.167 N 
HETATM    6  C   UNL     1      40.724 -15.873   2.000  1.00  0.00     0.345 C 
HETATM    7  O   UNL     1      39.556 -16.067   1.704  1.00  0.00    -0.245 OA
HETATM    8  N   UNL     1      41.399 -16.577   2.978  1.00  0.00    -0.323 N 
HETATM    9  C   UNL     1      42.820 -16.278   2.989  1.00  0.00     0.117 C 
HETATM   10  H   UNL     1      40.936 -17.308   3.504  1.00  0.00     0.165 HD
HETATM   11  C   UNL     1      43.664 -17.510   2.641  1.00  0.00     0.041 C 
HETATM   12  C   UNL     1      43.242 -15.639   4.314  1.00  0.00     0.041 C 
HETATM   13  C   UNL     1      42.900 -15.259   1.832  1.00  0.00     0.275 C 
HETATM   14  C   UNL     1      43.721 -18.517   3.787  1.00  0.00     0.003 C 
HETATM   15  C   UNL     1      44.169 -17.861   5.090  1.00  0.00     0.000 C 
HETATM   16  C   UNL     1      43.298 -16.661   5.450  1.00  0.00     0.003 C 
HETATM   17  O   UNL     1      43.938 -14.817   1.357  1.00  0.00    -0.268 OA
ENDBRANCH   2   5
BRANCH   1  18
HETATM   18  C   UNL     1      40.696 -12.415  -0.998  1.00  0.00     0.158 A 
HETATM   19  C   UNL     1      41.070 -11.108  -1.427  1.00  0.00     0.029 A 
HETATM   20  C   UNL     1      41.692  -9.987  -0.843  1.00  0.00     0.023 A 
HETATM   21  C   UNL     1      40.700 -11.046  -2.765  1.00  0.00     0.063 A 
HETATM   22  C   UNL     1      41.930  -8.843  -1.622  1.00  0.00    -0.061 A 
HETATM   23  C   UNL     1      42.610  -7.644  -1.025  1.00  0.00     0.048 C 
HETATM   24  C   UNL     1      41.530  -8.819  -2.965  1.00  0.00     0.009 A 
HETATM   25  C   UNL     1      40.905  -9.919  -3.564  1.00  0.00     0.032 A 
HETATM   26  N   UNL     1      40.146 -12.265  -3.042  1.00  0.00    -0.277 N 
HETATM   27  H   UNL     1      39.761 -12.575  -3.927  1.00  0.00     0.189 HD
HETATM   28  N   UNL     1      40.148 -13.127  -2.008  1.00  0.00    -0.168 NA
ENDBRANCH   1  18
TORSDOF 2
ENDMDL
MODEL 6
REMARK VINA RESULT:      -8.4      1.727      2.197
REMARK  2 active torsions:
REMARK  status: ('A' for Active; 'I' for Inactive)
REMARK    1  A    between atoms: C_9  and  C_10 
REMARK       I    between atoms: C_10  and  N_11 
REMARK    2  A    between atoms: N_11  and  N_12 
ROOT
HETATM    1  C   UNL     1      42.282 -14.076   3.172  1.00  0.00     0.291 C 
HETATM    2  N   UNL     1      40.955 -14.072   2.807  1.00  0.00    -0.251 N 
HETATM    3  O   UNL     1      43.219 -13.962   2.386  1.00  0.00    -0.264 OA
HETATM    4  H   UNL     1      40.243 -14.270   3.504  1.00  0.00     0.191 HD
ENDROOT
BRANCH   2   5
HETATM    5  N   UNL     1      40.585 -13.868   1.494  1.00  0.00    -0.167 N 
HETATM    6  C   UNL     1      39.977 -14.838   0.744  1.00  0.00     0.345 C 
HETATM    7  O   UNL     1      39.776 -16.005   1.039  1.00  0.00    -0.245 OA
HETATM    8  N   UNL     1      39.538 -14.252  -0.427  1.00  0.00    -0.323 N 
HETATM    9  C   UNL     1      39.744 -12.814  -0.432  1.00  0.00     0.117 C 
HETATM   10  H   UNL     1      39.013 -14.785  -1.109  1.00  0.00     0.165 HD
HETATM   11  C   UNL     1      38.416 -12.048  -0.488  1.00  0.00     0.041 C 
HETATM   12  C   UNL     1      40.704 -12.396  -1.549  1.00  0.00     0.041 C 
HETATM   13  C   UNL     1      40.390 -12.619   0.956  1.00  0.00     0.275 C 
HETATM   14  C   UNL     1      37.771 -12.106  -1.870  1.00  0.00     0.003 C 
HETATM   15  C   UNL     1      38.739 -11.660  -2.961  1.00  0.00     0.000 C 
HETATM   16  C   UNL     1      40.041 -12.456  -2.925  1.00  0.00     0.003 C 
HETATM   17  O   UNL     1      40.619 -11.534   1.477  1.00  0.00    -0.268 OA
ENDBRANCH   2   5
BRANCH   1  18
HETATM   18  C   UNL     1      42.453 -14.232   4.624  1.00  0.00     0.158 A 
HETATM   19  C   UNL     1      42.808 -15.417   5.332  1.00  0.00     0.029 A 
HETATM   20  C   UNL     1      43.108 -16.750   4.992  1.00  0.00     0.023 A 
HETATM   21  C   UNL     1      42.857 -15.039   6.669  1.00  0.00     0.063 A 
HETATM   22  C   UNL     1      43.456 -17.660   6.004  1.00  0.00    -0.061 A 
HETATM   23  C   UNL     1      43.800 -19.082   5.662  1.00  0.00     0.048 C 
HETATM   24  C   UNL     1      43.482 -17.241   7.340  1.00  0.00     0.009 A 
HETATM   25  C   UNL     1      43.181 -15.922   7.701  1.00  0.00     0.032 A 
HETATM   26  N   UNL     1      42.538 -13.710   6.679  1.00  0.00    -0.277 N 
HETATM   27  H   UNL     1      42.472 -13.103   7.489  1.00  0.00     0.189 HD
HETATM   28  N   UNL     1      42.311 -13.180   5.463  1.00  0.00    -0.168 NA
ENDBRANCH   1  18
TORSDOF 2
ENDMDL
MODEL 7
REMARK VINA RESULT:      -8.2      5.963      8.547
REMARK  2 active torsions:
REMARK  status: ('A' for Active; 'I' for Inactive)
REMARK    1  A    between atoms: C_9  and  C_10 
REMARK       I    between atoms: C_10  and  N_11 
REMARK    2  A    between atoms: N_11  and  N_12 
ROOT
HETATM    1  C   UNL     1      44.377 -11.755   7.485  1.00  0.00     0.291 C 
HETATM    2  N   UNL     1      43.215 -12.493   7.477  1.00  0.00    -0.251 N 
HETATM    3  O   UNL     1      45.344 -11.976   6.760  1.00  0.00    -0.264 OA
HETATM    4  H   UNL     1      42.500 -12.308   8.175  1.00  0.00     0.191 HD
ENDROOT
BRANCH   2   5
HETATM    5  N   UNL     1      43.038 -13.521   6.576  1.00  0.00    -0.167 N 
HETATM    6  C   UNL     1      42.906 -14.826   6.969  1.00  0.00     0.345 C 
HETATM    7  O   UNL     1      43.030 -15.293   8.089  1.00  0.00    -0.245 OA
HETATM    8  N   UNL     1      42.520 -15.561   5.865  1.00  0.00    -0.323 N 
HETATM    9  C   UNL     1      42.265 -14.722   4.707  1.00  0.00     0.117 C 
HETATM   10  H   UNL     1      42.317 -16.549   5.945  1.00  0.00     0.165 HD
HETATM   11  C   UNL     1      40.796 -14.786   4.270  1.00  0.00     0.041 C 
HETATM   12  C   UNL     1      43.228 -15.047   3.563  1.00  0.00     0.041 C 
HETATM   13  C   UNL     1      42.562 -13.329   5.302  1.00  0.00     0.275 C 
HETATM   14  C   UNL     1      40.457 -16.100   3.571  1.00  0.00     0.003 C 
HETATM   15  C   UNL     1      41.414 -16.389   2.420  1.00  0.00     0.000 C 
HETATM   16  C   UNL     1      42.871 -16.364   2.873  1.00  0.00     0.003 C 
HETATM   17  O   UNL     1      42.345 -12.264   4.736  1.00  0.00    -0.268 OA
ENDBRANCH   2   5
BRANCH   1  18
HETATM   18  C   UNL     1      44.329 -10.662   8.466  1.00  0.00     0.158 A 
HETATM   19  C   UNL     1      43.660  -9.410   8.336  1.00  0.00     0.029 A 
HETATM   20  C   UNL     1      42.868  -8.780   7.356  1.00  0.00     0.023 A 
HETATM   21  C   UNL     1      43.902  -8.744   9.532  1.00  0.00     0.063 A 
HETATM   22  C   UNL     1      42.338  -7.505   7.611  1.00  0.00    -0.061 A 
HETATM   23  C   UNL     1      41.474  -6.823   6.588  1.00  0.00     0.048 C 
HETATM   24  C   UNL     1      42.616  -6.864   8.825  1.00  0.00     0.009 A 
HETATM   25  C   UNL     1      43.405  -7.468   9.810  1.00  0.00     0.032 A 
HETATM   26  N   UNL     1      44.672  -9.598  10.270  1.00  0.00    -0.277 N 
HETATM   27  H   UNL     1      45.042  -9.439  11.201  1.00  0.00     0.189 HD
HETATM   28  N   UNL     1      44.931 -10.776   9.672  1.00  0.00    -0.168 NA
ENDBRANCH   1  18
TORSDOF 2
ENDMDL
MODEL 8
REMARK VINA RESULT:      -8.2      5.108      6.891
REMARK  2 active torsions:
REMARK  status: ('A' for Active; 'I' for Inactive)
REMARK    1  A    between atoms: C_9  and  C_10 
REMARK       I    between atoms: C_10  and  N_11 
REMARK    2  A    between atoms: N_11  and  N_12 
ROOT
HETATM    1  C   UNL     1      43.630 -11.434   5.199  1.00  0.00     0.291 C 
HETATM    2  N   UNL     1      43.319 -12.774   5.260  1.00  0.00    -0.251 N 
HETATM    3  O   UNL     1      43.169 -10.652   4.372  1.00  0.00    -0.264 OA
HETATM    4  H   UNL     1      43.817 -13.374   5.911  1.00  0.00     0.191 HD
ENDROOT
BRANCH   2   5
HETATM    5  N   UNL     1      42.389 -13.322   4.403  1.00  0.00    -0.167 N 
HETATM    6  C   UNL     1      41.041 -13.215   4.617  1.00  0.00     0.345 C 
HETATM    7  O   UNL     1      40.466 -12.755   5.590  1.00  0.00    -0.245 OA
HETATM    8  N   UNL     1      40.397 -13.661   3.480  1.00  0.00    -0.323 N 
HETATM    9  C   UNL     1      41.327 -13.973   2.408  1.00  0.00     0.117 C 
HETATM   10  H   UNL     1      39.389 -13.622   3.405  1.00  0.00     0.165 HD
HETATM   11  C   UNL     1      41.128 -13.055   1.196  1.00  0.00     0.041 C 
HETATM   12  C   UNL     1      41.262 -15.456   2.032  1.00  0.00     0.041 C 
HETATM   13  C   UNL     1      42.667 -13.634   3.094  1.00  0.00     0.275 C 
HETATM   14  C   UNL     1      39.872 -13.406   0.402  1.00  0.00     0.003 C 
HETATM   15  C   UNL     1      39.844 -14.881   0.017  1.00  0.00     0.000 C 
HETATM   16  C   UNL     1      40.001 -15.789   1.235  1.00  0.00     0.003 C 
HETATM   17  O   UNL     1      43.755 -13.600   2.530  1.00  0.00    -0.268 OA
ENDBRANCH   2   5
BRANCH   1  18
HETATM   18  C   UNL     1      44.582 -11.042   6.248  1.00  0.00     0.158 A 
HETATM   19  C   UNL     1      44.288 -10.426   7.500  1.00  0.00     0.029 A 
HETATM   20  C   UNL     1      43.126  -9.999   8.171  1.00  0.00     0.023 A 
HETATM   21  C   UNL     1      45.518 -10.278   8.129  1.00  0.00     0.063 A 
HETATM   22  C   UNL     1      43.234  -9.444   9.457  1.00  0.00    -0.061 A 
HETATM   23  C   UNL     1      42.006  -9.000  10.199  1.00  0.00     0.048 C 
HETATM   24  C   UNL     1      44.495  -9.302  10.050  1.00  0.00     0.009 A 
HETATM   25  C   UNL     1      45.663  -9.713   9.398  1.00  0.00     0.032 A 
HETATM   26  N   UNL     1      46.434 -10.786   7.252  1.00  0.00    -0.277 N 
HETATM   27  H   UNL     1      47.439 -10.839   7.379  1.00  0.00     0.189 HD
HETATM   28  N   UNL     1      45.907 -11.280   6.116  1.00  0.00    -0.168 NA
ENDBRANCH   1  18
TORSDOF 2
ENDMDL
MODEL 9
REMARK VINA RESULT:      -8.1      2.505      8.194
REMARK  2 active torsions:
REMARK  status: ('A' for Active; 'I' for Inactive)
REMARK    1  A    between atoms: C_9  and  C_10 
REMARK       I    between atoms: C_10  and  N_11 
REMARK    2  A    between atoms: N_11  and  N_12 
ROOT
HETATM    1  C   UNL     1      40.055 -13.657   0.223  1.00  0.00     0.291 C 
HETATM    2  N   UNL     1      39.503 -14.178   1.371  1.00  0.00    -0.251 N 
HETATM    3  O   UNL     1      41.180 -13.168   0.154  1.00  0.00    -0.264 OA
HETATM    4  H   UNL     1      38.531 -14.474   1.369  1.00  0.00     0.191 HD
ENDROOT
BRANCH   2   5
HETATM    5  N   UNL     1      40.232 -14.244   2.539  1.00  0.00    -0.167 N 
HETATM    6  C   UNL     1      40.042 -13.368   3.573  1.00  0.00     0.345 C 
HETATM    7  O   UNL     1      39.332 -12.376   3.601  1.00  0.00    -0.245 OA
HETATM    8  N   UNL     1      40.752 -13.838   4.660  1.00  0.00    -0.323 N 
HETATM    9  C   UNL     1      41.353 -15.135   4.404  1.00  0.00     0.117 C 
HETATM   10  H   UNL     1      40.710 -13.363   5.552  1.00  0.00     0.165 HD
HETATM   11  C   UNL     1      40.777 -16.221   5.320  1.00  0.00     0.041 C 
HETATM   12  C   UNL     1      42.881 -15.062   4.477  1.00  0.00     0.041 C 
HETATM   13  C   UNL     1      40.880 -15.382   2.956  1.00  0.00     0.275 C 
HETATM   14  C   UNL     1      41.292 -16.105   6.753  1.00  0.00     0.003 C 
HETATM   15  C   UNL     1      42.816 -16.061   6.801  1.00  0.00     0.000 C 
HETATM   16  C   UNL     1      43.380 -14.950   5.918  1.00  0.00     0.003 C 
HETATM   17  O   UNL     1      41.019 -16.432   2.342  1.00  0.00    -0.268 OA
ENDBRANCH   2   5
BRANCH   1  18
HETATM   18  C   UNL     1      39.138 -13.752  -0.922  1.00  0.00     0.158 A 
HETATM   19  C   UNL     1      38.237 -12.754  -1.396  1.00  0.00     0.029 A 
HETATM   20  C   UNL     1      37.895 -11.439  -1.027  1.00  0.00     0.023 A 
HETATM   21  C   UNL     1      37.617 -13.323  -2.502  1.00  0.00     0.063 A 
HETATM   22  C   UNL     1      36.946 -10.733  -1.784  1.00  0.00    -0.061 A 
HETATM   23  C   UNL     1      36.580  -9.322  -1.420  1.00  0.00     0.048 C 
HETATM   24  C   UNL     1      36.336 -11.347  -2.885  1.00  0.00     0.009 A 
HETATM   25  C   UNL     1      36.657 -12.655  -3.266  1.00  0.00     0.032 A 
HETATM   26  N   UNL     1      38.157 -14.573  -2.615  1.00  0.00    -0.277 N 
HETATM   27  H   UNL     1      37.934 -15.276  -3.312  1.00  0.00     0.189 HD
HETATM   28  N   UNL     1      39.096 -14.861  -1.695  1.00  0.00    -0.168 NA
ENDBRANCH   1  18
TORSDOF 2
ENDMDL
MODEL 10
REMARK VINA RESULT:      -8.0      1.628      2.952
REMARK  2 active torsions:
REMARK  status: ('A' for Active; 'I' for Inactive)
REMARK    1  A    between atoms: C_9  and  C_10 
REMARK       I    between atoms: C_10  and  N_11 
REMARK    2  A    between atoms: N_11  and  N_12 
ROOT
HETATM    1  C   UNL     1      41.084 -15.242   2.240  1.00  0.00     0.291 C 
HETATM    2  N   UNL     1      41.616 -14.464   1.237  1.00  0.00    -0.251 N 
HETATM    3  O   UNL     1      39.958 -15.097   2.708  1.00  0.00    -0.264 OA
HETATM    4  H   UNL     1      42.589 -14.584   0.973  1.00  0.00     0.191 HD
ENDROOT
BRANCH   2   5
HETATM    5  N   UNL     1      40.862 -13.481   0.632  1.00  0.00    -0.167 N 
HETATM    6  C   UNL     1      41.114 -12.148   0.813  1.00  0.00     0.345 C 
HETATM    7  O   UNL     1      41.912 -11.627   1.575  1.00  0.00    -0.245 OA
HETATM    8  N   UNL     1      40.344 -11.447  -0.094  1.00  0.00    -0.323 N 
HETATM    9  C   UNL     1      39.631 -12.325  -1.005  1.00  0.00     0.117 C 
HETATM   10  H   UNL     1      40.414 -10.440  -0.165  1.00  0.00     0.165 HD
HETATM   11  C   UNL     1      40.088 -12.135  -2.456  1.00  0.00     0.041 C 
HETATM   12  C   UNL     1      38.115 -12.174  -0.848  1.00  0.00     0.041 C 
HETATM   13  C   UNL     1      40.106 -13.702  -0.494  1.00  0.00     0.275 C 
HETATM   14  C   UNL     1      39.561 -10.839  -3.065  1.00  0.00     0.003 C 
HETATM   15  C   UNL     1      38.047 -10.724  -2.919  1.00  0.00     0.000 C 
HETATM   16  C   UNL     1      37.603 -10.873  -1.466  1.00  0.00     0.003 C 
HETATM   17  O   UNL     1      39.882 -14.771  -1.048  1.00  0.00    -0.268 OA
ENDBRANCH   2   5
BRANCH   1  18
HETATM   18  C   UNL     1      42.025 -16.278   2.692  1.00  0.00     0.158 A 
HETATM   19  C   UNL     1      42.533 -16.471   4.010  1.00  0.00     0.029 A 
HETATM   20  C   UNL     1      42.369 -15.847   5.261  1.00  0.00     0.023 A 
HETATM   21  C   UNL     1      43.363 -17.582   3.918  1.00  0.00     0.063 A 
HETATM   22  C   UNL     1      43.037 -16.361   6.384  1.00  0.00    -0.061 A 
HETATM   23  C   UNL     1      42.861 -15.724   7.733  1.00  0.00     0.048 C 
HETATM   24  C   UNL     1      43.875 -17.476   6.246  1.00  0.00     0.009 A 
HETATM   25  C   UNL     1      44.057 -18.108   5.010  1.00  0.00     0.032 A 
HETATM   26  N   UNL     1      43.308 -17.966   2.608  1.00  0.00    -0.277 N 
HETATM   27  H   UNL     1      43.797 -18.743   2.177  1.00  0.00     0.189 HD
HETATM   28  N   UNL     1      42.493 -17.219   1.841  1.00  0.00    -0.168 NA
ENDBRANCH   1  18
TORSDOF 2
ENDMDL
