MODEL 1
REMARK VINA RESULT:      -8.3      0.000      0.000
REMARK  7 active torsions:
REMARK  status: ('A' for Active; 'I' for Inactive)
REMARK    1  A    between atoms: O_2  and  C_3 
REMARK    2  A    between atoms: C_6  and  C_7 
REMARK    3  A    between atoms: C_7  and  N_8 
REMARK    4  A    between atoms: C_7  and  C_23 
REMARK       I    between atoms: N_8  and  C_9 
REMARK    5  A    between atoms: C_9  and  C_10 
REMARK    6  A    between atoms: C_10  and  S_11 
REMARK    7  A    between atoms: S_11  and  C_12 
ROOT
HETATM    1  N   UNL     1      40.755 -12.372   2.255  1.00  0.00    -0.348 N 
HETATM    2  C   UNL     1      41.546 -11.374   2.779  1.00  0.00     0.228 C 
HETATM    3  O   UNL     1      42.690 -11.155   2.385  1.00  0.00    -0.273 OA
HETATM    4  H   UNL     1      39.820 -12.490   2.617  1.00  0.00     0.163 HD
ENDROOT
BRANCH   1   5
HETATM    5  C   UNL     1      41.188 -13.174   1.124  1.00  0.00     0.151 C 
BRANCH   5   6
HETATM    6  C   UNL     1      41.636 -14.570   1.547  1.00  0.00    -0.031 A 
HETATM    7  C   UNL     1      40.730 -15.591   1.868  1.00  0.00     0.012 A 
HETATM    8  C   UNL     1      41.186 -16.872   2.196  1.00  0.00     0.037 A 
HETATM    9  C   UNL     1      42.550 -17.165   2.196  1.00  0.00     0.068 A 
HETATM   10  C   UNL     1      43.463 -16.156   1.898  1.00  0.00     0.037 A 
HETATM   11  C   UNL     1      43.008 -14.872   1.574  1.00  0.00     0.012 A 
BRANCH   9  12
HETATM   12  O   UNL     1      42.863 -18.460   2.509  1.00  0.00    -0.356 OA
HETATM   13  C   UNL     1      44.132 -18.672   3.115  1.00  0.00     0.210 C 
ENDBRANCH   9  12
ENDBRANCH   5   6
BRANCH   5  14
HETATM   14  C   UNL     1      40.129 -13.211   0.027  1.00  0.00    -0.031 A 
HETATM   15  C   UNL     1      39.071 -12.286   0.054  1.00  0.00     0.009 A 
HETATM   16  C   UNL     1      38.095 -12.284  -0.944  1.00  0.00     0.001 A 
HETATM   17  C   UNL     1      38.163 -13.203  -1.988  1.00  0.00     0.000 A 
HETATM   18  C   UNL     1      39.205 -14.126  -2.033  1.00  0.00     0.001 A 
HETATM   19  C   UNL     1      40.181 -14.132  -1.034  1.00  0.00     0.009 A 
ENDBRANCH   5  14
ENDBRANCH   1   5
BRANCH   2  20
HETATM   20  C   UNL     1      40.890 -10.491   3.826  1.00  0.00     0.185 C 
BRANCH  20  21
HETATM   21  S   UNL     1      41.644 -10.708   5.469  1.00  0.00    -0.081 SA
BRANCH  21  22
HETATM   22  C   UNL     1      40.980 -12.247   5.894  1.00  0.00     0.192 A 
HETATM   23  N   UNL     1      41.696 -13.415   5.951  1.00  0.00    -0.311 N 
HETATM   24  C   UNL     1      40.789 -14.377   6.342  1.00  0.00     0.130 A 
HETATM   25  C   UNL     1      43.096 -13.598   5.626  1.00  0.00     0.133 C 
HETATM   26  C   UNL     1      41.075 -15.821   6.574  1.00  0.00     0.081 C 
HETATM   27  N   UNL     1      39.608 -13.811   6.496  1.00  0.00    -0.134 NA
HETATM   28  C   UNL     1      42.054 -16.414   5.569  1.00  0.00     0.008 C 
HETATM   29  C   UNL     1      43.517 -16.111   5.889  1.00  0.00     0.002 C 
HETATM   30  C   UNL     1      43.806 -14.701   6.404  1.00  0.00     0.020 C 
HETATM   31  N   UNL     1      39.729 -12.477   6.210  1.00  0.00    -0.123 NA
ENDBRANCH  21  22
ENDBRANCH  20  21
ENDBRANCH   2  20
TORSDOF 7
ENDMDL
MODEL 2
REMARK VINA RESULT:      -8.2      2.282      5.885
REMARK  7 active torsions:
REMARK  status: ('A' for Active; 'I' for Inactive)
REMARK    1  A    between atoms: O_2  and  C_3 
REMARK    2  A    between atoms: C_6  and  C_7 
REMARK    3  A    between atoms: C_7  and  N_8 
REMARK    4  A    between atoms: C_7  and  C_23 
REMARK       I    between atoms: N_8  and  C_9 
REMARK    5  A    between atoms: C_9  and  C_10 
REMARK    6  A    between atoms: C_10  and  S_11 
REMARK    7  A    between atoms: S_11  and  C_12 
ROOT
HETATM    1  N   UNL     1      43.222 -14.902   5.062  1.00  0.00    -0.348 N 
HETATM    2  C   UNL     1      42.871 -14.123   6.142  1.00  0.00     0.228 C 
HETATM    3  O   UNL     1      41.760 -14.171   6.666  1.00  0.00    -0.273 OA
HETATM    4  H   UNL     1      44.156 -14.820   4.688  1.00  0.00     0.163 HD
ENDROOT
BRANCH   1   5
HETATM    5  C   UNL     1      42.327 -15.914   4.529  1.00  0.00     0.151 C 
BRANCH   5   6
HETATM    6  C   UNL     1      41.684 -15.478   3.216  1.00  0.00    -0.031 A 
HETATM    7  C   UNL     1      42.333 -14.643   2.295  1.00  0.00     0.012 A 
HETATM    8  C   UNL     1      41.727 -14.316   1.078  1.00  0.00     0.037 A 
HETATM    9  C   UNL     1      40.470 -14.824   0.748  1.00  0.00     0.068 A 
HETATM   10  C   UNL     1      39.804 -15.638   1.661  1.00  0.00     0.037 A 
HETATM   11  C   UNL     1      40.408 -15.964   2.882  1.00  0.00     0.012 A 
BRANCH   9  12
HETATM   12  O   UNL     1      39.999 -14.449  -0.481  1.00  0.00    -0.356 OA
HETATM   13  C   UNL     1      40.284 -13.114  -0.883  1.00  0.00     0.210 C 
ENDBRANCH   9  12
ENDBRANCH   5   6
BRANCH   5  14
HETATM   14  C   UNL     1      43.019 -17.268   4.415  1.00  0.00    -0.031 A 
HETATM   15  C   UNL     1      43.327 -17.988   5.583  1.00  0.00     0.009 A 
HETATM   16  C   UNL     1      43.946 -19.238   5.511  1.00  0.00     0.001 A 
HETATM   17  C   UNL     1      44.262 -19.790   4.272  1.00  0.00     0.000 A 
HETATM   18  C   UNL     1      43.962 -19.092   3.104  1.00  0.00     0.001 A 
HETATM   19  C   UNL     1      43.346 -17.841   3.173  1.00  0.00     0.009 A 
ENDBRANCH   5  14
ENDBRANCH   1   5
BRANCH   2  20
HETATM   20  C   UNL     1      43.974 -13.248   6.712  1.00  0.00     0.185 C 
BRANCH  20  21
HETATM   21  S   UNL     1      43.537 -11.481   6.661  1.00  0.00    -0.081 SA
BRANCH  21  22
HETATM   22  C   UNL     1      43.132 -11.330   4.986  1.00  0.00     0.192 A 
HETATM   23  N   UNL     1      41.862 -11.131   4.508  1.00  0.00    -0.311 N 
HETATM   24  C   UNL     1      42.000 -11.053   3.138  1.00  0.00     0.130 A 
HETATM   25  C   UNL     1      40.638 -11.065   5.279  1.00  0.00     0.133 C 
HETATM   26  C   UNL     1      40.909 -10.819   2.150  1.00  0.00     0.081 C 
HETATM   27  N   UNL     1      43.273 -11.205   2.829  1.00  0.00    -0.134 NA
HETATM   28  C   UNL     1      39.614 -11.541   2.496  1.00  0.00     0.008 C 
HETATM   29  C   UNL     1      38.771 -10.815   3.545  1.00  0.00     0.002 C 
HETATM   30  C   UNL     1      39.548 -10.174   4.693  1.00  0.00     0.020 C 
HETATM   31  N   UNL     1      43.980 -11.383   3.988  1.00  0.00    -0.123 NA
ENDBRANCH  21  22
ENDBRANCH  20  21
ENDBRANCH   2  20
TORSDOF 7
ENDMDL
MODEL 3
REMARK VINA RESULT:      -8.1      3.699      6.476
REMARK  7 active torsions:
REMARK  status: ('A' for Active; 'I' for Inactive)
REMARK    1  A    between atoms: O_2  and  C_3 
REMARK    2  A    between atoms: C_6  and  C_7 
REMARK    3  A    between atoms: C_7  and  N_8 
REMARK    4  A    between atoms: C_7  and  C_23 
REMARK       I    between atoms: N_8  and  C_9 
REMARK    5  A    between atoms: C_9  and  C_10 
REMARK    6  A    between atoms: C_10  and  S_11 
REMARK    7  A    between atoms: S_11  and  C_12 
ROOT
HETATM    1  N   UNL     1      43.167 -14.744   4.972  1.00  0.00    -0.348 N 
HETATM    2  C   UNL     1      42.765 -13.895   5.978  1.00  0.00     0.228 C 
HETATM    3  O   UNL     1      41.622 -13.893   6.431  1.00  0.00    -0.273 OA
HETATM    4  H   UNL     1      44.125 -14.701   4.655  1.00  0.00     0.163 HD
ENDROOT
BRANCH   1   5
HETATM    5  C   UNL     1      42.286 -15.770   4.442  1.00  0.00     0.151 C 
BRANCH   5   6
HETATM    6  C   UNL     1      41.632 -15.344   3.131  1.00  0.00    -0.031 A 
HETATM    7  C   UNL     1      42.162 -14.337   2.312  1.00  0.00     0.012 A 
HETATM    8  C   UNL     1      41.560 -14.020   1.090  1.00  0.00     0.037 A 
HETATM    9  C   UNL     1      40.427 -14.708   0.654  1.00  0.00     0.068 A 
HETATM   10  C   UNL     1      39.878 -15.698   1.465  1.00  0.00     0.037 A 
HETATM   11  C   UNL     1      40.478 -16.014   2.691  1.00  0.00     0.012 A 
BRANCH   9  12
HETATM   12  O   UNL     1      39.950 -14.319  -0.568  1.00  0.00    -0.356 OA
HETATM   13  C   UNL     1      40.403 -13.059  -1.049  1.00  0.00     0.210 C 
ENDBRANCH   9  12
ENDBRANCH   5   6
BRANCH   5  14
HETATM   14  C   UNL     1      42.999 -17.114   4.326  1.00  0.00    -0.031 A 
HETATM   15  C   UNL     1      43.296 -17.843   5.491  1.00  0.00     0.009 A 
HETATM   16  C   UNL     1      43.934 -19.083   5.416  1.00  0.00     0.001 A 
HETATM   17  C   UNL     1      44.280 -19.616   4.178  1.00  0.00     0.000 A 
HETATM   18  C   UNL     1      43.992 -18.909   3.013  1.00  0.00     0.001 A 
HETATM   19  C   UNL     1      43.357 -17.667   3.084  1.00  0.00     0.009 A 
ENDBRANCH   5  14
ENDBRANCH   1   5
BRANCH   2  20
HETATM   20  C   UNL     1      43.848 -13.008   6.567  1.00  0.00     0.185 C 
BRANCH  20  21
HETATM   21  S   UNL     1      43.366 -11.252   6.564  1.00  0.00    -0.081 SA
BRANCH  21  22
HETATM   22  C   UNL     1      43.990 -10.776   8.106  1.00  0.00     0.192 A 
HETATM   23  N   UNL     1      43.318  -9.995   9.010  1.00  0.00    -0.311 N 
HETATM   24  C   UNL     1      44.166  -9.881  10.091  1.00  0.00     0.130 A 
HETATM   25  C   UNL     1      42.014  -9.386   8.840  1.00  0.00     0.133 C 
HETATM   26  C   UNL     1      43.893  -9.145  11.358  1.00  0.00     0.081 C 
HETATM   27  N   UNL     1      45.275 -10.548   9.834  1.00  0.00    -0.134 NA
HETATM   28  C   UNL     1      43.148  -7.834  11.148  1.00  0.00     0.008 C 
HETATM   29  C   UNL     1      41.640  -8.010  10.968  1.00  0.00     0.002 C 
HETATM   30  C   UNL     1      41.208  -9.208  10.123  1.00  0.00     0.020 C 
HETATM   31  N   UNL     1      45.164 -11.104   8.587  1.00  0.00    -0.123 NA
ENDBRANCH  21  22
ENDBRANCH  20  21
ENDBRANCH   2  20
TORSDOF 7
ENDMDL
MODEL 4
REMARK VINA RESULT:      -8.0      3.362      4.769
REMARK  7 active torsions:
REMARK  status: ('A' for Active; 'I' for Inactive)
REMARK    1  A    between atoms: O_2  and  C_3 
REMARK    2  A    between atoms: C_6  and  C_7 
REMARK    3  A    between atoms: C_7  and  N_8 
REMARK    4  A    between atoms: C_7  and  C_23 
REMARK       I    between atoms: N_8  and  C_9 
REMARK    5  A    between atoms: C_9  and  C_10 
REMARK    6  A    between atoms: C_10  and  S_11 
REMARK    7  A    between atoms: S_11  and  C_12 
ROOT
HETATM    1  N   UNL     1      42.288 -14.116   4.552  1.00  0.00    -0.348 N 
HETATM    2  C   UNL     1      42.574 -12.781   4.728  1.00  0.00     0.228 C 
HETATM    3  O   UNL     1      43.333 -12.160   3.986  1.00  0.00    -0.273 OA
HETATM    4  H   UNL     1      41.647 -14.563   5.191  1.00  0.00     0.163 HD
ENDROOT
BRANCH   1   5
HETATM    5  C   UNL     1      42.790 -14.861   3.410  1.00  0.00     0.151 C 
BRANCH   5   6
HETATM    6  C   UNL     1      43.253 -16.262   3.797  1.00  0.00    -0.031 A 
HETATM    7  C   UNL     1      43.512 -17.262   2.849  1.00  0.00     0.012 A 
HETATM    8  C   UNL     1      43.991 -18.515   3.247  1.00  0.00     0.037 A 
HETATM    9  C   UNL     1      44.233 -18.791   4.593  1.00  0.00     0.068 A 
HETATM   10  C   UNL     1      43.962 -17.814   5.548  1.00  0.00     0.037 A 
HETATM   11  C   UNL     1      43.479 -16.561   5.152  1.00  0.00     0.012 A 
BRANCH   9  12
HETATM   12  O   UNL     1      44.722 -20.044   4.847  1.00  0.00    -0.356 OA
HETATM   13  C   UNL     1      43.780 -21.006   5.305  1.00  0.00     0.210 C 
ENDBRANCH   9  12
ENDBRANCH   5   6
BRANCH   5  14
HETATM   14  C   UNL     1      41.782 -14.877   2.266  1.00  0.00    -0.031 A 
HETATM   15  C   UNL     1      40.764 -15.846   2.254  1.00  0.00     0.009 A 
HETATM   16  C   UNL     1      39.816 -15.876   1.228  1.00  0.00     0.001 A 
HETATM   17  C   UNL     1      39.868 -14.936   0.203  1.00  0.00     0.000 A 
HETATM   18  C   UNL     1      40.868 -13.966   0.200  1.00  0.00     0.001 A 
HETATM   19  C   UNL     1      41.818 -13.935   1.222  1.00  0.00     0.009 A 
ENDBRANCH   5  14
ENDBRANCH   1   5
BRANCH   2  20
HETATM   20  C   UNL     1      41.826 -12.086   5.852  1.00  0.00     0.185 C 
BRANCH  20  21
HETATM   21  S   UNL     1      42.347 -10.353   6.047  1.00  0.00    -0.081 SA
BRANCH  21  22
HETATM   22  C   UNL     1      43.442 -10.525   7.374  1.00  0.00     0.192 A 
HETATM   23  N   UNL     1      43.217 -10.042   8.637  1.00  0.00    -0.311 N 
HETATM   24  C   UNL     1      44.324 -10.415   9.370  1.00  0.00     0.130 A 
HETATM   25  C   UNL     1      42.078  -9.266   9.086  1.00  0.00     0.133 C 
HETATM   26  C   UNL     1      44.559 -10.146  10.817  1.00  0.00     0.081 C 
HETATM   27  N   UNL     1      45.154 -11.070   8.583  1.00  0.00    -0.134 NA
HETATM   28  C   UNL     1      44.087  -8.769  11.263  1.00  0.00     0.008 C 
HETATM   29  C   UNL     1      42.583  -8.695  11.531  1.00  0.00     0.002 C 
HETATM   30  C   UNL     1      41.696  -9.460  10.550  1.00  0.00     0.020 C 
HETATM   31  N   UNL     1      44.602 -11.135   7.332  1.00  0.00    -0.123 NA
ENDBRANCH  21  22
ENDBRANCH  20  21
ENDBRANCH   2  20
TORSDOF 7
ENDMDL
MODEL 5
REMARK VINA RESULT:      -7.9      2.149      6.604
REMARK  7 active torsions:
REMARK  status: ('A' for Active; 'I' for Inactive)
REMARK    1  A    between atoms: O_2  and  C_3 
REMARK    2  A    between atoms: C_6  and  C_7 
REMARK    3  A    between atoms: C_7  and  N_8 
REMARK    4  A    between atoms: C_7  and  C_23 
REMARK       I    between atoms: N_8  and  C_9 
REMARK    5  A    between atoms: C_9  and  C_10 
REMARK    6  A    between atoms: C_10  and  S_11 
REMARK    7  A    between atoms: S_11  and  C_12 
ROOT
HETATM    1  N   UNL     1      40.923 -13.995   3.864  1.00  0.00    -0.348 N 
HETATM    2  C   UNL     1      39.865 -13.237   4.311  1.00  0.00     0.228 C 
HETATM    3  O   UNL     1      39.636 -13.051   5.505  1.00  0.00    -0.273 OA
HETATM    4  H   UNL     1      41.060 -14.098   2.869  1.00  0.00     0.163 HD
ENDROOT
BRANCH   1   5
HETATM    5  C   UNL     1      41.907 -14.547   4.779  1.00  0.00     0.151 C 
BRANCH   5   6
HETATM    6  C   UNL     1      42.569 -15.803   4.221  1.00  0.00    -0.031 A 
HETATM    7  C   UNL     1      43.489 -16.565   4.955  1.00  0.00     0.012 A 
HETATM    8  C   UNL     1      44.027 -17.741   4.424  1.00  0.00     0.037 A 
HETATM    9  C   UNL     1      43.648 -18.190   3.158  1.00  0.00     0.068 A 
HETATM   10  C   UNL     1      42.750 -17.434   2.409  1.00  0.00     0.037 A 
HETATM   11  C   UNL     1      42.214 -16.254   2.938  1.00  0.00     0.012 A 
BRANCH   9  12
HETATM   12  O   UNL     1      44.227 -19.366   2.765  1.00  0.00    -0.356 OA
HETATM   13  C   UNL     1      43.415 -20.239   1.989  1.00  0.00     0.210 C 
ENDBRANCH   9  12
ENDBRANCH   5   6
BRANCH   5  14
HETATM   14  C   UNL     1      42.925 -13.495   5.206  1.00  0.00    -0.031 A 
HETATM   15  C   UNL     1      43.371 -12.543   4.273  1.00  0.00     0.009 A 
HETATM   16  C   UNL     1      44.290 -11.557   4.639  1.00  0.00     0.001 A 
HETATM   17  C   UNL     1      44.774 -11.505   5.943  1.00  0.00     0.000 A 
HETATM   18  C   UNL     1      44.342 -12.438   6.882  1.00  0.00     0.001 A 
HETATM   19  C   UNL     1      43.426 -13.426   6.519  1.00  0.00     0.009 A 
ENDBRANCH   5  14
ENDBRANCH   1   5
BRANCH   2  20
HETATM   20  C   UNL     1      39.031 -12.564   3.235  1.00  0.00     0.185 C 
BRANCH  20  21
HETATM   21  S   UNL     1      40.068 -11.724   1.996  1.00  0.00    -0.081 SA
BRANCH  21  22
HETATM   22  C   UNL     1      39.845 -12.794   0.655  1.00  0.00     0.192 A 
HETATM   23  N   UNL     1      39.056 -12.523  -0.433  1.00  0.00    -0.311 N 
HETATM   24  C   UNL     1      39.180 -13.624  -1.253  1.00  0.00     0.130 A 
HETATM   25  C   UNL     1      38.234 -11.349  -0.646  1.00  0.00     0.133 C 
HETATM   26  C   UNL     1      38.533 -13.816  -2.582  1.00  0.00     0.081 C 
HETATM   27  N   UNL     1      39.987 -14.494  -0.678  1.00  0.00    -0.134 NA
HETATM   28  C   UNL     1      37.106 -13.288  -2.643  1.00  0.00     0.008 C 
HETATM   29  C   UNL     1      37.023 -11.777  -2.862  1.00  0.00     0.002 C 
HETATM   30  C   UNL     1      38.051 -10.939  -2.104  1.00  0.00     0.020 C 
HETATM   31  N   UNL     1      40.399 -13.974   0.520  1.00  0.00    -0.123 NA
ENDBRANCH  21  22
ENDBRANCH  20  21
ENDBRANCH   2  20
TORSDOF 7
ENDMDL
MODEL 6
REMARK VINA RESULT:      -7.8      3.302      5.878
REMARK  7 active torsions:
REMARK  status: ('A' for Active; 'I' for Inactive)
REMARK    1  A    between atoms: O_2  and  C_3 
REMARK    2  A    between atoms: C_6  and  C_7 
REMARK    3  A    between atoms: C_7  and  N_8 
REMARK    4  A    between atoms: C_7  and  C_23 
REMARK       I    between atoms: N_8  and  C_9 
REMARK    5  A    between atoms: C_9  and  C_10 
REMARK    6  A    between atoms: C_10  and  S_11 
REMARK    7  A    between atoms: S_11  and  C_12 
ROOT
HETATM    1  N   UNL     1      42.812 -14.904   4.499  1.00  0.00    -0.348 N 
HETATM    2  C   UNL     1      42.400 -14.357   5.693  1.00  0.00     0.228 C 
HETATM    3  O   UNL     1      41.304 -14.600   6.194  1.00  0.00    -0.273 OA
HETATM    4  H   UNL     1      43.731 -14.671   4.150  1.00  0.00     0.163 HD
ENDROOT
BRANCH   1   5
HETATM    5  C   UNL     1      42.013 -15.892   3.796  1.00  0.00     0.151 C 
BRANCH   5   6
HETATM    6  C   UNL     1      41.442 -15.346   2.491  1.00  0.00    -0.031 A 
HETATM    7  C   UNL     1      40.350 -15.934   1.837  1.00  0.00     0.012 A 
HETATM    8  C   UNL     1      39.824 -15.364   0.674  1.00  0.00     0.037 A 
HETATM    9  C   UNL     1      40.365 -14.191   0.146  1.00  0.00     0.068 A 
HETATM   10  C   UNL     1      41.463 -13.606   0.774  1.00  0.00     0.037 A 
HETATM   11  C   UNL     1      41.993 -14.178   1.937  1.00  0.00     0.012 A 
BRANCH   9  12
HETATM   12  O   UNL     1      39.745 -13.723  -0.980  1.00  0.00    -0.356 OA
HETATM   13  C   UNL     1      40.256 -12.512  -1.524  1.00  0.00     0.210 C 
ENDBRANCH   9  12
ENDBRANCH   5   6
BRANCH   5  14
HETATM   14  C   UNL     1      42.783 -17.193   3.594  1.00  0.00    -0.031 A 
HETATM   15  C   UNL     1      43.618 -17.671   4.619  1.00  0.00     0.009 A 
HETATM   16  C   UNL     1      44.323 -18.867   4.470  1.00  0.00     0.001 A 
HETATM   17  C   UNL     1      44.202 -19.606   3.297  1.00  0.00     0.000 A 
HETATM   18  C   UNL     1      43.378 -19.150   2.271  1.00  0.00     0.001 A 
HETATM   19  C   UNL     1      42.674 -17.953   2.416  1.00  0.00     0.009 A 
ENDBRANCH   5  14
ENDBRANCH   1   5
BRANCH   2  20
HETATM   20  C   UNL     1      43.420 -13.490   6.411  1.00  0.00     0.185 C 
BRANCH  20  21
HETATM   21  S   UNL     1      43.670 -11.895   5.570  1.00  0.00    -0.081 SA
BRANCH  21  22
HETATM   22  C   UNL     1      43.014 -10.829   6.765  1.00  0.00     0.192 A 
HETATM   23  N   UNL     1      43.706 -10.360   7.852  1.00  0.00    -0.311 N 
HETATM   24  C   UNL     1      42.819  -9.541   8.518  1.00  0.00     0.130 A 
HETATM   25  C   UNL     1      45.063 -10.693   8.235  1.00  0.00     0.133 C 
HETATM   26  C   UNL     1      43.092  -8.766   9.762  1.00  0.00     0.081 C 
HETATM   27  N   UNL     1      41.672  -9.537   7.867  1.00  0.00    -0.134 NA
HETATM   28  C   UNL     1      43.954  -9.518  10.767  1.00  0.00     0.008 C 
HETATM   29  C   UNL     1      45.449  -9.466  10.450  1.00  0.00     0.002 C 
HETATM   30  C   UNL     1      45.819  -9.592   8.973  1.00  0.00     0.020 C 
HETATM   31  N   UNL     1      41.795 -10.349   6.771  1.00  0.00    -0.123 NA
ENDBRANCH  21  22
ENDBRANCH  20  21
ENDBRANCH   2  20
TORSDOF 7
ENDMDL
MODEL 7
REMARK VINA RESULT:      -7.8      3.096      5.701
REMARK  7 active torsions:
REMARK  status: ('A' for Active; 'I' for Inactive)
REMARK    1  A    between atoms: O_2  and  C_3 
REMARK    2  A    between atoms: C_6  and  C_7 
REMARK    3  A    between atoms: C_7  and  N_8 
REMARK    4  A    between atoms: C_7  and  C_23 
REMARK       I    between atoms: N_8  and  C_9 
REMARK    5  A    between atoms: C_9  and  C_10 
REMARK    6  A    between atoms: C_10  and  S_11 
REMARK    7  A    between atoms: S_11  and  C_12 
ROOT
HETATM    1  N   UNL     1      41.416 -13.968   4.302  1.00  0.00    -0.348 N 
HETATM    2  C   UNL     1      40.643 -13.535   5.356  1.00  0.00     0.228 C 
HETATM    3  O   UNL     1      39.562 -14.044   5.642  1.00  0.00    -0.273 OA
HETATM    4  H   UNL     1      42.301 -13.512   4.130  1.00  0.00     0.163 HD
ENDROOT
BRANCH   1   5
HETATM    5  C   UNL     1      41.049 -15.131   3.514  1.00  0.00     0.151 C 
BRANCH   5   6
HETATM    6  C   UNL     1      40.789 -14.776   2.053  1.00  0.00    -0.031 A 
HETATM    7  C   UNL     1      39.932 -15.523   1.232  1.00  0.00     0.012 A 
HETATM    8  C   UNL     1      39.680 -15.126  -0.085  1.00  0.00     0.037 A 
HETATM    9  C   UNL     1      40.264 -13.970  -0.606  1.00  0.00     0.068 A 
HETATM   10  C   UNL     1      41.132 -13.229   0.192  1.00  0.00     0.037 A 
HETATM   11  C   UNL     1      41.389 -13.627   1.509  1.00  0.00     0.012 A 
BRANCH   9  12
HETATM   12  O   UNL     1      39.917 -13.679  -1.897  1.00  0.00    -0.356 OA
HETATM   13  C   UNL     1      39.112 -14.644  -2.565  1.00  0.00     0.210 C 
ENDBRANCH   9  12
ENDBRANCH   5   6
BRANCH   5  14
HETATM   14  C   UNL     1      42.068 -16.255   3.666  1.00  0.00    -0.031 A 
HETATM   15  C   UNL     1      42.488 -16.969   2.530  1.00  0.00     0.009 A 
HETATM   16  C   UNL     1      43.432 -17.992   2.635  1.00  0.00     0.001 A 
HETATM   17  C   UNL     1      43.975 -18.315   3.876  1.00  0.00     0.000 A 
HETATM   18  C   UNL     1      43.573 -17.617   5.013  1.00  0.00     0.001 A 
HETATM   19  C   UNL     1      42.627 -16.596   4.911  1.00  0.00     0.009 A 
ENDBRANCH   5  14
ENDBRANCH   1   5
BRANCH   2  20
HETATM   20  C   UNL     1      41.246 -12.433   6.210  1.00  0.00     0.185 C 
BRANCH  20  21
HETATM   21  S   UNL     1      41.762 -11.001   5.210  1.00  0.00    -0.081 SA
BRANCH  21  22
HETATM   22  C   UNL     1      43.460 -11.013   5.539  1.00  0.00     0.192 A 
HETATM   23  N   UNL     1      44.027 -10.603   6.719  1.00  0.00    -0.311 N 
HETATM   24  C   UNL     1      45.382 -10.797   6.555  1.00  0.00     0.130 A 
HETATM   25  C   UNL     1      43.345 -10.043   7.868  1.00  0.00     0.133 C 
HETATM   26  C   UNL     1      46.444 -10.523   7.566  1.00  0.00     0.081 C 
HETATM   27  N   UNL     1      45.600 -11.283   5.350  1.00  0.00    -0.134 NA
HETATM   28  C   UNL     1      46.199  -9.257   8.375  1.00  0.00     0.008 C 
HETATM   29  C   UNL     1      45.207  -9.448   9.522  1.00  0.00     0.002 C 
HETATM   30  C   UNL     1      43.999 -10.331   9.216  1.00  0.00     0.020 C 
HETATM   31  N   UNL     1      44.395 -11.414   4.713  1.00  0.00    -0.123 NA
ENDBRANCH  21  22
ENDBRANCH  20  21
ENDBRANCH   2  20
TORSDOF 7
ENDMDL
MODEL 8
REMARK VINA RESULT:      -7.6      5.245      9.073
REMARK  7 active torsions:
REMARK  status: ('A' for Active; 'I' for Inactive)
REMARK    1  A    between atoms: O_2  and  C_3 
REMARK    2  A    between atoms: C_6  and  C_7 
REMARK    3  A    between atoms: C_7  and  N_8 
REMARK    4  A    between atoms: C_7  and  C_23 
REMARK       I    between atoms: N_8  and  C_9 
REMARK    5  A    between atoms: C_9  and  C_10 
REMARK    6  A    between atoms: C_10  and  S_11 
REMARK    7  A    between atoms: S_11  and  C_12 
ROOT
HETATM    1  N   UNL     1      41.460  -9.838   8.409  1.00  0.00    -0.348 N 
HETATM    2  C   UNL     1      40.645  -9.271   7.456  1.00  0.00     0.228 C 
HETATM    3  O   UNL     1      40.723  -8.088   7.130  1.00  0.00    -0.273 OA
HETATM    4  H   UNL     1      41.350 -10.819   8.621  1.00  0.00     0.163 HD
ENDROOT
BRANCH   1   5
HETATM    5  C   UNL     1      42.543  -9.093   9.028  1.00  0.00     0.151 C 
BRANCH   5   6
HETATM    6  C   UNL     1      42.449  -9.101  10.550  1.00  0.00    -0.031 A 
HETATM    7  C   UNL     1      43.373  -8.435  11.369  1.00  0.00     0.012 A 
HETATM    8  C   UNL     1      43.213  -8.421  12.759  1.00  0.00     0.037 A 
HETATM    9  C   UNL     1      42.125  -9.057  13.358  1.00  0.00     0.068 A 
HETATM   10  C   UNL     1      41.210  -9.738  12.559  1.00  0.00     0.037 A 
HETATM   11  C   UNL     1      41.371  -9.756  11.168  1.00  0.00     0.012 A 
BRANCH   9  12
HETATM   12  O   UNL     1      42.072  -8.948  14.721  1.00  0.00    -0.356 OA
HETATM   13  C   UNL     1      41.607  -7.707  15.236  1.00  0.00     0.210 C 
ENDBRANCH   9  12
ENDBRANCH   5   6
BRANCH   5  14
HETATM   14  C   UNL     1      43.904  -9.567   8.527  1.00  0.00    -0.031 A 
HETATM   15  C   UNL     1      44.040 -10.872   8.022  1.00  0.00     0.009 A 
HETATM   16  C   UNL     1      45.269 -11.329   7.542  1.00  0.00     0.001 A 
HETATM   17  C   UNL     1      46.379 -10.489   7.554  1.00  0.00     0.000 A 
HETATM   18  C   UNL     1      46.262  -9.191   8.048  1.00  0.00     0.001 A 
HETATM   19  C   UNL     1      45.036  -8.732   8.531  1.00  0.00     0.009 A 
ENDBRANCH   5  14
ENDBRANCH   1   5
BRANCH   2  20
HETATM   20  C   UNL     1      39.686 -10.219   6.757  1.00  0.00     0.185 C 
BRANCH  20  21
HETATM   21  S   UNL     1      40.389 -10.884   5.215  1.00  0.00    -0.081 SA
BRANCH  21  22
HETATM   22  C   UNL     1      40.315 -12.576   5.567  1.00  0.00     0.192 A 
HETATM   23  N   UNL     1      40.959 -13.549   4.847  1.00  0.00    -0.311 N 
HETATM   24  C   UNL     1      40.644 -14.734   5.479  1.00  0.00     0.130 A 
HETATM   25  C   UNL     1      41.761 -13.368   3.654  1.00  0.00     0.133 C 
HETATM   26  C   UNL     1      41.117 -16.095   5.096  1.00  0.00     0.081 C 
HETATM   27  N   UNL     1      39.854 -14.474   6.502  1.00  0.00    -0.134 NA
HETATM   28  C   UNL     1      41.178 -16.314   3.590  1.00  0.00     0.008 C 
HETATM   29  C   UNL     1      42.433 -15.733   2.939  1.00  0.00     0.002 C 
HETATM   30  C   UNL     1      42.891 -14.377   3.471  1.00  0.00     0.020 C 
HETATM   31  N   UNL     1      39.645 -13.121   6.553  1.00  0.00    -0.123 NA
ENDBRANCH  21  22
ENDBRANCH  20  21
ENDBRANCH   2  20
TORSDOF 7
ENDMDL
MODEL 9
REMARK VINA RESULT:      -7.5      2.392      6.924
REMARK  7 active torsions:
REMARK  status: ('A' for Active; 'I' for Inactive)
REMARK    1  A    between atoms: O_2  and  C_3 
REMARK    2  A    between atoms: C_6  and  C_7 
REMARK    3  A    between atoms: C_7  and  N_8 
REMARK    4  A    between atoms: C_7  and  C_23 
REMARK       I    between atoms: N_8  and  C_9 
REMARK    5  A    between atoms: C_9  and  C_10 
REMARK    6  A    between atoms: C_10  and  S_11 
REMARK    7  A    between atoms: S_11  and  C_12 
ROOT
HETATM    1  N   UNL     1      42.142 -12.388   4.877  1.00  0.00    -0.348 N 
HETATM    2  C   UNL     1      40.870 -11.913   4.651  1.00  0.00     0.228 C 
HETATM    3  O   UNL     1      39.991 -11.930   5.511  1.00  0.00    -0.273 OA
HETATM    4  H   UNL     1      42.819 -12.334   4.130  1.00  0.00     0.163 HD
ENDROOT
BRANCH   1   5
HETATM    5  C   UNL     1      42.562 -12.853   6.187  1.00  0.00     0.151 C 
BRANCH   5   6
HETATM    6  C   UNL     1      42.782 -14.362   6.217  1.00  0.00    -0.031 A 
HETATM    7  C   UNL     1      42.771 -15.153   5.059  1.00  0.00     0.012 A 
HETATM    8  C   UNL     1      43.035 -16.525   5.129  1.00  0.00     0.037 A 
HETATM    9  C   UNL     1      43.328 -17.133   6.350  1.00  0.00     0.068 A 
HETATM   10  C   UNL     1      43.323 -16.365   7.512  1.00  0.00     0.037 A 
HETATM   11  C   UNL     1      43.055 -14.992   7.444  1.00  0.00     0.012 A 
BRANCH   9  12
HETATM   12  O   UNL     1      43.591 -18.474   6.279  1.00  0.00    -0.356 OA
HETATM   13  C   UNL     1      44.064 -18.957   5.027  1.00  0.00     0.210 C 
ENDBRANCH   9  12
ENDBRANCH   5   6
BRANCH   5  14
HETATM   14  C   UNL     1      43.775 -12.079   6.693  1.00  0.00    -0.031 A 
HETATM   15  C   UNL     1      44.922 -11.985   5.886  1.00  0.00     0.009 A 
HETATM   16  C   UNL     1      46.043 -11.270   6.315  1.00  0.00     0.001 A 
HETATM   17  C   UNL     1      46.032 -10.633   7.552  1.00  0.00     0.000 A 
HETATM   18  C   UNL     1      44.903 -10.713   8.364  1.00  0.00     0.001 A 
HETATM   19  C   UNL     1      43.783 -11.430   7.940  1.00  0.00     0.009 A 
ENDBRANCH   5  14
ENDBRANCH   1   5
BRANCH   2  20
HETATM   20  C   UNL     1      40.631 -11.280   3.292  1.00  0.00     0.185 C 
BRANCH  20  21
HETATM   21  S   UNL     1      41.878 -11.798   2.071  1.00  0.00    -0.081 SA
BRANCH  21  22
HETATM   22  C   UNL     1      41.016 -13.086   1.302  1.00  0.00     0.192 A 
HETATM   23  N   UNL     1      40.577 -13.061   0.003  1.00  0.00    -0.311 N 
HETATM   24  C   UNL     1      39.966 -14.281  -0.194  1.00  0.00     0.130 A 
HETATM   25  C   UNL     1      40.693 -11.967  -0.938  1.00  0.00     0.133 C 
HETATM   26  C   UNL     1      39.338 -14.763  -1.458  1.00  0.00     0.081 C 
HETATM   27  N   UNL     1      40.033 -14.978   0.923  1.00  0.00    -0.134 NA
HETATM   28  C   UNL     1      38.577 -13.678  -2.208  1.00  0.00     0.008 C 
HETATM   29  C   UNL     1      39.476 -12.768  -3.044  1.00  0.00     0.002 C 
HETATM   30  C   UNL     1      40.807 -12.378  -2.403  1.00  0.00     0.020 C 
HETATM   31  N   UNL     1      40.689 -14.225   1.861  1.00  0.00    -0.123 NA
ENDBRANCH  21  22
ENDBRANCH  20  21
ENDBRANCH   2  20
TORSDOF 7
ENDMDL
MODEL 10
REMARK VINA RESULT:      -7.4      3.805      5.016
REMARK  7 active torsions:
REMARK  status: ('A' for Active; 'I' for Inactive)
REMARK    1  A    between atoms: O_2  and  C_3 
REMARK    2  A    between atoms: C_6  and  C_7 
REMARK    3  A    between atoms: C_7  and  N_8 
REMARK    4  A    between atoms: C_7  and  C_23 
REMARK       I    between atoms: N_8  and  C_9 
REMARK    5  A    between atoms: C_9  and  C_10 
REMARK    6  A    between atoms: C_10  and  S_11 
REMARK    7  A    between atoms: S_11  and  C_12 
ROOT
HETATM    1  N   UNL     1      42.894 -13.234   4.967  1.00  0.00    -0.348 N 
HETATM    2  C   UNL     1      43.494 -12.035   5.282  1.00  0.00     0.228 C 
HETATM    3  O   UNL     1      44.068 -11.338   4.447  1.00  0.00    -0.273 OA
HETATM    4  H   UNL     1      42.430 -13.751   5.699  1.00  0.00     0.163 HD
ENDROOT
BRANCH   1   5
HETATM    5  C   UNL     1      42.813 -13.710   3.597  1.00  0.00     0.151 C 
BRANCH   5   6
HETATM    6  C   UNL     1      42.996 -15.221   3.502  1.00  0.00    -0.031 A 
HETATM    7  C   UNL     1      42.960 -15.914   2.283  1.00  0.00     0.012 A 
HETATM    8  C   UNL     1      43.191 -17.292   2.239  1.00  0.00     0.037 A 
HETATM    9  C   UNL     1      43.474 -18.006   3.405  1.00  0.00     0.068 A 
HETATM   10  C   UNL     1      43.493 -17.335   4.625  1.00  0.00     0.037 A 
HETATM   11  C   UNL     1      43.259 -15.955   4.671  1.00  0.00     0.012 A 
BRANCH   9  12
HETATM   12  O   UNL     1      43.704 -19.342   3.223  1.00  0.00    -0.356 OA
HETATM   13  C   UNL     1      43.296 -19.886   1.973  1.00  0.00     0.210 C 
ENDBRANCH   9  12
ENDBRANCH   5   6
BRANCH   5  14
HETATM   14  C   UNL     1      41.533 -13.235   2.915  1.00  0.00    -0.031 A 
HETATM   15  C   UNL     1      40.288 -13.531   3.497  1.00  0.00     0.009 A 
HETATM   16  C   UNL     1      39.100 -13.097   2.905  1.00  0.00     0.001 A 
HETATM   17  C   UNL     1      39.137 -12.356   1.727  1.00  0.00     0.000 A 
HETATM   18  C   UNL     1      40.362 -12.051   1.138  1.00  0.00     0.001 A 
HETATM   19  C   UNL     1      41.552 -12.486   1.725  1.00  0.00     0.009 A 
ENDBRANCH   5  14
ENDBRANCH   1   5
BRANCH   2  20
HETATM   20  C   UNL     1      43.333 -11.573   6.719  1.00  0.00     0.185 C 
BRANCH  20  21
HETATM   21  S   UNL     1      44.448 -10.190   7.118  1.00  0.00    -0.081 SA
BRANCH  21  22
HETATM   22  C   UNL     1      44.433 -10.293   8.845  1.00  0.00     0.192 A 
HETATM   23  N   UNL     1      43.423  -9.822   9.644  1.00  0.00    -0.311 N 
HETATM   24  C   UNL     1      43.809 -10.125  10.932  1.00  0.00     0.130 A 
HETATM   25  C   UNL     1      42.230  -9.118   9.219  1.00  0.00     0.133 C 
HETATM   26  C   UNL     1      43.041  -9.840  12.177  1.00  0.00     0.081 C 
HETATM   27  N   UNL     1      44.981 -10.728  10.894  1.00  0.00    -0.134 NA
HETATM   28  C   UNL     1      42.329  -8.494  12.156  1.00  0.00     0.008 C 
HETATM   29  C   UNL     1      41.008  -8.514  11.388  1.00  0.00     0.002 C 
HETATM   30  C   UNL     1      41.001  -9.333  10.098  1.00  0.00     0.020 C 
HETATM   31  N   UNL     1      45.372 -10.829   9.585  1.00  0.00    -0.123 NA
ENDBRANCH  21  22
ENDBRANCH  20  21
ENDBRANCH   2  20
TORSDOF 7
ENDMDL
