MODEL 1
REMARK VINA RESULT:      -7.5      0.000      0.000
REMARK  9 active torsions:
REMARK  status: ('A' for Active; 'I' for Inactive)
REMARK    1  A    between atoms: C_2  and  C_3 
REMARK       I    between atoms: C_3  and  N_4 
REMARK    2  A    between atoms: N_4  and  N_5 
REMARK    3  A    between atoms: N_5  and  C_6 
REMARK    4  A    between atoms: C_6  and  N_7 
REMARK    5  A    between atoms: N_7  and  C_8 
REMARK    6  A    between atoms: C_18  and  N_19 
REMARK    7  A    between atoms: N_19  and  C_20 
REMARK    8  A    between atoms: C_20  and  N_21 
REMARK    9  A    between atoms: N_21  and  C_22 
ROOT
HETATM    1  C   UNL     1      40.613 -13.484   1.382  1.00  0.00     0.019 A 
HETATM    2  C   UNL     1      40.178 -14.435   0.454  1.00  0.00     0.033 A 
HETATM    3  C   UNL     1      39.846 -15.719   0.904  1.00  0.00     0.019 A 
HETATM    4  C   UNL     1      39.970 -16.059   2.258  1.00  0.00     0.030 A 
HETATM    5  C   UNL     1      40.435 -15.122   3.180  1.00  0.00     0.033 A 
HETATM    6  C   UNL     1      40.739 -13.830   2.732  1.00  0.00     0.030 A 
ENDROOT
BRANCH   2   7
HETATM    7  C   UNL     1      40.017 -14.122  -0.995  1.00  0.00     0.270 C 
HETATM    8  N   UNL     1      40.864 -13.165  -1.519  1.00  0.00    -0.264 N 
HETATM    9  H   UNL     1      41.560 -12.656  -0.988  1.00  0.00     0.190 HD
HETATM   10  O   UNL     1      39.176 -14.703  -1.678  1.00  0.00    -0.266 OA
BRANCH   8  11
HETATM   11  N   UNL     1      40.648 -12.725  -2.833  1.00  0.00    -0.274 N 
HETATM   12  H   UNL     1      40.668 -13.476  -3.514  1.00  0.00     0.189 HD
BRANCH  11  13
HETATM   13  C   UNL     1      39.807 -11.681  -3.077  1.00  0.00     0.186 C 
HETATM   14  S   UNL     1      40.291 -10.089  -3.288  1.00  0.00    -0.040 SA
BRANCH  13  15
HETATM   15  N   UNL     1      38.487 -11.956  -3.221  1.00  0.00    -0.361 N 
HETATM   16  H   UNL     1      38.337 -12.704  -3.889  1.00  0.00     0.162 HD
BRANCH  15  17
HETATM   17  C   UNL     1      37.297 -11.582  -2.443  1.00  0.00     0.083 C 
HETATM   18  C   UNL     1      37.546 -11.522  -0.930  1.00  0.00     0.025 C 
HETATM   19  C   UNL     1      37.701 -10.121  -0.352  1.00  0.00     0.002 C 
HETATM   20  C   UNL     1      36.586  -9.201  -0.817  1.00  0.00     0.000 C 
HETATM   21  C   UNL     1      36.564  -9.080  -2.333  1.00  0.00     0.002 C 
HETATM   22  C   UNL     1      36.473 -10.430  -3.039  1.00  0.00     0.025 C 
ENDBRANCH  15  17
ENDBRANCH  13  15
ENDBRANCH  11  13
ENDBRANCH   8  11
ENDBRANCH   2   7
BRANCH   5  23
HETATM   23  N   UNL     1      40.551 -15.344   4.565  1.00  0.00    -0.338 N 
HETATM   24  H   UNL     1      39.748 -15.063   5.108  1.00  0.00     0.168 HD
BRANCH  23  25
HETATM   25  C   UNL     1      41.607 -15.668   5.367  1.00  0.00     0.151 C 
HETATM   26  S   UNL     1      42.067 -14.982   6.816  1.00  0.00    -0.047 SA
BRANCH  25  27
HETATM   27  N   UNL     1      42.293 -16.791   4.961  1.00  0.00    -0.265 NA
HETATM   28  H   UNL     1      42.357 -17.413   5.762  1.00  0.00     0.130 HD
BRANCH  27  29
HETATM   29  C   UNL     1      43.555 -16.792   4.188  1.00  0.00     0.062 C 
HETATM   30  C   UNL     1      44.489 -17.878   4.755  1.00  0.00     0.020 C 
HETATM   31  C   UNL     1      44.025 -19.290   4.389  1.00  0.00     0.002 C 
HETATM   32  C   UNL     1      43.856 -19.461   2.883  1.00  0.00     0.000 C 
HETATM   33  C   UNL     1      42.952 -18.383   2.290  1.00  0.00     0.002 C 
HETATM   34  C   UNL     1      43.439 -16.986   2.667  1.00  0.00     0.020 C 
ENDBRANCH  27  29
ENDBRANCH  25  27
ENDBRANCH  23  25
ENDBRANCH   5  23
TORSDOF 9
ENDMDL
MODEL 2
REMARK VINA RESULT:      -7.5      2.730      3.895
REMARK  9 active torsions:
REMARK  status: ('A' for Active; 'I' for Inactive)
REMARK    1  A    between atoms: C_2  and  C_3 
REMARK       I    between atoms: C_3  and  N_4 
REMARK    2  A    between atoms: N_4  and  N_5 
REMARK    3  A    between atoms: N_5  and  C_6 
REMARK    4  A    between atoms: C_6  and  N_7 
REMARK    5  A    between atoms: N_7  and  C_8 
REMARK    6  A    between atoms: C_18  and  N_19 
REMARK    7  A    between atoms: N_19  and  C_20 
REMARK    8  A    between atoms: C_20  and  N_21 
REMARK    9  A    between atoms: N_21  and  C_22 
ROOT
HETATM    1  C   UNL     1      42.303 -13.638   1.957  1.00  0.00     0.019 A 
HETATM    2  C   UNL     1      40.906 -13.680   1.941  1.00  0.00     0.033 A 
HETATM    3  C   UNL     1      40.266 -14.925   1.917  1.00  0.00     0.019 A 
HETATM    4  C   UNL     1      41.009 -16.114   1.882  1.00  0.00     0.030 A 
HETATM    5  C   UNL     1      42.403 -16.072   1.864  1.00  0.00     0.033 A 
HETATM    6  C   UNL     1      43.040 -14.826   1.917  1.00  0.00     0.030 A 
ENDROOT
BRANCH   2   7
HETATM    7  C   UNL     1      40.068 -12.447   1.990  1.00  0.00     0.270 C 
HETATM    8  N   UNL     1      38.700 -12.626   1.920  1.00  0.00    -0.264 N 
HETATM    9  H   UNL     1      38.239 -13.523   1.818  1.00  0.00     0.190 HD
HETATM   10  O   UNL     1      40.583 -11.337   2.098  1.00  0.00    -0.266 OA
BRANCH   8  11
HETATM   11  N   UNL     1      37.881 -11.494   1.804  1.00  0.00    -0.274 N 
HETATM   12  H   UNL     1      38.188 -10.719   2.381  1.00  0.00     0.189 HD
BRANCH  11  13
HETATM   13  C   UNL     1      37.289 -11.194   0.614  1.00  0.00     0.186 C 
HETATM   14  S   UNL     1      36.566  -9.727   0.246  1.00  0.00    -0.040 SA
BRANCH  13  15
HETATM   15  N   UNL     1      37.342 -12.128  -0.368  1.00  0.00    -0.361 N 
HETATM   16  H   UNL     1      36.624 -12.834  -0.245  1.00  0.00     0.162 HD
BRANCH  15  17
HETATM   17  C   UNL     1      38.034 -12.178  -1.664  1.00  0.00     0.083 C 
HETATM   18  C   UNL     1      39.488 -11.690  -1.603  1.00  0.00     0.025 C 
HETATM   19  C   UNL     1      40.543 -12.789  -1.606  1.00  0.00     0.002 C 
HETATM   20  C   UNL     1      40.291 -13.800  -2.712  1.00  0.00     0.000 C 
HETATM   21  C   UNL     1      38.930 -14.461  -2.558  1.00  0.00     0.002 C 
HETATM   22  C   UNL     1      37.784 -13.456  -2.479  1.00  0.00     0.025 C 
ENDBRANCH  15  17
ENDBRANCH  13  15
ENDBRANCH  11  13
ENDBRANCH   8  11
ENDBRANCH   2   7
BRANCH   5  23
HETATM   23  N   UNL     1      43.243 -17.201   1.878  1.00  0.00    -0.338 N 
HETATM   24  H   UNL     1      43.599 -17.476   0.975  1.00  0.00     0.168 HD
BRANCH  23  25
HETATM   25  C   UNL     1      43.518 -18.141   2.829  1.00  0.00     0.151 C 
HETATM   26  S   UNL     1      43.618 -19.797   2.665  1.00  0.00    -0.047 SA
BRANCH  25  27
HETATM   27  N   UNL     1      43.875 -17.612   4.051  1.00  0.00    -0.265 NA
HETATM   28  H   UNL     1      44.802 -17.961   4.273  1.00  0.00     0.130 HD
BRANCH  27  29
HETATM   29  C   UNL     1      43.017 -17.582   5.255  1.00  0.00     0.062 C 
HETATM   30  C   UNL     1      43.912 -17.523   6.507  1.00  0.00     0.020 C 
HETATM   31  C   UNL     1      44.565 -16.150   6.689  1.00  0.00     0.002 C 
HETATM   32  C   UNL     1      43.532 -15.028   6.715  1.00  0.00     0.000 C 
HETATM   33  C   UNL     1      42.615 -15.076   5.496  1.00  0.00     0.002 C 
HETATM   34  C   UNL     1      41.975 -16.454   5.341  1.00  0.00     0.020 C 
ENDBRANCH  27  29
ENDBRANCH  25  27
ENDBRANCH  23  25
ENDBRANCH   5  23
TORSDOF 9
ENDMDL
MODEL 3
REMARK VINA RESULT:      -7.3      6.740      9.879
REMARK  9 active torsions:
REMARK  status: ('A' for Active; 'I' for Inactive)
REMARK    1  A    between atoms: C_2  and  C_3 
REMARK       I    between atoms: C_3  and  N_4 
REMARK    2  A    between atoms: N_4  and  N_5 
REMARK    3  A    between atoms: N_5  and  C_6 
REMARK    4  A    between atoms: C_6  and  N_7 
REMARK    5  A    between atoms: N_7  and  C_8 
REMARK    6  A    between atoms: C_18  and  N_19 
REMARK    7  A    between atoms: N_19  and  C_20 
REMARK    8  A    between atoms: C_20  and  N_21 
REMARK    9  A    between atoms: N_21  and  C_22 
ROOT
HETATM    1  C   UNL     1      43.061 -10.616   7.431  1.00  0.00     0.019 A 
HETATM    2  C   UNL     1      44.230 -10.752   8.184  1.00  0.00     0.033 A 
HETATM    3  C   UNL     1      45.409 -11.146   7.540  1.00  0.00     0.019 A 
HETATM    4  C   UNL     1      45.417 -11.427   6.166  1.00  0.00     0.030 A 
HETATM    5  C   UNL     1      44.244 -11.324   5.420  1.00  0.00     0.033 A 
HETATM    6  C   UNL     1      43.073 -10.902   6.061  1.00  0.00     0.030 A 
ENDROOT
BRANCH   2   7
HETATM    7  C   UNL     1      44.280 -10.454   9.645  1.00  0.00     0.270 C 
HETATM    8  N   UNL     1      43.228 -10.924  10.408  1.00  0.00    -0.264 N 
HETATM    9  H   UNL     1      42.429 -11.429  10.043  1.00  0.00     0.190 HD
HETATM   10  O   UNL     1      45.221  -9.832  10.131  1.00  0.00    -0.266 OA
BRANCH   8  11
HETATM   11  N   UNL     1      43.151 -10.537  11.753  1.00  0.00    -0.274 N 
HETATM   12  H   UNL     1      44.022 -10.161  12.111  1.00  0.00     0.189 HD
BRANCH  11  13
HETATM   13  C   UNL     1      41.993 -10.019  12.252  1.00  0.00     0.186 C 
HETATM   14  S   UNL     1      41.863  -9.181  13.698  1.00  0.00    -0.040 SA
BRANCH  13  15
HETATM   15  N   UNL     1      40.874 -10.136  11.495  1.00  0.00    -0.361 N 
HETATM   16  H   UNL     1      40.419 -11.030  11.645  1.00  0.00     0.162 HD
BRANCH  15  17
HETATM   17  C   UNL     1      40.078  -9.166  10.731  1.00  0.00     0.083 C 
HETATM   18  C   UNL     1      40.875  -7.931  10.286  1.00  0.00     0.025 C 
HETATM   19  C   UNL     1      41.300  -7.924   8.823  1.00  0.00     0.002 C 
HETATM   20  C   UNL     1      40.135  -8.253   7.904  1.00  0.00     0.000 C 
HETATM   21  C   UNL     1      39.556  -9.625   8.215  1.00  0.00     0.002 C 
HETATM   22  C   UNL     1      39.146  -9.783   9.676  1.00  0.00     0.025 C 
ENDBRANCH  15  17
ENDBRANCH  13  15
ENDBRANCH  11  13
ENDBRANCH   8  11
ENDBRANCH   2   7
BRANCH   5  23
HETATM   23  N   UNL     1      44.151 -11.535   4.032  1.00  0.00    -0.338 N 
HETATM   24  H   UNL     1      44.866 -11.079   3.484  1.00  0.00     0.168 HD
BRANCH  23  25
HETATM   25  C   UNL     1      43.173 -12.059   3.236  1.00  0.00     0.151 C 
HETATM   26  S   UNL     1      42.020 -11.260   2.334  1.00  0.00    -0.047 SA
BRANCH  25  27
HETATM   27  N   UNL     1      43.250 -13.426   3.083  1.00  0.00    -0.265 NA
HETATM   28  H   UNL     1      43.971 -13.614   2.393  1.00  0.00     0.130 HD
BRANCH  27  29
HETATM   29  C   UNL     1      42.096 -14.334   2.903  1.00  0.00     0.062 C 
HETATM   30  C   UNL     1      42.219 -15.038   1.538  1.00  0.00     0.020 C 
HETATM   31  C   UNL     1      43.320 -16.102   1.532  1.00  0.00     0.002 C 
HETATM   32  C   UNL     1      43.126 -17.125   2.647  1.00  0.00     0.000 C 
HETATM   33  C   UNL     1      42.978 -16.454   4.010  1.00  0.00     0.002 C 
HETATM   34  C   UNL     1      41.873 -15.400   3.989  1.00  0.00     0.020 C 
ENDBRANCH  27  29
ENDBRANCH  25  27
ENDBRANCH  23  25
ENDBRANCH   5  23
TORSDOF 9
ENDMDL
MODEL 4
REMARK VINA RESULT:      -7.3      6.343      9.694
REMARK  9 active torsions:
REMARK  status: ('A' for Active; 'I' for Inactive)
REMARK    1  A    between atoms: C_2  and  C_3 
REMARK       I    between atoms: C_3  and  N_4 
REMARK    2  A    between atoms: N_4  and  N_5 
REMARK    3  A    between atoms: N_5  and  C_6 
REMARK    4  A    between atoms: C_6  and  N_7 
REMARK    5  A    between atoms: N_7  and  C_8 
REMARK    6  A    between atoms: C_18  and  N_19 
REMARK    7  A    between atoms: N_19  and  C_20 
REMARK    8  A    between atoms: C_20  and  N_21 
REMARK    9  A    between atoms: N_21  and  C_22 
ROOT
HETATM    1  C   UNL     1      38.971 -10.435   4.476  1.00  0.00     0.019 A 
HETATM    2  C   UNL     1      39.251 -10.905   5.762  1.00  0.00     0.033 A 
HETATM    3  C   UNL     1      39.594 -12.252   5.932  1.00  0.00     0.019 A 
HETATM    4  C   UNL     1      39.632 -13.127   4.836  1.00  0.00     0.030 A 
HETATM    5  C   UNL     1      39.321 -12.667   3.557  1.00  0.00     0.033 A 
HETATM    6  C   UNL     1      39.006 -11.313   3.387  1.00  0.00     0.030 A 
ENDROOT
BRANCH   2   7
HETATM    7  C   UNL     1      39.238 -10.016   6.959  1.00  0.00     0.270 C 
HETATM    8  N   UNL     1      39.841 -10.506   8.100  1.00  0.00    -0.264 N 
HETATM    9  H   UNL     1      40.266 -11.422   8.182  1.00  0.00     0.190 HD
HETATM   10  O   UNL     1      38.722  -8.902   6.912  1.00  0.00    -0.266 OA
BRANCH   8  11
HETATM   11  N   UNL     1      39.718  -9.775   9.291  1.00  0.00    -0.274 N 
HETATM   12  H   UNL     1      39.107 -10.218   9.969  1.00  0.00     0.189 HD
BRANCH  11  13
HETATM   13  C   UNL     1      40.775  -9.062   9.771  1.00  0.00     0.186 C 
HETATM   14  S   UNL     1      40.837  -7.390   9.872  1.00  0.00    -0.040 SA
BRANCH  13  15
HETATM   15  N   UNL     1      41.832  -9.757  10.261  1.00  0.00    -0.361 N 
HETATM   16  H   UNL     1      42.478 -10.015   9.523  1.00  0.00     0.162 HD
BRANCH  15  17
HETATM   17  C   UNL     1      42.339  -9.976  11.623  1.00  0.00     0.083 C 
HETATM   18  C   UNL     1      43.530  -9.077  11.986  1.00  0.00     0.025 C 
HETATM   19  C   UNL     1      43.198  -7.889  12.880  1.00  0.00     0.002 C 
HETATM   20  C   UNL     1      42.370  -8.311  14.083  1.00  0.00     0.000 C 
HETATM   21  C   UNL     1      41.060  -8.953  13.655  1.00  0.00     0.002 C 
HETATM   22  C   UNL     1      41.254 -10.127  12.700  1.00  0.00     0.025 C 
ENDBRANCH  15  17
ENDBRANCH  13  15
ENDBRANCH  11  13
ENDBRANCH   8  11
ENDBRANCH   2   7
BRANCH   5  23
HETATM   23  N   UNL     1      39.375 -13.446   2.386  1.00  0.00    -0.338 N 
HETATM   24  H   UNL     1      38.620 -14.107   2.281  1.00  0.00     0.168 HD
BRANCH  23  25
HETATM   25  C   UNL     1      40.348 -13.648   1.451  1.00  0.00     0.151 C 
HETATM   26  S   UNL     1      40.795 -12.668   0.179  1.00  0.00    -0.047 SA
BRANCH  25  27
HETATM   27  N   UNL     1      41.126 -14.761   1.686  1.00  0.00    -0.265 NA
HETATM   28  H   UNL     1      40.625 -15.346   2.348  1.00  0.00     0.130 HD
BRANCH  27  29
HETATM   29  C   UNL     1      42.575 -14.747   1.982  1.00  0.00     0.062 C 
HETATM   30  C   UNL     1      42.775 -14.598   3.502  1.00  0.00     0.020 C 
HETATM   31  C   UNL     1      42.426 -15.881   4.261  1.00  0.00     0.002 C 
HETATM   32  C   UNL     1      43.202 -17.083   3.732  1.00  0.00     0.000 C 
HETATM   33  C   UNL     1      43.040 -17.241   2.223  1.00  0.00     0.002 C 
HETATM   34  C   UNL     1      43.398 -15.950   1.492  1.00  0.00     0.020 C 
ENDBRANCH  27  29
ENDBRANCH  25  27
ENDBRANCH  23  25
ENDBRANCH   5  23
TORSDOF 9
ENDMDL
MODEL 5
REMARK VINA RESULT:      -7.3      1.833      2.562
REMARK  9 active torsions:
REMARK  status: ('A' for Active; 'I' for Inactive)
REMARK    1  A    between atoms: C_2  and  C_3 
REMARK       I    between atoms: C_3  and  N_4 
REMARK    2  A    between atoms: N_4  and  N_5 
REMARK    3  A    between atoms: N_5  and  C_6 
REMARK    4  A    between atoms: C_6  and  N_7 
REMARK    5  A    between atoms: N_7  and  C_8 
REMARK    6  A    between atoms: C_18  and  N_19 
REMARK    7  A    between atoms: N_19  and  C_20 
REMARK    8  A    between atoms: C_20  and  N_21 
REMARK    9  A    between atoms: N_21  and  C_22 
ROOT
HETATM    1  C   UNL     1      40.250 -13.168   3.726  1.00  0.00     0.019 A 
HETATM    2  C   UNL     1      40.165 -13.416   2.353  1.00  0.00     0.033 A 
HETATM    3  C   UNL     1      40.366 -14.720   1.886  1.00  0.00     0.019 A 
HETATM    4  C   UNL     1      40.674 -15.761   2.774  1.00  0.00     0.030 A 
HETATM    5  C   UNL     1      40.792 -15.510   4.140  1.00  0.00     0.033 A 
HETATM    6  C   UNL     1      40.561 -14.209   4.607  1.00  0.00     0.030 A 
ENDROOT
BRANCH   2   7
HETATM    7  C   UNL     1      39.829 -12.348   1.367  1.00  0.00     0.270 C 
HETATM    8  N   UNL     1      40.882 -11.592   0.891  1.00  0.00    -0.264 N 
HETATM    9  H   UNL     1      41.847 -11.699   1.180  1.00  0.00     0.190 HD
HETATM   10  O   UNL     1      38.670 -12.171   0.998  1.00  0.00    -0.266 OA
BRANCH   8  11
HETATM   11  N   UNL     1      40.599 -10.479   0.087  1.00  0.00    -0.274 N 
HETATM   12  H   UNL     1      40.493  -9.620   0.616  1.00  0.00     0.189 HD
BRANCH  11  13
HETATM   13  C   UNL     1      41.132 -10.384  -1.164  1.00  0.00     0.186 C 
HETATM   14  S   UNL     1      41.683  -8.964  -1.865  1.00  0.00    -0.040 SA
BRANCH  13  15
HETATM   15  N   UNL     1      41.286 -11.530  -1.872  1.00  0.00    -0.361 N 
HETATM   16  H   UNL     1      42.101 -12.049  -1.561  1.00  0.00     0.162 HD
BRANCH  15  17
HETATM   17  C   UNL     1      40.401 -12.269  -2.782  1.00  0.00     0.083 C 
HETATM   18  C   UNL     1      40.344 -13.776  -2.495  1.00  0.00     0.025 C 
HETATM   19  C   UNL     1      39.096 -14.252  -1.763  1.00  0.00     0.002 C 
HETATM   20  C   UNL     1      37.832 -13.712  -2.410  1.00  0.00     0.000 C 
HETATM   21  C   UNL     1      37.818 -12.191  -2.415  1.00  0.00     0.002 C 
HETATM   22  C   UNL     1      39.056 -11.586  -3.072  1.00  0.00     0.025 C 
ENDBRANCH  15  17
ENDBRANCH  13  15
ENDBRANCH  11  13
ENDBRANCH   8  11
ENDBRANCH   2   7
BRANCH   5  23
HETATM   23  N   UNL     1      41.048 -16.486   5.120  1.00  0.00    -0.338 N 
HETATM   24  H   UNL     1      40.225 -16.918   5.514  1.00  0.00     0.168 HD
BRANCH  23  25
HETATM   25  C   UNL     1      42.173 -16.835   5.810  1.00  0.00     0.151 C 
HETATM   26  S   UNL     1      42.802 -16.154   7.196  1.00  0.00    -0.047 SA
BRANCH  25  27
HETATM   27  N   UNL     1      42.782 -17.981   5.345  1.00  0.00    -0.265 NA
HETATM   28  H   UNL     1      42.885 -18.611   6.135  1.00  0.00     0.130 HD
BRANCH  27  29
HETATM   29  C   UNL     1      43.976 -18.023   4.474  1.00  0.00     0.062 C 
HETATM   30  C   UNL     1      44.618 -19.420   4.571  1.00  0.00     0.020 C 
HETATM   31  C   UNL     1      43.797 -20.487   3.841  1.00  0.00     0.002 C 
HETATM   32  C   UNL     1      43.544 -20.112   2.384  1.00  0.00     0.000 C 
HETATM   33  C   UNL     1      42.929 -18.721   2.257  1.00  0.00     0.002 C 
HETATM   34  C   UNL     1      43.769 -17.678   2.990  1.00  0.00     0.020 C 
ENDBRANCH  27  29
ENDBRANCH  25  27
ENDBRANCH  23  25
ENDBRANCH   5  23
TORSDOF 9
ENDMDL
MODEL 6
REMARK VINA RESULT:      -7.3      1.651      2.383
REMARK  9 active torsions:
REMARK  status: ('A' for Active; 'I' for Inactive)
REMARK    1  A    between atoms: C_2  and  C_3 
REMARK       I    between atoms: C_3  and  N_4 
REMARK    2  A    between atoms: N_4  and  N_5 
REMARK    3  A    between atoms: N_5  and  C_6 
REMARK    4  A    between atoms: C_6  and  N_7 
REMARK    5  A    between atoms: N_7  and  C_8 
REMARK    6  A    between atoms: C_18  and  N_19 
REMARK    7  A    between atoms: N_19  and  C_20 
REMARK    8  A    between atoms: C_20  and  N_21 
REMARK    9  A    between atoms: N_21  and  C_22 
ROOT
HETATM    1  C   UNL     1      39.972 -15.561   1.594  1.00  0.00     0.019 A 
HETATM    2  C   UNL     1      40.594 -14.363   1.232  1.00  0.00     0.033 A 
HETATM    3  C   UNL     1      41.401 -13.708   2.169  1.00  0.00     0.019 A 
HETATM    4  C   UNL     1      41.566 -14.226   3.462  1.00  0.00     0.030 A 
HETATM    5  C   UNL     1      40.920 -15.404   3.835  1.00  0.00     0.033 A 
HETATM    6  C   UNL     1      40.136 -16.072   2.886  1.00  0.00     0.030 A 
ENDROOT
BRANCH   2   7
HETATM    7  C   UNL     1      40.462 -13.775  -0.133  1.00  0.00     0.270 C 
HETATM    8  N   UNL     1      41.090 -12.563  -0.347  1.00  0.00    -0.264 N 
HETATM    9  H   UNL     1      41.606 -12.047   0.356  1.00  0.00     0.190 HD
HETATM   10  O   UNL     1      39.834 -14.356  -1.014  1.00  0.00    -0.266 OA
BRANCH   8  11
HETATM   11  N   UNL     1      40.866 -11.897  -1.560  1.00  0.00    -0.274 N 
HETATM   12  H   UNL     1      40.472 -12.496  -2.277  1.00  0.00     0.189 HD
BRANCH  11  13
HETATM   13  C   UNL     1      40.494 -10.586  -1.564  1.00  0.00     0.186 C 
HETATM   14  S   UNL     1      41.450  -9.320  -2.106  1.00  0.00    -0.040 SA
BRANCH  13  15
HETATM   15  N   UNL     1      39.235 -10.288  -1.157  1.00  0.00    -0.361 N 
HETATM   16  H   UNL     1      38.546 -10.590  -1.838  1.00  0.00     0.162 HD
BRANCH  15  17
HETATM   17  C   UNL     1      38.675  -9.868   0.135  1.00  0.00     0.083 C 
HETATM   18  C   UNL     1      37.647 -10.854   0.709  1.00  0.00     0.025 C 
HETATM   19  C   UNL     1      38.160 -11.747   1.831  1.00  0.00     0.002 C 
HETATM   20  C   UNL     1      38.884 -10.941   2.897  1.00  0.00     0.000 C 
HETATM   21  C   UNL     1      40.074 -10.196   2.314  1.00  0.00     0.002 C 
HETATM   22  C   UNL     1      39.701  -9.306   1.131  1.00  0.00     0.025 C 
ENDBRANCH  15  17
ENDBRANCH  13  15
ENDBRANCH  11  13
ENDBRANCH   8  11
ENDBRANCH   2   7
BRANCH   5  23
HETATM   23  N   UNL     1      41.054 -16.035   5.086  1.00  0.00    -0.338 N 
HETATM   24  H   UNL     1      40.215 -16.047   5.648  1.00  0.00     0.168 HD
BRANCH  23  25
HETATM   25  C   UNL     1      42.138 -16.456   5.801  1.00  0.00     0.151 C 
HETATM   26  S   UNL     1      42.706 -15.897   7.265  1.00  0.00    -0.047 SA
BRANCH  25  27
HETATM   27  N   UNL     1      42.754 -17.572   5.277  1.00  0.00    -0.265 NA
HETATM   28  H   UNL     1      42.913 -18.219   6.043  1.00  0.00     0.130 HD
BRANCH  27  29
HETATM   29  C   UNL     1      43.904 -17.559   4.347  1.00  0.00     0.062 C 
HETATM   30  C   UNL     1      44.658 -18.898   4.464  1.00  0.00     0.020 C 
HETATM   31  C   UNL     1      43.889 -20.054   3.819  1.00  0.00     0.002 C 
HETATM   32  C   UNL     1      43.537 -19.761   2.364  1.00  0.00     0.000 C 
HETATM   33  C   UNL     1      42.809 -18.428   2.216  1.00  0.00     0.002 C 
HETATM   34  C   UNL     1      43.599 -17.293   2.864  1.00  0.00     0.020 C 
ENDBRANCH  27  29
ENDBRANCH  25  27
ENDBRANCH  23  25
ENDBRANCH   5  23
TORSDOF 9
ENDMDL
MODEL 7
REMARK VINA RESULT:      -7.2      6.440      9.968
REMARK  9 active torsions:
REMARK  status: ('A' for Active; 'I' for Inactive)
REMARK    1  A    between atoms: C_2  and  C_3 
REMARK       I    between atoms: C_3  and  N_4 
REMARK    2  A    between atoms: N_4  and  N_5 
REMARK    3  A    between atoms: N_5  and  C_6 
REMARK    4  A    between atoms: C_6  and  N_7 
REMARK    5  A    between atoms: N_7  and  C_8 
REMARK    6  A    between atoms: C_18  and  N_19 
REMARK    7  A    between atoms: N_19  and  C_20 
REMARK    8  A    between atoms: C_20  and  N_21 
REMARK    9  A    between atoms: N_21  and  C_22 
ROOT
HETATM    1  C   UNL     1      41.898 -12.280   5.900  1.00  0.00     0.019 A 
HETATM    2  C   UNL     1      43.218 -11.824   5.957  1.00  0.00     0.033 A 
HETATM    3  C   UNL     1      43.873 -11.492   4.765  1.00  0.00     0.019 A 
HETATM    4  C   UNL     1      43.229 -11.639   3.528  1.00  0.00     0.030 A 
HETATM    5  C   UNL     1      41.924 -12.125   3.466  1.00  0.00     0.033 A 
HETATM    6  C   UNL     1      41.262 -12.429   4.663  1.00  0.00     0.030 A 
ENDROOT
BRANCH   2   7
HETATM    7  C   UNL     1      43.945 -11.638   7.246  1.00  0.00     0.270 C 
HETATM    8  N   UNL     1      43.223 -11.093   8.290  1.00  0.00    -0.264 N 
HETATM    9  H   UNL     1      42.255 -10.797   8.231  1.00  0.00     0.190 HD
HETATM   10  O   UNL     1      45.122 -11.969   7.361  1.00  0.00    -0.266 OA
BRANCH   8  11
HETATM   11  N   UNL     1      43.900 -10.755   9.470  1.00  0.00    -0.274 N 
HETATM   12  H   UNL     1      44.625 -11.420   9.718  1.00  0.00     0.189 HD
BRANCH  11  13
HETATM   13  C   UNL     1      44.113  -9.448   9.788  1.00  0.00     0.186 C 
HETATM   14  S   UNL     1      44.564  -8.257   8.697  1.00  0.00    -0.040 SA
BRANCH  13  15
HETATM   15  N   UNL     1      43.885  -9.067  11.070  1.00  0.00    -0.361 N 
HETATM   16  H   UNL     1      44.735  -9.106  11.623  1.00  0.00     0.162 HD
BRANCH  15  17
HETATM   17  C   UNL     1      42.759  -8.388  11.726  1.00  0.00     0.083 C 
HETATM   18  C   UNL     1      41.392  -8.995  11.381  1.00  0.00     0.025 C 
HETATM   19  C   UNL     1      40.784  -9.884  12.459  1.00  0.00     0.002 C 
HETATM   20  C   UNL     1      40.820  -9.211  13.820  1.00  0.00     0.000 C 
HETATM   21  C   UNL     1      42.245  -8.880  14.237  1.00  0.00     0.002 C 
HETATM   22  C   UNL     1      42.989  -8.038  13.204  1.00  0.00     0.025 C 
ENDBRANCH  15  17
ENDBRANCH  13  15
ENDBRANCH  11  13
ENDBRANCH   8  11
ENDBRANCH   2   7
BRANCH   5  23
HETATM   23  N   UNL     1      41.171 -12.265   2.286  1.00  0.00    -0.338 N 
HETATM   24  H   UNL     1      40.255 -11.841   2.314  1.00  0.00     0.168 HD
BRANCH  23  25
HETATM   25  C   UNL     1      41.328 -13.036   1.171  1.00  0.00     0.151 C 
HETATM   26  S   UNL     1      40.638 -12.849  -0.335  1.00  0.00    -0.047 SA
BRANCH  25  27
HETATM   27  N   UNL     1      42.281 -14.022   1.303  1.00  0.00    -0.265 NA
HETATM   28  H   UNL     1      43.042 -13.795   0.669  1.00  0.00     0.130 HD
BRANCH  27  29
HETATM   29  C   UNL     1      42.015 -15.477   1.309  1.00  0.00     0.062 C 
HETATM   30  C   UNL     1      43.186 -16.199   2.003  1.00  0.00     0.020 C 
HETATM   31  C   UNL     1      43.182 -15.984   3.519  1.00  0.00     0.002 C 
HETATM   32  C   UNL     1      41.853 -16.392   4.147  1.00  0.00     0.000 C 
HETATM   33  C   UNL     1      40.672 -15.709   3.463  1.00  0.00     0.002 C 
HETATM   34  C   UNL     1      40.699 -15.941   1.954  1.00  0.00     0.020 C 
ENDBRANCH  27  29
ENDBRANCH  25  27
ENDBRANCH  23  25
ENDBRANCH   5  23
TORSDOF 9
ENDMDL
MODEL 8
REMARK VINA RESULT:      -7.2      7.665     11.225
REMARK  9 active torsions:
REMARK  status: ('A' for Active; 'I' for Inactive)
REMARK    1  A    between atoms: C_2  and  C_3 
REMARK       I    between atoms: C_3  and  N_4 
REMARK    2  A    between atoms: N_4  and  N_5 
REMARK    3  A    between atoms: N_5  and  C_6 
REMARK    4  A    between atoms: C_6  and  N_7 
REMARK    5  A    between atoms: N_7  and  C_8 
REMARK    6  A    between atoms: C_18  and  N_19 
REMARK    7  A    between atoms: N_19  and  C_20 
REMARK    8  A    between atoms: C_20  and  N_21 
REMARK    9  A    between atoms: N_21  and  C_22 
ROOT
HETATM    1  C   UNL     1      42.371  -9.671   8.187  1.00  0.00     0.019 A 
HETATM    2  C   UNL     1      43.725  -9.998   8.062  1.00  0.00     0.033 A 
HETATM    3  C   UNL     1      44.687  -9.050   8.431  1.00  0.00     0.019 A 
HETATM    4  C   UNL     1      44.306  -7.783   8.894  1.00  0.00     0.030 A 
HETATM    5  C   UNL     1      42.957  -7.444   8.987  1.00  0.00     0.033 A 
HETATM    6  C   UNL     1      41.996  -8.404   8.645  1.00  0.00     0.030 A 
ENDROOT
BRANCH   2   7
HETATM    7  C   UNL     1      44.184 -11.335   7.587  1.00  0.00     0.270 C 
HETATM    8  N   UNL     1      43.206 -12.204   7.147  1.00  0.00    -0.264 N 
HETATM    9  H   UNL     1      42.212 -12.004   7.146  1.00  0.00     0.190 HD
HETATM   10  O   UNL     1      45.377 -11.628   7.583  1.00  0.00    -0.266 OA
BRANCH   8  11
HETATM   11  N   UNL     1      43.569 -13.523   6.839  1.00  0.00    -0.274 N 
HETATM   12  H   UNL     1      44.146 -13.955   7.553  1.00  0.00     0.189 HD
BRANCH  11  13
HETATM   13  C   UNL     1      42.710 -14.330   6.156  1.00  0.00     0.186 C 
HETATM   14  S   UNL     1      41.041 -14.162   6.144  1.00  0.00    -0.040 SA
BRANCH  13  15
HETATM   15  N   UNL     1      43.245 -15.303   5.378  1.00  0.00    -0.361 N 
HETATM   16  H   UNL     1      44.251 -15.198   5.295  1.00  0.00     0.162 HD
BRANCH  15  17
HETATM   17  C   UNL     1      42.719 -16.576   4.866  1.00  0.00     0.083 C 
HETATM   18  C   UNL     1      42.291 -16.516   3.393  1.00  0.00     0.025 C 
HETATM   19  C   UNL     1      43.268 -17.143   2.406  1.00  0.00     0.002 C 
HETATM   20  C   UNL     1      43.698 -18.529   2.854  1.00  0.00     0.000 C 
HETATM   21  C   UNL     1      44.374 -18.487   4.216  1.00  0.00     0.002 C 
HETATM   22  C   UNL     1      43.516 -17.820   5.287  1.00  0.00     0.025 C 
ENDBRANCH  15  17
ENDBRANCH  13  15
ENDBRANCH  11  13
ENDBRANCH   8  11
ENDBRANCH   2   7
BRANCH   5  23
HETATM   23  N   UNL     1      42.466  -6.221   9.483  1.00  0.00    -0.338 N 
HETATM   24  H   UNL     1      42.549  -5.441   8.848  1.00  0.00     0.168 HD
BRANCH  23  25
HETATM   25  C   UNL     1      42.084  -5.811  10.728  1.00  0.00     0.151 C 
HETATM   26  S   UNL     1      42.336  -4.337  11.465  1.00  0.00    -0.047 SA
BRANCH  25  27
HETATM   27  N   UNL     1      41.284  -6.714  11.393  1.00  0.00    -0.265 NA
HETATM   28  H   UNL     1      40.332  -6.362  11.352  1.00  0.00     0.130 HD
BRANCH  27  29
HETATM   29  C   UNL     1      41.574  -7.304  12.718  1.00  0.00     0.062 C 
HETATM   30  C   UNL     1      40.655  -8.520  12.938  1.00  0.00     0.020 C 
HETATM   31  C   UNL     1      41.070  -9.722  12.085  1.00  0.00     0.002 C 
HETATM   32  C   UNL     1      42.530 -10.104  12.313  1.00  0.00     0.000 C 
HETATM   33  C   UNL     1      43.462  -8.910  12.124  1.00  0.00     0.002 C 
HETATM   34  C   UNL     1      43.027  -7.729  12.988  1.00  0.00     0.020 C 
ENDBRANCH  27  29
ENDBRANCH  25  27
ENDBRANCH  23  25
ENDBRANCH   5  23
TORSDOF 9
ENDMDL
MODEL 9
REMARK VINA RESULT:      -7.2      5.723      9.149
REMARK  9 active torsions:
REMARK  status: ('A' for Active; 'I' for Inactive)
REMARK    1  A    between atoms: C_2  and  C_3 
REMARK       I    between atoms: C_3  and  N_4 
REMARK    2  A    between atoms: N_4  and  N_5 
REMARK    3  A    between atoms: N_5  and  C_6 
REMARK    4  A    between atoms: C_6  and  N_7 
REMARK    5  A    between atoms: N_7  and  C_8 
REMARK    6  A    between atoms: C_18  and  N_19 
REMARK    7  A    between atoms: N_19  and  C_20 
REMARK    8  A    between atoms: C_20  and  N_21 
REMARK    9  A    between atoms: N_21  and  C_22 
ROOT
HETATM    1  C   UNL     1      42.019 -11.141   5.643  1.00  0.00     0.019 A 
HETATM    2  C   UNL     1      41.993 -12.477   5.234  1.00  0.00     0.033 A 
HETATM    3  C   UNL     1      42.780 -13.410   5.920  1.00  0.00     0.019 A 
HETATM    4  C   UNL     1      43.603 -13.013   6.983  1.00  0.00     0.030 A 
HETATM    5  C   UNL     1      43.655 -11.674   7.370  1.00  0.00     0.033 A 
HETATM    6  C   UNL     1      42.845 -10.748   6.702  1.00  0.00     0.030 A 
ENDROOT
BRANCH   2   7
HETATM    7  C   UNL     1      41.126 -12.955   4.119  1.00  0.00     0.270 C 
HETATM    8  N   UNL     1      40.330 -14.053   4.381  1.00  0.00    -0.264 N 
HETATM    9  H   UNL     1      40.313 -14.558   5.259  1.00  0.00     0.190 HD
HETATM   10  O   UNL     1      41.123 -12.384   3.031  1.00  0.00    -0.266 OA
BRANCH   8  11
HETATM   11  N   UNL     1      39.618 -14.633   3.322  1.00  0.00    -0.274 N 
HETATM   12  H   UNL     1      38.848 -14.059   2.997  1.00  0.00     0.189 HD
BRANCH  11  13
HETATM   13  C   UNL     1      40.265 -15.396   2.397  1.00  0.00     0.186 C 
HETATM   14  S   UNL     1      40.195 -15.156   0.738  1.00  0.00    -0.040 SA
BRANCH  13  15
HETATM   15  N   UNL     1      41.076 -16.384   2.851  1.00  0.00    -0.361 N 
HETATM   16  H   UNL     1      40.549 -17.226   3.059  1.00  0.00     0.162 HD
BRANCH  15  17
HETATM   17  C   UNL     1      42.535 -16.558   2.855  1.00  0.00     0.083 C 
HETATM   18  C   UNL     1      43.167 -16.408   4.246  1.00  0.00     0.025 C 
HETATM   19  C   UNL     1      43.550 -17.715   4.930  1.00  0.00     0.002 C 
HETATM   20  C   UNL     1      44.342 -18.618   4.000  1.00  0.00     0.000 C 
HETATM   21  C   UNL     1      43.546 -18.962   2.750  1.00  0.00     0.002 C 
HETATM   22  C   UNL     1      43.048 -17.728   2.002  1.00  0.00     0.025 C 
ENDBRANCH  15  17
ENDBRANCH  13  15
ENDBRANCH  11  13
ENDBRANCH   8  11
ENDBRANCH   2   7
BRANCH   5  23
HETATM   23  N   UNL     1      44.408 -11.177   8.451  1.00  0.00    -0.338 N 
HETATM   24  H   UNL     1      44.418 -11.769   9.268  1.00  0.00     0.168 HD
BRANCH  23  25
HETATM   25  C   UNL     1      44.963  -9.958   8.711  1.00  0.00     0.151 C 
HETATM   26  S   UNL     1      46.314  -9.257   8.029  1.00  0.00    -0.047 SA
BRANCH  25  27
HETATM   27  N   UNL     1      44.219  -9.176   9.568  1.00  0.00    -0.265 NA
HETATM   28  H   UNL     1      44.869  -8.709  10.193  1.00  0.00     0.130 HD
BRANCH  27  29
HETATM   29  C   UNL     1      43.008  -9.615  10.295  1.00  0.00     0.062 C 
HETATM   30  C   UNL     1      43.316  -9.655  11.804  1.00  0.00     0.020 C 
HETATM   31  C   UNL     1      43.421  -8.253  12.412  1.00  0.00     0.002 C 
HETATM   32  C   UNL     1      42.171  -7.422  12.141  1.00  0.00     0.000 C 
HETATM   33  C   UNL     1      41.829  -7.384  10.654  1.00  0.00     0.002 C 
HETATM   34  C   UNL     1      41.727  -8.793  10.075  1.00  0.00     0.020 C 
ENDBRANCH  27  29
ENDBRANCH  25  27
ENDBRANCH  23  25
ENDBRANCH   5  23
TORSDOF 9
ENDMDL
MODEL 10
REMARK VINA RESULT:      -7.1      1.859      2.431
REMARK  9 active torsions:
REMARK  status: ('A' for Active; 'I' for Inactive)
REMARK    1  A    between atoms: C_2  and  C_3 
REMARK       I    between atoms: C_3  and  N_4 
REMARK    2  A    between atoms: N_4  and  N_5 
REMARK    3  A    between atoms: N_5  and  C_6 
REMARK    4  A    between atoms: C_6  and  N_7 
REMARK    5  A    between atoms: N_7  and  C_8 
REMARK    6  A    between atoms: C_18  and  N_19 
REMARK    7  A    between atoms: N_19  and  C_20 
REMARK    8  A    between atoms: C_20  and  N_21 
REMARK    9  A    between atoms: N_21  and  C_22 
ROOT
HETATM    1  C   UNL     1      40.448 -15.493   2.415  1.00  0.00     0.019 A 
HETATM    2  C   UNL     1      41.227 -14.420   1.972  1.00  0.00     0.033 A 
HETATM    3  C   UNL     1      42.287 -13.977   2.772  1.00  0.00     0.019 A 
HETATM    4  C   UNL     1      42.551 -14.578   4.011  1.00  0.00     0.030 A 
HETATM    5  C   UNL     1      41.755 -15.626   4.469  1.00  0.00     0.033 A 
HETATM    6  C   UNL     1      40.713 -16.087   3.654  1.00  0.00     0.030 A 
ENDROOT
BRANCH   2   7
HETATM    7  C   UNL     1      40.996 -13.754   0.658  1.00  0.00     0.270 C 
HETATM    8  N   UNL     1      40.620 -14.569  -0.391  1.00  0.00    -0.264 N 
HETATM    9  H   UNL     1      40.513 -15.575  -0.333  1.00  0.00     0.190 HD
HETATM   10  O   UNL     1      41.127 -12.538   0.534  1.00  0.00    -0.266 OA
BRANCH   8  11
HETATM   11  N   UNL     1      40.544 -14.015  -1.677  1.00  0.00    -0.274 N 
HETATM   12  H   UNL     1      41.218 -14.412  -2.323  1.00  0.00     0.189 HD
BRANCH  11  13
HETATM   13  C   UNL     1      39.342 -13.626  -2.187  1.00  0.00     0.186 C 
HETATM   14  S   UNL     1      38.364 -14.573  -3.166  1.00  0.00    -0.040 SA
BRANCH  13  15
HETATM   15  N   UNL     1      38.870 -12.406  -1.826  1.00  0.00    -0.361 N 
HETATM   16  H   UNL     1      38.931 -12.269  -0.823  1.00  0.00     0.162 HD
BRANCH  15  17
HETATM   17  C   UNL     1      38.545 -11.195  -2.591  1.00  0.00     0.083 C 
HETATM   18  C   UNL     1      37.646 -10.210  -1.829  1.00  0.00     0.025 C 
HETATM   19  C   UNL     1      38.360  -8.998  -1.243  1.00  0.00     0.002 C 
HETATM   20  C   UNL     1      39.254  -8.328  -2.273  1.00  0.00     0.000 C 
HETATM   21  C   UNL     1      40.313  -9.286  -2.795  1.00  0.00     0.002 C 
HETATM   22  C   UNL     1      39.725 -10.578  -3.356  1.00  0.00     0.025 C 
ENDBRANCH  15  17
ENDBRANCH  13  15
ENDBRANCH  11  13
ENDBRANCH   8  11
ENDBRANCH   2   7
BRANCH   5  23
HETATM   23  N   UNL     1      41.962 -16.330   5.670  1.00  0.00    -0.338 N 
HETATM   24  H   UNL     1      41.291 -16.133   6.399  1.00  0.00     0.168 HD
BRANCH  23  25
HETATM   25  C   UNL     1      43.004 -17.075   6.142  1.00  0.00     0.151 C 
HETATM   26  S   UNL     1      43.918 -16.841   7.516  1.00  0.00    -0.047 SA
BRANCH  25  27
HETATM   27  N   UNL     1      43.229 -18.234   5.431  1.00  0.00    -0.265 NA
HETATM   28  H   UNL     1      43.184 -19.006   6.089  1.00  0.00     0.130 HD
BRANCH  27  29
HETATM   29  C   UNL     1      44.314 -18.439   4.447  1.00  0.00     0.062 C 
HETATM   30  C   UNL     1      44.657 -19.939   4.383  1.00  0.00     0.020 C 
HETATM   31  C   UNL     1      43.576 -20.751   3.665  1.00  0.00     0.002 C 
HETATM   32  C   UNL     1      43.289 -20.207   2.270  1.00  0.00     0.000 C 
HETATM   33  C   UNL     1      42.968 -18.715   2.300  1.00  0.00     0.002 C 
HETATM   34  C   UNL     1      44.063 -17.930   3.017  1.00  0.00     0.020 C 
ENDBRANCH  27  29
ENDBRANCH  25  27
ENDBRANCH  23  25
ENDBRANCH   5  23
TORSDOF 9
ENDMDL
