MODEL 1
REMARK VINA RESULT:     -10.3      0.000      0.000
REMARK  8 active torsions:
REMARK  status: ('A' for Active; 'I' for Inactive)
REMARK    1  A    between atoms: O_2  and  C_3 
REMARK    2  A    between atoms: C_4  and  C_5 
REMARK    3  A    between atoms: N_6  and  N_7 
REMARK    4  A    between atoms: C_18  and  C_19 
REMARK       I    between atoms: C_19  and  N_20 
REMARK    5  A    between atoms: N_20  and  C_21 
REMARK    6  A    between atoms: C_21  and  C_22 
REMARK    7  A    between atoms: C_22  and  C_23 
REMARK    8  A    between atoms: C_30  and  N_31 
ROOT
HETATM    1  N   UNL     1      41.058 -15.300   2.407  1.00  0.00    -0.202 N 
HETATM    2  C   UNL     1      40.653 -14.633   1.268  1.00  0.00     0.183 A 
HETATM    3  C   UNL     1      41.054 -13.308   1.423  1.00  0.00     0.124 A 
HETATM    4  N   UNL     1      40.866 -12.401   0.434  1.00  0.00    -0.242 NA
HETATM    5  C   UNL     1      40.223 -12.864  -0.645  1.00  0.00     0.086 A 
HETATM    6  C   UNL     1      39.814 -14.217  -0.776  1.00  0.00     0.088 A 
HETATM    7  N   UNL     1      40.053 -15.147   0.168  1.00  0.00    -0.225 NA
HETATM    8  C   UNL     1      39.940 -11.964  -1.666  1.00  0.00     0.034 A 
HETATM    9  C   UNL     1      39.250 -12.357  -2.813  1.00  0.00     0.002 A 
HETATM   10  C   UNL     1      38.838 -13.675  -2.942  1.00  0.00     0.002 A 
HETATM   11  C   UNL     1      39.129 -14.591  -1.927  1.00  0.00     0.034 A 
HETATM   12  C   UNL     1      41.667 -13.172   2.701  1.00  0.00     0.104 C 
HETATM   13  C   UNL     1      41.403 -14.357   3.370  1.00  0.00     0.123 C 
ENDROOT
BRANCH  12  14
HETATM   14  C   UNL     1      42.485 -12.061   3.170  1.00  0.00     0.257 C 
HETATM   15  N   UNL     1      42.877 -12.157   4.488  1.00  0.00    -0.356 N 
HETATM   16  H   UNL     1      42.721 -13.074   4.893  1.00  0.00     0.162 HD
HETATM   17  O   UNL     1      42.875 -11.183   2.409  1.00  0.00    -0.267 OA
BRANCH  15  18
HETATM   18  C   UNL     1      43.966 -11.393   5.066  1.00  0.00     0.127 C 
BRANCH  18  19
HETATM   19  C   UNL     1      44.662 -11.973   6.305  1.00  0.00     0.053 C 
BRANCH  19  20
HETATM   20  C   UNL     1      44.854 -11.016   7.462  1.00  0.00    -0.082 C 
HETATM   21  C   UNL     1      43.842 -11.062   8.579  1.00  0.00     0.034 C 
HETATM   22  C   UNL     1      43.944  -9.871   9.540  1.00  0.00     0.005 C 
HETATM   23  C   UNL     1      45.395  -9.543   9.872  1.00  0.00     0.004 C 
HETATM   24  C   UNL     1      46.189  -9.220   8.609  1.00  0.00     0.027 C 
HETATM   25  C   UNL     1      45.905 -10.176   7.493  1.00  0.00    -0.024 C 
ENDBRANCH  19  20
ENDBRANCH  18  19
ENDBRANCH  15  18
ENDBRANCH  12  14
BRANCH  13  26
HETATM   26  N   UNL     1      41.622 -14.749   4.669  1.00  0.00    -0.286 NA
HETATM   27  H   UNL     1      41.231 -14.121   5.374  1.00  0.00     0.125 HD
HETATM   28  H   UNL     1      41.230 -15.680   4.866  1.00  0.00     0.125 HD
ENDBRANCH  13  26
BRANCH   1  29
HETATM   29  N   UNL     1      41.314 -16.631   2.628  1.00  0.00    -0.176 NA
HETATM   30  C   UNL     1      42.545 -16.914   2.317  1.00  0.00     0.153 C 
BRANCH  30  31
HETATM   31  C   UNL     1      43.226 -18.124   2.830  1.00  0.00     0.016 A 
HETATM   32  C   UNL     1      43.824 -18.094   4.103  1.00  0.00     0.080 A 
HETATM   33  C   UNL     1      44.279 -19.294   4.661  1.00  0.00     0.037 A 
HETATM   34  C   UNL     1      44.137 -20.499   3.965  1.00  0.00     0.003 A 
HETATM   35  C   UNL     1      43.557 -20.516   2.698  1.00  0.00     0.001 A 
HETATM   36  C   UNL     1      43.101 -19.330   2.127  1.00  0.00     0.016 A 
BRANCH  32  37
HETATM   37  O   UNL     1      43.896 -16.875   4.726  1.00  0.00    -0.355 OA
HETATM   38  C   UNL     1      44.296 -16.846   6.090  1.00  0.00     0.210 C 
ENDBRANCH  32  37
ENDBRANCH  30  31
ENDBRANCH   1  29
TORSDOF 8
ENDMDL
MODEL 2
REMARK VINA RESULT:      -9.7      1.737      6.203
REMARK  8 active torsions:
REMARK  status: ('A' for Active; 'I' for Inactive)
REMARK    1  A    between atoms: O_2  and  C_3 
REMARK    2  A    between atoms: C_4  and  C_5 
REMARK    3  A    between atoms: N_6  and  N_7 
REMARK    4  A    between atoms: C_18  and  C_19 
REMARK       I    between atoms: C_19  and  N_20 
REMARK    5  A    between atoms: N_20  and  C_21 
REMARK    6  A    between atoms: C_21  and  C_22 
REMARK    7  A    between atoms: C_22  and  C_23 
REMARK    8  A    between atoms: C_30  and  N_31 
ROOT
HETATM    1  N   UNL     1      42.781 -15.121   2.206  1.00  0.00    -0.202 N 
HETATM    2  C   UNL     1      43.095 -16.330   2.795  1.00  0.00     0.183 A 
HETATM    3  C   UNL     1      43.256 -16.077   4.154  1.00  0.00     0.124 A 
HETATM    4  N   UNL     1      43.501 -17.084   5.029  1.00  0.00    -0.242 NA
HETATM    5  C   UNL     1      43.634 -18.295   4.475  1.00  0.00     0.086 A 
HETATM    6  C   UNL     1      43.476 -18.527   3.084  1.00  0.00     0.088 A 
HETATM    7  N   UNL     1      43.165 -17.550   2.210  1.00  0.00    -0.225 NA
HETATM    8  C   UNL     1      43.953 -19.358   5.311  1.00  0.00     0.034 A 
HETATM    9  C   UNL     1      44.137 -20.647   4.813  1.00  0.00     0.002 A 
HETATM   10  C   UNL     1      43.995 -20.879   3.453  1.00  0.00     0.002 A 
HETATM   11  C   UNL     1      43.661 -19.820   2.604  1.00  0.00     0.034 A 
HETATM   12  C   UNL     1      43.082 -14.681   4.374  1.00  0.00     0.104 C 
HETATM   13  C   UNL     1      43.059 -14.105   3.114  1.00  0.00     0.123 C 
ENDROOT
BRANCH  12  14
HETATM   14  C   UNL     1      42.871 -14.011   5.651  1.00  0.00     0.257 C 
HETATM   15  N   UNL     1      43.739 -12.968   5.899  1.00  0.00    -0.356 N 
HETATM   16  H   UNL     1      44.267 -12.676   5.083  1.00  0.00     0.162 HD
HETATM   17  O   UNL     1      41.927 -14.294   6.378  1.00  0.00    -0.267 OA
BRANCH  15  18
HETATM   18  C   UNL     1      43.505 -11.942   6.897  1.00  0.00     0.127 C 
BRANCH  18  19
HETATM   19  C   UNL     1      44.732 -11.327   7.584  1.00  0.00     0.053 C 
BRANCH  19  20
HETATM   20  C   UNL     1      44.448 -10.213   8.569  1.00  0.00    -0.082 C 
HETATM   21  C   UNL     1      43.721  -8.997   8.055  1.00  0.00     0.034 C 
HETATM   22  C   UNL     1      43.749  -7.814   9.031  1.00  0.00     0.005 C 
HETATM   23  C   UNL     1      43.505  -8.268  10.466  1.00  0.00     0.004 C 
HETATM   24  C   UNL     1      44.552  -9.289  10.905  1.00  0.00     0.027 C 
HETATM   25  C   UNL     1      44.818 -10.325   9.858  1.00  0.00    -0.024 C 
ENDBRANCH  19  20
ENDBRANCH  18  19
ENDBRANCH  15  18
ENDBRANCH  12  14
BRANCH  13  26
HETATM   26  N   UNL     1      43.052 -12.793   2.701  1.00  0.00    -0.286 NA
HETATM   27  H   UNL     1      42.696 -12.648   1.754  1.00  0.00     0.125 HD
HETATM   28  H   UNL     1      42.483 -12.195   3.315  1.00  0.00     0.125 HD
ENDBRANCH  13  26
BRANCH   1  29
HETATM   29  N   UNL     1      42.125 -14.833   1.035  1.00  0.00    -0.176 NA
HETATM   30  C   UNL     1      40.837 -14.851   1.219  1.00  0.00     0.153 C 
BRANCH  30  31
HETATM   31  C   UNL     1      39.901 -14.184   0.287  1.00  0.00     0.016 A 
HETATM   32  C   UNL     1      39.550 -12.839   0.505  1.00  0.00     0.080 A 
HETATM   33  C   UNL     1      38.836 -12.162  -0.489  1.00  0.00     0.037 A 
HETATM   34  C   UNL     1      38.482 -12.810  -1.677  1.00  0.00     0.003 A 
HETATM   35  C   UNL     1      38.822 -14.146  -1.877  1.00  0.00     0.001 A 
HETATM   36  C   UNL     1      39.531 -14.837  -0.896  1.00  0.00     0.016 A 
BRANCH  32  37
HETATM   37  O   UNL     1      39.962 -12.274   1.683  1.00  0.00    -0.355 OA
HETATM   38  C   UNL     1      38.964 -11.871   2.614  1.00  0.00     0.210 C 
ENDBRANCH  32  37
ENDBRANCH  30  31
ENDBRANCH   1  29
TORSDOF 8
ENDMDL
MODEL 3
REMARK VINA RESULT:      -9.6      1.956      8.340
REMARK  8 active torsions:
REMARK  status: ('A' for Active; 'I' for Inactive)
REMARK    1  A    between atoms: O_2  and  C_3 
REMARK    2  A    between atoms: C_4  and  C_5 
REMARK    3  A    between atoms: N_6  and  N_7 
REMARK    4  A    between atoms: C_18  and  C_19 
REMARK       I    between atoms: C_19  and  N_20 
REMARK    5  A    between atoms: N_20  and  C_21 
REMARK    6  A    between atoms: C_21  and  C_22 
REMARK    7  A    between atoms: C_22  and  C_23 
REMARK    8  A    between atoms: C_30  and  N_31 
ROOT
HETATM    1  N   UNL     1      42.365 -13.885   5.877  1.00  0.00    -0.202 N 
HETATM    2  C   UNL     1      42.583 -15.023   5.125  1.00  0.00     0.183 A 
HETATM    3  C   UNL     1      41.678 -14.977   4.068  1.00  0.00     0.124 A 
HETATM    4  N   UNL     1      41.686 -15.925   3.099  1.00  0.00    -0.242 NA
HETATM    5  C   UNL     1      42.572 -16.913   3.280  1.00  0.00     0.086 A 
HETATM    6  C   UNL     1      43.478 -16.943   4.373  1.00  0.00     0.088 A 
HETATM    7  N   UNL     1      43.529 -15.975   5.308  1.00  0.00    -0.225 NA
HETATM    8  C   UNL     1      42.583 -17.951   2.357  1.00  0.00     0.034 A 
HETATM    9  C   UNL     1      43.454 -19.032   2.486  1.00  0.00     0.002 A 
HETATM   10  C   UNL     1      44.334 -19.074   3.558  1.00  0.00     0.002 A 
HETATM   11  C   UNL     1      44.341 -18.028   4.485  1.00  0.00     0.034 A 
HETATM   12  C   UNL     1      40.871 -13.813   4.218  1.00  0.00     0.104 C 
HETATM   13  C   UNL     1      41.154 -13.324   5.484  1.00  0.00     0.123 C 
ENDROOT
BRANCH  12  14
HETATM   14  C   UNL     1      40.007 -13.207   3.214  1.00  0.00     0.257 C 
HETATM   15  N   UNL     1      40.406 -11.955   2.797  1.00  0.00    -0.356 N 
HETATM   16  H   UNL     1      41.347 -11.711   3.086  1.00  0.00     0.162 HD
HETATM   17  O   UNL     1      39.073 -13.822   2.713  1.00  0.00    -0.267 OA
BRANCH  15  18
HETATM   18  C   UNL     1      39.939 -11.321   1.579  1.00  0.00     0.127 C 
BRANCH  18  19
HETATM   19  C   UNL     1      40.584 -11.762   0.257  1.00  0.00     0.053 C 
BRANCH  19  20
HETATM   20  C   UNL     1      39.704 -12.572  -0.669  1.00  0.00    -0.082 C 
HETATM   21  C   UNL     1      38.585 -11.850  -1.377  1.00  0.00     0.034 C 
HETATM   22  C   UNL     1      37.578 -12.794  -2.043  1.00  0.00     0.005 C 
HETATM   23  C   UNL     1      38.278 -13.947  -2.755  1.00  0.00     0.004 C 
HETATM   24  C   UNL     1      39.134 -14.754  -1.782  1.00  0.00     0.027 C 
HETATM   25  C   UNL     1      39.933 -13.884  -0.863  1.00  0.00    -0.024 C 
ENDBRANCH  19  20
ENDBRANCH  18  19
ENDBRANCH  15  18
ENDBRANCH  12  14
BRANCH  13  26
HETATM   26  N   UNL     1      40.590 -12.315   6.227  1.00  0.00    -0.286 NA
HETATM   27  H   UNL     1      40.443 -12.544   7.212  1.00  0.00     0.125 HD
HETATM   28  H   UNL     1      41.160 -11.458   6.216  1.00  0.00     0.125 HD
ENDBRANCH  13  26
BRANCH   1  29
HETATM   29  N   UNL     1      43.188 -13.204   6.739  1.00  0.00    -0.176 NA
HETATM   30  C   UNL     1      43.855 -12.287   6.101  1.00  0.00     0.153 C 
BRANCH  30  31
HETATM   31  C   UNL     1      44.482 -11.143   6.800  1.00  0.00     0.016 A 
HETATM   32  C   UNL     1      43.664 -10.173   7.410  1.00  0.00     0.080 A 
HETATM   33  C   UNL     1      44.261  -9.217   8.239  1.00  0.00     0.037 A 
HETATM   34  C   UNL     1      45.642  -9.229   8.458  1.00  0.00     0.003 A 
HETATM   35  C   UNL     1      46.445 -10.184   7.838  1.00  0.00     0.001 A 
HETATM   36  C   UNL     1      45.868 -11.142   7.007  1.00  0.00     0.016 A 
BRANCH  32  37
HETATM   37  O   UNL     1      42.319 -10.253   7.163  1.00  0.00    -0.355 OA
HETATM   38  C   UNL     1      41.487  -9.214   7.663  1.00  0.00     0.210 C 
ENDBRANCH  32  37
ENDBRANCH  30  31
ENDBRANCH   1  29
TORSDOF 8
ENDMDL
MODEL 4
REMARK VINA RESULT:      -9.6      3.456      6.255
REMARK  8 active torsions:
REMARK  status: ('A' for Active; 'I' for Inactive)
REMARK    1  A    between atoms: O_2  and  C_3 
REMARK    2  A    between atoms: C_4  and  C_5 
REMARK    3  A    between atoms: N_6  and  N_7 
REMARK    4  A    between atoms: C_18  and  C_19 
REMARK       I    between atoms: C_19  and  N_20 
REMARK    5  A    between atoms: N_20  and  C_21 
REMARK    6  A    between atoms: C_21  and  C_22 
REMARK    7  A    between atoms: C_22  and  C_23 
REMARK    8  A    between atoms: C_30  and  N_31 
ROOT
HETATM    1  N   UNL     1      41.577 -13.003   5.329  1.00  0.00    -0.202 N 
HETATM    2  C   UNL     1      42.539 -12.213   5.926  1.00  0.00     0.183 A 
HETATM    3  C   UNL     1      41.857 -11.196   6.589  1.00  0.00     0.124 A 
HETATM    4  N   UNL     1      42.522 -10.285   7.343  1.00  0.00    -0.242 NA
HETATM    5  C   UNL     1      43.855 -10.410   7.338  1.00  0.00     0.086 A 
HETATM    6  C   UNL     1      44.528 -11.449   6.644  1.00  0.00     0.088 A 
HETATM    7  N   UNL     1      43.880 -12.402   5.947  1.00  0.00    -0.225 NA
HETATM    8  C   UNL     1      44.596  -9.465   8.036  1.00  0.00     0.034 A 
HETATM    9  C   UNL     1      45.990  -9.504   8.060  1.00  0.00     0.002 A 
HETATM   10  C   UNL     1      46.654 -10.511   7.375  1.00  0.00     0.002 A 
HETATM   11  C   UNL     1      45.918 -11.475   6.680  1.00  0.00     0.034 A 
HETATM   12  C   UNL     1      40.464 -11.355   6.344  1.00  0.00     0.104 C 
HETATM   13  C   UNL     1      40.368 -12.316   5.349  1.00  0.00     0.123 C 
ENDROOT
BRANCH  12  14
HETATM   14  C   UNL     1      39.366 -10.715   7.057  1.00  0.00     0.257 C 
HETATM   15  N   UNL     1      39.638 -10.422   8.377  1.00  0.00    -0.356 N 
HETATM   16  H   UNL     1      40.620 -10.499   8.618  1.00  0.00     0.162 HD
HETATM   17  O   UNL     1      38.339 -10.374   6.485  1.00  0.00    -0.267 OA
BRANCH  15  18
HETATM   18  C   UNL     1      38.869  -9.481   9.171  1.00  0.00     0.127 C 
BRANCH  18  19
HETATM   19  C   UNL     1      39.639  -8.372   9.899  1.00  0.00     0.053 C 
BRANCH  19  20
HETATM   20  C   UNL     1      40.775  -8.831  10.789  1.00  0.00    -0.082 C 
HETATM   21  C   UNL     1      40.434  -9.746  11.938  1.00  0.00     0.034 C 
HETATM   22  C   UNL     1      41.578  -9.908  12.946  1.00  0.00     0.005 C 
HETATM   23  C   UNL     1      42.921 -10.074  12.245  1.00  0.00     0.004 C 
HETATM   24  C   UNL     1      43.225  -8.875  11.349  1.00  0.00     0.027 C 
HETATM   25  C   UNL     1      42.041  -8.447  10.542  1.00  0.00    -0.024 C 
ENDBRANCH  19  20
ENDBRANCH  18  19
ENDBRANCH  15  18
ENDBRANCH  12  14
BRANCH  13  26
HETATM   26  N   UNL     1      39.301 -12.780   4.617  1.00  0.00    -0.286 NA
HETATM   27  H   UNL     1      39.498 -12.928   3.626  1.00  0.00     0.125 HD
HETATM   28  H   UNL     1      38.944 -13.676   4.975  1.00  0.00     0.125 HD
ENDBRANCH  13  26
BRANCH   1  29
HETATM   29  N   UNL     1      41.612 -14.316   4.927  1.00  0.00    -0.176 NA
HETATM   30  C   UNL     1      42.559 -14.498   4.053  1.00  0.00     0.153 C 
BRANCH  30  31
HETATM   31  C   UNL     1      43.110 -15.841   3.762  1.00  0.00     0.016 A 
HETATM   32  C   UNL     1      43.778 -16.549   4.778  1.00  0.00     0.080 A 
HETATM   33  C   UNL     1      44.109 -17.890   4.555  1.00  0.00     0.037 A 
HETATM   34  C   UNL     1      43.778 -18.513   3.347  1.00  0.00     0.003 A 
HETATM   35  C   UNL     1      43.130 -17.798   2.342  1.00  0.00     0.001 A 
HETATM   36  C   UNL     1      42.795 -16.462   2.546  1.00  0.00     0.016 A 
BRANCH  32  37
HETATM   37  O   UNL     1      44.036 -15.871   5.939  1.00  0.00    -0.355 OA
HETATM   38  C   UNL     1      43.651 -16.478   7.167  1.00  0.00     0.210 C 
ENDBRANCH  32  37
ENDBRANCH  30  31
ENDBRANCH   1  29
TORSDOF 8
ENDMDL
MODEL 5
REMARK VINA RESULT:      -9.0      2.043      6.381
REMARK  8 active torsions:
REMARK  status: ('A' for Active; 'I' for Inactive)
REMARK    1  A    between atoms: O_2  and  C_3 
REMARK    2  A    between atoms: C_4  and  C_5 
REMARK    3  A    between atoms: N_6  and  N_7 
REMARK    4  A    between atoms: C_18  and  C_19 
REMARK       I    between atoms: C_19  and  N_20 
REMARK    5  A    between atoms: N_20  and  C_21 
REMARK    6  A    between atoms: C_21  and  C_22 
REMARK    7  A    between atoms: C_22  and  C_23 
REMARK    8  A    between atoms: C_30  and  N_31 
ROOT
HETATM    1  N   UNL     1      42.480 -13.216   2.167  1.00  0.00    -0.202 N 
HETATM    2  C   UNL     1      42.819 -14.467   2.643  1.00  0.00     0.183 A 
HETATM    3  C   UNL     1      43.059 -14.318   4.007  1.00  0.00     0.124 A 
HETATM    4  N   UNL     1      43.346 -15.390   4.787  1.00  0.00    -0.242 NA
HETATM    5  C   UNL     1      43.438 -16.556   4.136  1.00  0.00     0.086 A 
HETATM    6  C   UNL     1      43.200 -16.681   2.742  1.00  0.00     0.088 A 
HETATM    7  N   UNL     1      42.847 -15.639   1.964  1.00  0.00    -0.225 NA
HETATM    8  C   UNL     1      43.797 -17.680   4.870  1.00  0.00     0.034 A 
HETATM    9  C   UNL     1      43.943 -18.929   4.265  1.00  0.00     0.002 A 
HETATM   10  C   UNL     1      43.722 -19.055   2.902  1.00  0.00     0.002 A 
HETATM   11  C   UNL     1      43.348 -17.934   2.156  1.00  0.00     0.034 A 
HETATM   12  C   UNL     1      42.907 -12.943   4.342  1.00  0.00     0.104 C 
HETATM   13  C   UNL     1      42.817 -12.272   3.132  1.00  0.00     0.123 C 
ENDROOT
BRANCH  12  14
HETATM   14  C   UNL     1      42.774 -12.372   5.676  1.00  0.00     0.257 C 
HETATM   15  N   UNL     1      43.828 -12.648   6.522  1.00  0.00    -0.356 N 
HETATM   16  H   UNL     1      44.640 -13.030   6.050  1.00  0.00     0.162 HD
HETATM   17  O   UNL     1      41.852 -11.620   5.965  1.00  0.00    -0.267 OA
BRANCH  15  18
HETATM   18  C   UNL     1      44.100 -11.909   7.741  1.00  0.00     0.127 C 
BRANCH  18  19
HETATM   19  C   UNL     1      44.654 -10.485   7.599  1.00  0.00     0.053 C 
BRANCH  19  20
HETATM   20  C   UNL     1      44.268  -9.514   8.694  1.00  0.00    -0.082 C 
HETATM   21  C   UNL     1      43.620  -8.218   8.279  1.00  0.00     0.034 C 
HETATM   22  C   UNL     1      43.544  -7.186   9.411  1.00  0.00     0.005 C 
HETATM   23  C   UNL     1      43.127  -7.831  10.728  1.00  0.00     0.004 C 
HETATM   24  C   UNL     1      44.104  -8.932  11.135  1.00  0.00     0.027 C 
HETATM   25  C   UNL     1      44.481  -9.816   9.988  1.00  0.00    -0.024 C 
ENDBRANCH  19  20
ENDBRANCH  18  19
ENDBRANCH  15  18
ENDBRANCH  12  14
BRANCH  13  26
HETATM   26  N   UNL     1      42.796 -10.933   2.821  1.00  0.00    -0.286 NA
HETATM   27  H   UNL     1      41.988 -10.425   3.188  1.00  0.00     0.125 HD
HETATM   28  H   UNL     1      43.628 -10.439   3.172  1.00  0.00     0.125 HD
ENDBRANCH  13  26
BRANCH   1  29
HETATM   29  N   UNL     1      41.761 -12.838   1.061  1.00  0.00    -0.176 NA
HETATM   30  C   UNL     1      40.491 -13.051   1.250  1.00  0.00     0.153 C 
BRANCH  30  31
HETATM   31  C   UNL     1      39.453 -12.374   0.441  1.00  0.00     0.016 A 
HETATM   32  C   UNL     1      39.063 -12.932  -0.790  1.00  0.00     0.080 A 
HETATM   33  C   UNL     1      37.943 -12.404  -1.443  1.00  0.00     0.037 A 
HETATM   34  C   UNL     1      37.226 -11.345  -0.878  1.00  0.00     0.003 A 
HETATM   35  C   UNL     1      37.629 -10.789   0.335  1.00  0.00     0.001 A 
HETATM   36  C   UNL     1      38.743 -11.301   0.996  1.00  0.00     0.016 A 
BRANCH  32  37
HETATM   37  O   UNL     1      39.805 -13.985  -1.256  1.00  0.00    -0.355 OA
HETATM   38  C   UNL     1      40.172 -13.987  -2.630  1.00  0.00     0.210 C 
ENDBRANCH  32  37
ENDBRANCH  30  31
ENDBRANCH   1  29
TORSDOF 8
ENDMDL
MODEL 6
REMARK VINA RESULT:      -8.8      1.872      8.446
REMARK  8 active torsions:
REMARK  status: ('A' for Active; 'I' for Inactive)
REMARK    1  A    between atoms: O_2  and  C_3 
REMARK    2  A    between atoms: C_4  and  C_5 
REMARK    3  A    between atoms: N_6  and  N_7 
REMARK    4  A    between atoms: C_18  and  C_19 
REMARK       I    between atoms: C_19  and  N_20 
REMARK    5  A    between atoms: N_20  and  C_21 
REMARK    6  A    between atoms: C_21  and  C_22 
REMARK    7  A    between atoms: C_22  and  C_23 
REMARK    8  A    between atoms: C_30  and  N_31 
ROOT
HETATM    1  N   UNL     1      41.508 -14.738   4.862  1.00  0.00    -0.202 N 
HETATM    2  C   UNL     1      42.021 -15.931   4.391  1.00  0.00     0.183 A 
HETATM    3  C   UNL     1      41.625 -16.031   3.060  1.00  0.00     0.124 A 
HETATM    4  N   UNL     1      42.034 -17.067   2.286  1.00  0.00    -0.242 NA
HETATM    5  C   UNL     1      42.775 -17.987   2.916  1.00  0.00     0.086 A 
HETATM    6  C   UNL     1      43.157 -17.867   4.278  1.00  0.00     0.088 A 
HETATM    7  N   UNL     1      42.816 -16.812   5.043  1.00  0.00    -0.225 NA
HETATM    8  C   UNL     1      43.168 -19.107   2.193  1.00  0.00     0.034 A 
HETATM    9  C   UNL     1      43.918 -20.126   2.780  1.00  0.00     0.002 A 
HETATM   10  C   UNL     1      44.285 -20.021   4.114  1.00  0.00     0.002 A 
HETATM   11  C   UNL     1      43.906 -18.892   4.846  1.00  0.00     0.034 A 
HETATM   12  C   UNL     1      40.821 -14.900   2.744  1.00  0.00     0.104 C 
HETATM   13  C   UNL     1      40.559 -14.278   3.955  1.00  0.00     0.123 C 
ENDROOT
BRANCH  12  14
HETATM   14  C   UNL     1      40.437 -14.437   1.417  1.00  0.00     0.257 C 
HETATM   15  N   UNL     1      40.855 -13.158   1.115  1.00  0.00    -0.356 N 
HETATM   16  H   UNL     1      41.542 -12.791   1.765  1.00  0.00     0.162 HD
HETATM   17  O   UNL     1      39.887 -15.178   0.611  1.00  0.00    -0.267 OA
BRANCH  15  18
HETATM   18  C   UNL     1      40.918 -12.625  -0.233  1.00  0.00     0.127 C 
BRANCH  18  19
HETATM   19  C   UNL     1      40.200 -11.297  -0.505  1.00  0.00     0.053 C 
BRANCH  19  20
HETATM   20  C   UNL     1      39.015 -11.367  -1.444  1.00  0.00    -0.082 C 
HETATM   21  C   UNL     1      38.204 -12.639  -1.448  1.00  0.00     0.034 C 
HETATM   22  C   UNL     1      37.228 -12.733  -2.626  1.00  0.00     0.005 C 
HETATM   23  C   UNL     1      36.519 -11.405  -2.873  1.00  0.00     0.004 C 
HETATM   24  C   UNL     1      37.523 -10.291  -3.158  1.00  0.00     0.027 C 
HETATM   25  C   UNL     1      38.693 -10.320  -2.225  1.00  0.00    -0.024 C 
ENDBRANCH  19  20
ENDBRANCH  18  19
ENDBRANCH  15  18
ENDBRANCH  12  14
BRANCH  13  26
HETATM   26  N   UNL     1      39.735 -13.231   4.293  1.00  0.00    -0.286 NA
HETATM   27  H   UNL     1      39.752 -12.448   3.636  1.00  0.00     0.125 HD
HETATM   28  H   UNL     1      38.750 -13.520   4.368  1.00  0.00     0.125 HD
ENDBRANCH  13  26
BRANCH   1  29
HETATM   29  N   UNL     1      41.903 -13.937   5.905  1.00  0.00    -0.176 NA
HETATM   30  C   UNL     1      42.913 -13.197   5.551  1.00  0.00     0.153 C 
BRANCH  30  31
HETATM   31  C   UNL     1      43.280 -11.966   6.287  1.00  0.00     0.016 A 
HETATM   32  C   UNL     1      42.510 -10.801   6.114  1.00  0.00     0.080 A 
HETATM   33  C   UNL     1      42.736  -9.714   6.964  1.00  0.00     0.037 A 
HETATM   34  C   UNL     1      43.707  -9.787   7.968  1.00  0.00     0.003 A 
HETATM   35  C   UNL     1      44.475 -10.939   8.122  1.00  0.00     0.001 A 
HETATM   36  C   UNL     1      44.264 -12.030   7.283  1.00  0.00     0.016 A 
BRANCH  32  37
HETATM   37  O   UNL     1      41.561 -10.827   5.126  1.00  0.00    -0.355 OA
HETATM   38  C   UNL     1      41.809 -10.074   3.945  1.00  0.00     0.210 C 
ENDBRANCH  32  37
ENDBRANCH  30  31
ENDBRANCH   1  29
TORSDOF 8
ENDMDL
MODEL 7
REMARK VINA RESULT:      -8.8      2.661      3.359
REMARK  8 active torsions:
REMARK  status: ('A' for Active; 'I' for Inactive)
REMARK    1  A    between atoms: O_2  and  C_3 
REMARK    2  A    between atoms: C_4  and  C_5 
REMARK    3  A    between atoms: N_6  and  N_7 
REMARK    4  A    between atoms: C_18  and  C_19 
REMARK       I    between atoms: C_19  and  N_20 
REMARK    5  A    between atoms: N_20  and  C_21 
REMARK    6  A    between atoms: C_21  and  C_22 
REMARK    7  A    between atoms: C_22  and  C_23 
REMARK    8  A    between atoms: C_30  and  N_31 
ROOT
HETATM    1  N   UNL     1      40.693 -13.799   4.424  1.00  0.00    -0.202 N 
HETATM    2  C   UNL     1      40.060 -13.165   3.373  1.00  0.00     0.183 A 
HETATM    3  C   UNL     1      39.362 -12.092   3.922  1.00  0.00     0.124 A 
HETATM    4  N   UNL     1      38.688 -11.220   3.134  1.00  0.00    -0.242 NA
HETATM    5  C   UNL     1      38.700 -11.511   1.827  1.00  0.00     0.086 A 
HETATM    6  C   UNL     1      39.410 -12.617   1.291  1.00  0.00     0.088 A 
HETATM    7  N   UNL     1      40.140 -13.455   2.052  1.00  0.00    -0.225 NA
HETATM    8  C   UNL     1      37.970 -10.692   0.974  1.00  0.00     0.034 A 
HETATM    9  C   UNL     1      37.905 -10.941  -0.397  1.00  0.00     0.002 A 
HETATM   10  C   UNL     1      38.588 -12.027  -0.925  1.00  0.00     0.002 A 
HETATM   11  C   UNL     1      39.336 -12.849  -0.078  1.00  0.00     0.034 A 
HETATM   12  C   UNL     1      39.544 -12.115   5.334  1.00  0.00     0.104 C 
HETATM   13  C   UNL     1      40.145 -13.332   5.614  1.00  0.00     0.123 C 
ENDROOT
BRANCH  12  14
HETATM   14  C   UNL     1      39.252 -11.042   6.276  1.00  0.00     0.257 C 
HETATM   15  N   UNL     1      40.315 -10.680   7.077  1.00  0.00    -0.356 N 
HETATM   16  H   UNL     1      41.204 -11.058   6.768  1.00  0.00     0.162 HD
HETATM   17  O   UNL     1      38.181 -10.449   6.263  1.00  0.00    -0.267 OA
BRANCH  15  18
HETATM   18  C   UNL     1      40.385  -9.430   7.811  1.00  0.00     0.127 C 
BRANCH  18  19
HETATM   19  C   UNL     1      40.160  -9.485   9.328  1.00  0.00     0.053 C 
BRANCH  19  20
HETATM   20  C   UNL     1      41.396  -9.322  10.185  1.00  0.00    -0.082 C 
HETATM   21  C   UNL     1      42.593  -8.649   9.562  1.00  0.00     0.034 C 
HETATM   22  C   UNL     1      43.875  -8.801  10.389  1.00  0.00     0.005 C 
HETATM   23  C   UNL     1      43.608  -8.600  11.877  1.00  0.00     0.004 C 
HETATM   24  C   UNL     1      42.574  -9.600  12.389  1.00  0.00     0.027 C 
HETATM   25  C   UNL     1      41.409  -9.747  11.462  1.00  0.00    -0.024 C 
ENDBRANCH  19  20
ENDBRANCH  18  19
ENDBRANCH  15  18
ENDBRANCH  12  14
BRANCH  13  26
HETATM   26  N   UNL     1      40.435 -13.965   6.799  1.00  0.00    -0.286 NA
HETATM   27  H   UNL     1      40.061 -14.913   6.878  1.00  0.00     0.125 HD
HETATM   28  H   UNL     1      41.448 -14.043   6.960  1.00  0.00     0.125 HD
ENDBRANCH  13  26
BRANCH   1  29
HETATM   29  N   UNL     1      41.803 -14.606   4.451  1.00  0.00    -0.176 NA
HETATM   30  C   UNL     1      41.463 -15.852   4.298  1.00  0.00     0.153 C 
BRANCH  30  31
HETATM   31  C   UNL     1      42.434 -16.884   3.867  1.00  0.00     0.016 A 
HETATM   32  C   UNL     1      43.274 -17.484   4.823  1.00  0.00     0.080 A 
HETATM   33  C   UNL     1      44.035 -18.595   4.445  1.00  0.00     0.037 A 
HETATM   34  C   UNL     1      43.956 -19.100   3.143  1.00  0.00     0.003 A 
HETATM   35  C   UNL     1      43.132 -18.490   2.200  1.00  0.00     0.001 A 
HETATM   36  C   UNL     1      42.370 -17.381   2.559  1.00  0.00     0.016 A 
BRANCH  32  37
HETATM   37  O   UNL     1      43.267 -16.942   6.081  1.00  0.00    -0.355 OA
HETATM   38  C   UNL     1      44.454 -16.307   6.540  1.00  0.00     0.210 C 
ENDBRANCH  32  37
ENDBRANCH  30  31
ENDBRANCH   1  29
TORSDOF 8
ENDMDL
MODEL 8
REMARK VINA RESULT:      -8.8      3.243      9.041
REMARK  8 active torsions:
REMARK  status: ('A' for Active; 'I' for Inactive)
REMARK    1  A    between atoms: O_2  and  C_3 
REMARK    2  A    between atoms: C_4  and  C_5 
REMARK    3  A    between atoms: N_6  and  N_7 
REMARK    4  A    between atoms: C_18  and  C_19 
REMARK       I    between atoms: C_19  and  N_20 
REMARK    5  A    between atoms: N_20  and  C_21 
REMARK    6  A    between atoms: C_21  and  C_22 
REMARK    7  A    between atoms: C_22  and  C_23 
REMARK    8  A    between atoms: C_30  and  N_31 
ROOT
HETATM    1  N   UNL     1      42.922 -10.374   6.875  1.00  0.00    -0.202 N 
HETATM    2  C   UNL     1      41.975 -10.541   5.884  1.00  0.00     0.183 A 
HETATM    3  C   UNL     1      41.980 -11.894   5.558  1.00  0.00     0.124 A 
HETATM    4  N   UNL     1      41.100 -12.399   4.658  1.00  0.00    -0.242 NA
HETATM    5  C   UNL     1      40.298 -11.496   4.082  1.00  0.00     0.086 A 
HETATM    6  C   UNL     1      40.319 -10.118   4.423  1.00  0.00     0.088 A 
HETATM    7  N   UNL     1      41.139  -9.610   5.363  1.00  0.00    -0.225 NA
HETATM    8  C   UNL     1      39.420 -11.942   3.101  1.00  0.00     0.034 A 
HETATM    9  C   UNL     1      38.569 -11.063   2.431  1.00  0.00     0.002 A 
HETATM   10  C   UNL     1      38.594  -9.714   2.751  1.00  0.00     0.002 A 
HETATM   11  C   UNL     1      39.462  -9.257   3.746  1.00  0.00     0.034 A 
HETATM   12  C   UNL     1      42.982 -12.540   6.336  1.00  0.00     0.104 C 
HETATM   13  C   UNL     1      43.709 -11.519   6.928  1.00  0.00     0.123 C 
ENDROOT
BRANCH  12  14
HETATM   14  C   UNL     1      43.146 -13.973   6.546  1.00  0.00     0.257 C 
HETATM   15  N   UNL     1      42.921 -14.743   5.424  1.00  0.00    -0.356 N 
HETATM   16  H   UNL     1      42.875 -14.206   4.564  1.00  0.00     0.162 HD
HETATM   17  O   UNL     1      43.559 -14.424   7.606  1.00  0.00    -0.267 OA
BRANCH  15  18
HETATM   18  C   UNL     1      43.367 -16.116   5.284  1.00  0.00     0.127 C 
BRANCH  18  19
HETATM   19  C   UNL     1      43.624 -16.638   3.864  1.00  0.00     0.053 C 
BRANCH  19  20
HETATM   20  C   UNL     1      43.629 -18.143   3.704  1.00  0.00    -0.082 C 
HETATM   21  C   UNL     1      43.288 -18.701   2.346  1.00  0.00     0.034 C 
HETATM   22  C   UNL     1      43.023 -20.212   2.358  1.00  0.00     0.005 C 
HETATM   23  C   UNL     1      44.037 -20.950   3.225  1.00  0.00     0.004 C 
HETATM   24  C   UNL     1      44.007 -20.436   4.663  1.00  0.00     0.027 C 
HETATM   25  C   UNL     1      43.947 -18.943   4.739  1.00  0.00    -0.024 C 
ENDBRANCH  19  20
ENDBRANCH  18  19
ENDBRANCH  15  18
ENDBRANCH  12  14
BRANCH  13  26
HETATM   26  N   UNL     1      44.867 -11.525   7.671  1.00  0.00    -0.286 NA
HETATM   27  H   UNL     1      45.419 -10.667   7.602  1.00  0.00     0.125 HD
HETATM   28  H   UNL     1      44.685 -11.668   8.673  1.00  0.00     0.125 HD
ENDBRANCH  13  26
BRANCH   1  29
HETATM   29  N   UNL     1      43.056  -9.405   7.838  1.00  0.00    -0.176 NA
HETATM   30  C   UNL     1      42.190  -9.588   8.791  1.00  0.00     0.153 C 
BRANCH  30  31
HETATM   31  C   UNL     1      42.359  -8.986  10.133  1.00  0.00     0.016 A 
HETATM   32  C   UNL     1      41.220  -8.649  10.888  1.00  0.00     0.080 A 
HETATM   33  C   UNL     1      41.388  -8.278  12.226  1.00  0.00     0.037 A 
HETATM   34  C   UNL     1      42.662  -8.247  12.801  1.00  0.00     0.003 A 
HETATM   35  C   UNL     1      43.785  -8.568  12.041  1.00  0.00     0.001 A 
HETATM   36  C   UNL     1      43.637  -8.937  10.706  1.00  0.00     0.016 A 
BRANCH  32  37
HETATM   37  O   UNL     1      40.009  -8.734  10.254  1.00  0.00    -0.355 OA
HETATM   38  C   UNL     1      38.970  -7.861  10.680  1.00  0.00     0.210 C 
ENDBRANCH  32  37
ENDBRANCH  30  31
ENDBRANCH   1  29
TORSDOF 8
ENDMDL
MODEL 9
REMARK VINA RESULT:      -8.7      1.980      2.259
REMARK  8 active torsions:
REMARK  status: ('A' for Active; 'I' for Inactive)
REMARK    1  A    between atoms: O_2  and  C_3 
REMARK    2  A    between atoms: C_4  and  C_5 
REMARK    3  A    between atoms: N_6  and  N_7 
REMARK    4  A    between atoms: C_18  and  C_19 
REMARK       I    between atoms: C_19  and  N_20 
REMARK    5  A    between atoms: N_20  and  C_21 
REMARK    6  A    between atoms: C_21  and  C_22 
REMARK    7  A    between atoms: C_22  and  C_23 
REMARK    8  A    between atoms: C_30  and  N_31 
ROOT
HETATM    1  N   UNL     1      42.550 -14.504   3.200  1.00  0.00    -0.202 N 
HETATM    2  C   UNL     1      41.699 -14.041   2.216  1.00  0.00     0.183 A 
HETATM    3  C   UNL     1      41.498 -12.687   2.474  1.00  0.00     0.124 A 
HETATM    4  N   UNL     1      40.759 -11.919   1.636  1.00  0.00    -0.242 NA
HETATM    5  C   UNL     1      40.205 -12.572   0.607  1.00  0.00     0.086 A 
HETATM    6  C   UNL     1      40.416 -13.956   0.371  1.00  0.00     0.088 A 
HETATM    7  N   UNL     1      41.202 -14.720   1.154  1.00  0.00    -0.225 NA
HETATM    8  C   UNL     1      39.381 -11.852  -0.249  1.00  0.00     0.034 A 
HETATM    9  C   UNL     1      38.743 -12.462  -1.329  1.00  0.00     0.002 A 
HETATM   10  C   UNL     1      38.936 -13.816  -1.559  1.00  0.00     0.002 A 
HETATM   11  C   UNL     1      39.773 -14.547  -0.712  1.00  0.00     0.034 A 
HETATM   12  C   UNL     1      42.204 -12.347   3.662  1.00  0.00     0.104 C 
HETATM   13  C   UNL     1      42.610 -13.553   4.213  1.00  0.00     0.123 C 
ENDROOT
BRANCH  12  14
HETATM   14  C   UNL     1      42.520 -11.009   4.145  1.00  0.00     0.257 C 
HETATM   15  N   UNL     1      41.452 -10.136   4.147  1.00  0.00    -0.356 N 
HETATM   16  H   UNL     1      40.555 -10.590   4.009  1.00  0.00     0.162 HD
HETATM   17  O   UNL     1      43.618 -10.737   4.612  1.00  0.00    -0.267 OA
BRANCH  15  18
HETATM   18  C   UNL     1      41.421  -8.899   4.903  1.00  0.00     0.127 C 
BRANCH  18  19
HETATM   19  C   UNL     1      40.569  -8.868   6.180  1.00  0.00     0.053 C 
BRANCH  19  20
HETATM   20  C   UNL     1      41.316  -8.580   7.465  1.00  0.00    -0.082 C 
HETATM   21  C   UNL     1      40.773  -9.183   8.736  1.00  0.00     0.034 C 
HETATM   22  C   UNL     1      41.406  -8.598  10.004  1.00  0.00     0.005 C 
HETATM   23  C   UNL     1      42.914  -8.430   9.851  1.00  0.00     0.004 C 
HETATM   24  C   UNL     1      43.249  -7.520   8.673  1.00  0.00     0.027 C 
HETATM   25  C   UNL     1      42.433  -7.829   7.457  1.00  0.00    -0.024 C 
ENDBRANCH  19  20
ENDBRANCH  18  19
ENDBRANCH  15  18
ENDBRANCH  12  14
BRANCH  13  26
HETATM   26  N   UNL     1      43.205 -13.863   5.413  1.00  0.00    -0.286 NA
HETATM   27  H   UNL     1      43.420 -14.854   5.537  1.00  0.00     0.125 HD
HETATM   28  H   UNL     1      44.091 -13.359   5.549  1.00  0.00     0.125 HD
ENDBRANCH  13  26
BRANCH   1  29
HETATM   29  N   UNL     1      43.399 -15.583   3.221  1.00  0.00    -0.176 NA
HETATM   30  C   UNL     1      42.784 -16.636   3.674  1.00  0.00     0.153 C 
BRANCH  30  31
HETATM   31  C   UNL     1      43.286 -18.006   3.424  1.00  0.00     0.016 A 
HETATM   32  C   UNL     1      43.908 -18.716   4.467  1.00  0.00     0.080 A 
HETATM   33  C   UNL     1      44.188 -20.074   4.282  1.00  0.00     0.037 A 
HETATM   34  C   UNL     1      43.853 -20.711   3.083  1.00  0.00     0.003 A 
HETATM   35  C   UNL     1      43.251 -19.997   2.050  1.00  0.00     0.001 A 
HETATM   36  C   UNL     1      42.967 -18.643   2.217  1.00  0.00     0.016 A 
BRANCH  32  37
HETATM   37  O   UNL     1      44.174 -18.020   5.617  1.00  0.00    -0.355 OA
HETATM   38  C   UNL     1      43.374 -18.291   6.761  1.00  0.00     0.210 C 
ENDBRANCH  32  37
ENDBRANCH  30  31
ENDBRANCH   1  29
TORSDOF 8
ENDMDL
MODEL 10
REMARK VINA RESULT:      -8.7      3.372      8.644
REMARK  8 active torsions:
REMARK  status: ('A' for Active; 'I' for Inactive)
REMARK    1  A    between atoms: O_2  and  C_3 
REMARK    2  A    between atoms: C_4  and  C_5 
REMARK    3  A    between atoms: N_6  and  N_7 
REMARK    4  A    between atoms: C_18  and  C_19 
REMARK       I    between atoms: C_19  and  N_20 
REMARK    5  A    between atoms: N_20  and  C_21 
REMARK    6  A    between atoms: C_21  and  C_22 
REMARK    7  A    between atoms: C_22  and  C_23 
REMARK    8  A    between atoms: C_30  and  N_31 
ROOT
HETATM    1  N   UNL     1      42.931 -10.160   6.948  1.00  0.00    -0.202 N 
HETATM    2  C   UNL     1      42.012 -10.345   5.934  1.00  0.00     0.183 A 
HETATM    3  C   UNL     1      41.999 -11.709   5.657  1.00  0.00     0.124 A 
HETATM    4  N   UNL     1      41.139 -12.230   4.748  1.00  0.00    -0.242 NA
HETATM    5  C   UNL     1      40.373 -11.334   4.115  1.00  0.00     0.086 A 
HETATM    6  C   UNL     1      40.411  -9.945   4.406  1.00  0.00     0.088 A 
HETATM    7  N   UNL     1      41.211  -9.419   5.353  1.00  0.00    -0.225 NA
HETATM    8  C   UNL     1      39.518 -11.798   3.122  1.00  0.00     0.034 A 
HETATM    9  C   UNL     1      38.706 -10.929   2.394  1.00  0.00     0.002 A 
HETATM   10  C   UNL     1      38.747  -9.569   2.667  1.00  0.00     0.002 A 
HETATM   11  C   UNL     1      39.594  -9.093   3.672  1.00  0.00     0.034 A 
HETATM   12  C   UNL     1      42.964 -12.345   6.490  1.00  0.00     0.104 C 
HETATM   13  C   UNL     1      43.693 -11.317   7.068  1.00  0.00     0.123 C 
ENDROOT
BRANCH  12  14
HETATM   14  C   UNL     1      43.092 -13.772   6.756  1.00  0.00     0.257 C 
HETATM   15  N   UNL     1      41.893 -14.428   6.942  1.00  0.00    -0.356 N 
HETATM   16  H   UNL     1      41.084 -13.882   6.668  1.00  0.00     0.162 HD
HETATM   17  O   UNL     1      44.175 -14.341   6.703  1.00  0.00    -0.267 OA
BRANCH  15  18
HETATM   18  C   UNL     1      41.738 -15.868   6.855  1.00  0.00     0.127 C 
BRANCH  18  19
HETATM   19  C   UNL     1      40.904 -16.423   5.692  1.00  0.00     0.053 C 
BRANCH  19  20
HETATM   20  C   UNL     1      41.385 -16.061   4.303  1.00  0.00    -0.082 C 
HETATM   21  C   UNL     1      42.845 -16.272   3.994  1.00  0.00     0.034 C 
HETATM   22  C   UNL     1      43.293 -15.605   2.688  1.00  0.00     0.005 C 
HETATM   23  C   UNL     1      42.267 -15.804   1.578  1.00  0.00     0.004 C 
HETATM   24  C   UNL     1      40.907 -15.236   1.977  1.00  0.00     0.027 C 
HETATM   25  C   UNL     1      40.527 -15.589   3.380  1.00  0.00    -0.024 C 
ENDBRANCH  19  20
ENDBRANCH  18  19
ENDBRANCH  15  18
ENDBRANCH  12  14
BRANCH  13  26
HETATM   26  N   UNL     1      44.826 -11.317   7.846  1.00  0.00    -0.286 NA
HETATM   27  H   UNL     1      45.007 -10.437   8.332  1.00  0.00     0.125 HD
HETATM   28  H   UNL     1      44.798 -12.045   8.573  1.00  0.00     0.125 HD
ENDBRANCH  13  26
BRANCH   1  29
HETATM   29  N   UNL     1      43.054  -9.159   7.879  1.00  0.00    -0.176 NA
HETATM   30  C   UNL     1      42.139  -9.275   8.796  1.00  0.00     0.153 C 
BRANCH  30  31
HETATM   31  C   UNL     1      42.267  -8.627  10.121  1.00  0.00     0.016 A 
HETATM   32  C   UNL     1      43.160  -9.161  11.067  1.00  0.00     0.080 A 
HETATM   33  C   UNL     1      43.426  -8.426  12.228  1.00  0.00     0.037 A 
HETATM   34  C   UNL     1      42.816  -7.186  12.439  1.00  0.00     0.003 A 
HETATM   35  C   UNL     1      41.922  -6.673  11.503  1.00  0.00     0.001 A 
HETATM   36  C   UNL     1      41.644  -7.392  10.342  1.00  0.00     0.016 A 
BRANCH  32  37
HETATM   37  O   UNL     1      43.734 -10.368  10.767  1.00  0.00    -0.355 OA
HETATM   38  C   UNL     1      43.798 -11.350  11.794  1.00  0.00     0.210 C 
ENDBRANCH  32  37
ENDBRANCH  30  31
ENDBRANCH   1  29
TORSDOF 8
ENDMDL
