MODEL 1
REMARK VINA RESULT:      -8.3      0.000      0.000
REMARK  6 active torsions:
REMARK  status: ('A' for Active; 'I' for Inactive)
REMARK    1  A    between atoms: C_2  and  O_3 
REMARK    2  A    between atoms: O_3  and  C_4 
REMARK    3  A    between atoms: C_4  and  C_6 
REMARK    4  A    between atoms: C_8  and  N_9 
REMARK    5  A    between atoms: N_9  and  C_10 
REMARK    6  A    between atoms: C_18  and  C_19 
ROOT
HETATM    1  C   UNL     1      41.579 -14.278   2.842  1.00  0.00     0.115 A 
HETATM    2  S   UNL     1      41.549 -12.582   3.123  1.00  0.00    -0.043 SA
HETATM    3  C   UNL     1      43.048 -12.680   3.969  1.00  0.00     0.172 A 
HETATM    4  N   UNL     1      43.521 -13.899   4.076  1.00  0.00    -0.220 NA
HETATM    5  C   UNL     1      42.691 -14.821   3.450  1.00  0.00     0.118 A 
ENDROOT
BRANCH   3   6
HETATM    6  N   UNL     1      43.616 -11.537   4.418  1.00  0.00    -0.335 N 
HETATM    7  H   UNL     1      43.838 -10.837   3.721  1.00  0.00     0.168 HD
BRANCH   6   8
HETATM    8  C   UNL     1      44.024 -11.206   5.723  1.00  0.00     0.034 A 
HETATM    9  C   UNL     1      43.067 -10.685   6.611  1.00  0.00     0.031 A 
HETATM   10  C   UNL     1      43.412 -10.291   7.908  1.00  0.00     0.021 A 
HETATM   11  C   UNL     1      44.730 -10.417   8.337  1.00  0.00     0.011 A 
HETATM   12 BR   UNL     1      45.207  -9.882  10.085  1.00  0.00    -0.051 Br
HETATM   13  C   UNL     1      45.696 -10.930   7.481  1.00  0.00     0.021 A 
HETATM   14  C   UNL     1      45.343 -11.317   6.183  1.00  0.00     0.031 A 
ENDBRANCH   6   8
ENDBRANCH   3   6
BRANCH   1  15
HETATM   15  C   UNL     1      40.583 -14.888   2.001  1.00  0.00     0.302 C 
HETATM   16  O   UNL     1      39.656 -15.590   2.381  1.00  0.00    -0.259 OA
BRANCH  15  17
HETATM   17  O   UNL     1      40.866 -14.629   0.687  1.00  0.00    -0.317 OA
BRANCH  17  18
HETATM   18  C   UNL     1      39.900 -13.831  -0.013  1.00  0.00     0.174 C 
HETATM   19  C   UNL     1      39.423 -14.564  -1.254  1.00  0.00     0.034 C 
ENDBRANCH  17  18
ENDBRANCH  15  17
ENDBRANCH   1  15
BRANCH   5  20
HETATM   20  C   UNL     1      43.016 -16.291   3.490  1.00  0.00     0.129 A 
HETATM   21  N   UNL     1      43.350 -16.915   4.599  1.00  0.00    -0.238 NA
HETATM   22  C   UNL     1      43.581 -18.255   4.339  1.00  0.00     0.075 A 
HETATM   23  C   UNL     1      43.929 -19.235   5.291  1.00  0.00     0.033 A 
HETATM   24  C   UNL     1      43.450 -18.637   3.002  1.00  0.00     0.035 A 
HETATM   25  C   UNL     1      44.134 -20.559   4.884  1.00  0.00     0.002 A 
HETATM   26  C   UNL     1      43.998 -20.915   3.546  1.00  0.00     0.002 A 
HETATM   27  C   UNL     1      43.656 -19.961   2.583  1.00  0.00     0.021 A 
HETATM   28  S   UNL     1      43.024 -17.258   2.069  1.00  0.00    -0.066 SA
ENDBRANCH   5  20
TORSDOF 6
ENDMDL
MODEL 2
REMARK VINA RESULT:      -8.0      2.142      2.948
REMARK  6 active torsions:
REMARK  status: ('A' for Active; 'I' for Inactive)
REMARK    1  A    between atoms: C_2  and  O_3 
REMARK    2  A    between atoms: O_3  and  C_4 
REMARK    3  A    between atoms: C_4  and  C_6 
REMARK    4  A    between atoms: C_8  and  N_9 
REMARK    5  A    between atoms: N_9  and  C_10 
REMARK    6  A    between atoms: C_18  and  C_19 
ROOT
HETATM    1  C   UNL     1      42.281 -13.318   5.042  1.00  0.00     0.115 A 
HETATM    2  S   UNL     1      42.427 -11.645   5.408  1.00  0.00    -0.043 SA
HETATM    3  C   UNL     1      43.779 -11.970   6.429  1.00  0.00     0.172 A 
HETATM    4  N   UNL     1      44.077 -13.244   6.527  1.00  0.00    -0.220 NA
HETATM    5  C   UNL     1      43.228 -14.025   5.754  1.00  0.00     0.118 A 
ENDROOT
BRANCH   3   6
HETATM    6  N   UNL     1      44.422 -10.929   7.006  1.00  0.00    -0.335 N 
HETATM    7  H   UNL     1      45.259 -10.599   6.542  1.00  0.00     0.168 HD
BRANCH   6   8
HETATM    8  C   UNL     1      44.138 -10.279   8.221  1.00  0.00     0.034 A 
HETATM    9  C   UNL     1      45.125 -10.277   9.223  1.00  0.00     0.031 A 
HETATM   10  C   UNL     1      44.894  -9.690  10.473  1.00  0.00     0.021 A 
HETATM   11  C   UNL     1      43.666  -9.093  10.736  1.00  0.00     0.011 A 
HETATM   12 BR   UNL     1      43.344  -8.304  12.421  1.00  0.00    -0.051 Br
HETATM   13  C   UNL     1      42.673  -9.080   9.763  1.00  0.00     0.021 A 
HETATM   14  C   UNL     1      42.910  -9.673   8.517  1.00  0.00     0.031 A 
ENDBRANCH   6   8
ENDBRANCH   3   6
BRANCH   1  15
HETATM   15  C   UNL     1      41.336 -13.760   4.051  1.00  0.00     0.302 C 
HETATM   16  O   UNL     1      40.137 -13.929   4.229  1.00  0.00    -0.259 OA
BRANCH  15  17
HETATM   17  O   UNL     1      41.988 -14.040   2.881  1.00  0.00    -0.317 OA
BRANCH  17  18
HETATM   18  C   UNL     1      41.247 -14.806   1.921  1.00  0.00     0.174 C 
HETATM   19  C   UNL     1      41.584 -16.280   2.058  1.00  0.00     0.034 C 
ENDBRANCH  17  18
ENDBRANCH  15  17
ENDBRANCH   1  15
BRANCH   5  20
HETATM   20  C   UNL     1      43.357 -15.526   5.755  1.00  0.00     0.129 A 
HETATM   21  N   UNL     1      43.826 -16.199   4.727  1.00  0.00    -0.238 NA
HETATM   22  C   UNL     1      43.841 -17.553   5.014  1.00  0.00     0.075 A 
HETATM   23  C   UNL     1      44.306 -18.574   4.160  1.00  0.00     0.033 A 
HETATM   24  C   UNL     1      43.342 -17.905   6.269  1.00  0.00     0.035 A 
HETATM   25  C   UNL     1      44.261 -19.908   4.582  1.00  0.00     0.002 A 
HETATM   26  C   UNL     1      43.759 -20.235   5.838  1.00  0.00     0.002 A 
HETATM   27  C   UNL     1      43.291 -19.240   6.702  1.00  0.00     0.021 A 
HETATM   28  S   UNL     1      42.850 -16.479   7.092  1.00  0.00    -0.066 SA
ENDBRANCH   5  20
TORSDOF 6
ENDMDL
MODEL 3
REMARK VINA RESULT:      -7.9      2.643      3.623
REMARK  6 active torsions:
REMARK  status: ('A' for Active; 'I' for Inactive)
REMARK    1  A    between atoms: C_2  and  O_3 
REMARK    2  A    between atoms: O_3  and  C_4 
REMARK    3  A    between atoms: C_4  and  C_6 
REMARK    4  A    between atoms: C_8  and  N_9 
REMARK    5  A    between atoms: N_9  and  C_10 
REMARK    6  A    between atoms: C_18  and  C_19 
ROOT
HETATM    1  C   UNL     1      41.516 -12.253   5.869  1.00  0.00     0.115 A 
HETATM    2  S   UNL     1      41.641 -10.761   6.714  1.00  0.00    -0.043 SA
HETATM    3  C   UNL     1      43.331 -11.018   6.948  1.00  0.00     0.172 A 
HETATM    4  N   UNL     1      43.767 -12.158   6.468  1.00  0.00    -0.220 NA
HETATM    5  C   UNL     1      42.746 -12.878   5.862  1.00  0.00     0.118 A 
ENDROOT
BRANCH   3   6
HETATM    6  N   UNL     1      44.055 -10.052   7.559  1.00  0.00    -0.335 N 
HETATM    7  H   UNL     1      44.883  -9.731   7.073  1.00  0.00     0.168 HD
BRANCH   6   8
HETATM    8  C   UNL     1      43.868  -9.477   8.829  1.00  0.00     0.034 A 
HETATM    9  C   UNL     1      44.064 -10.285   9.963  1.00  0.00     0.031 A 
HETATM   10  C   UNL     1      43.851  -9.793  11.256  1.00  0.00     0.021 A 
HETATM   11  C   UNL     1      43.439  -8.476  11.430  1.00  0.00     0.011 A 
HETATM   12 BR   UNL     1      43.143  -7.804  13.171  1.00  0.00    -0.051 Br
HETATM   13  C   UNL     1      43.239  -7.655  10.327  1.00  0.00     0.021 A 
HETATM   14  C   UNL     1      43.450  -8.157   9.037  1.00  0.00     0.031 A 
ENDBRANCH   6   8
ENDBRANCH   3   6
BRANCH   1  15
HETATM   15  C   UNL     1      40.279 -12.621   5.233  1.00  0.00     0.302 C 
HETATM   16  O   UNL     1      39.323 -13.156   5.779  1.00  0.00    -0.259 OA
BRANCH  15  17
HETATM   17  O   UNL     1      40.348 -12.351   3.894  1.00  0.00    -0.317 OA
BRANCH  17  18
HETATM   18  C   UNL     1      39.256 -12.838   3.101  1.00  0.00     0.174 C 
HETATM   19  C   UNL     1      39.698 -14.043   2.290  1.00  0.00     0.034 C 
ENDBRANCH  17  18
ENDBRANCH  15  17
ENDBRANCH   1  15
BRANCH   5  20
HETATM   20  C   UNL     1      43.012 -14.244   5.285  1.00  0.00     0.129 A 
HETATM   21  N   UNL     1      42.820 -14.528   4.015  1.00  0.00    -0.238 NA
HETATM   22  C   UNL     1      43.156 -15.848   3.768  1.00  0.00     0.075 A 
HETATM   23  C   UNL     1      43.107 -16.494   2.516  1.00  0.00     0.033 A 
HETATM   24  C   UNL     1      43.576 -16.578   4.882  1.00  0.00     0.035 A 
HETATM   25  C   UNL     1      43.477 -17.840   2.412  1.00  0.00     0.002 A 
HETATM   26  C   UNL     1      43.892 -18.546   3.537  1.00  0.00     0.002 A 
HETATM   27  C   UNL     1      43.947 -17.929   4.789  1.00  0.00     0.021 A 
HETATM   28  S   UNL     1      43.540 -15.554   6.262  1.00  0.00    -0.066 SA
ENDBRANCH   5  20
TORSDOF 6
ENDMDL
MODEL 4
REMARK VINA RESULT:      -7.8      3.904      8.228
REMARK  6 active torsions:
REMARK  status: ('A' for Active; 'I' for Inactive)
REMARK    1  A    between atoms: C_2  and  O_3 
REMARK    2  A    between atoms: O_3  and  C_4 
REMARK    3  A    between atoms: C_4  and  C_6 
REMARK    4  A    between atoms: C_8  and  N_9 
REMARK    5  A    between atoms: N_9  and  C_10 
REMARK    6  A    between atoms: C_18  and  C_19 
ROOT
HETATM    1  C   UNL     1      42.130 -14.378   6.171  1.00  0.00     0.115 A 
HETATM    2  S   UNL     1      40.844 -15.129   5.313  1.00  0.00    -0.043 SA
HETATM    3  C   UNL     1      40.452 -13.630   4.556  1.00  0.00     0.172 A 
HETATM    4  N   UNL     1      41.199 -12.625   4.947  1.00  0.00    -0.220 NA
HETATM    5  C   UNL     1      42.150 -13.031   5.875  1.00  0.00     0.118 A 
ENDROOT
BRANCH   3   6
HETATM    6  N   UNL     1      39.463 -13.608   3.633  1.00  0.00    -0.335 N 
HETATM    7  H   UNL     1      38.514 -13.650   3.984  1.00  0.00     0.168 HD
BRANCH   6   8
HETATM    8  C   UNL     1      39.563 -13.617   2.230  1.00  0.00     0.034 A 
HETATM    9  C   UNL     1      39.952 -14.810   1.596  1.00  0.00     0.031 A 
HETATM   10  C   UNL     1      40.117 -14.880   0.208  1.00  0.00     0.021 A 
HETATM   11  C   UNL     1      39.891 -13.748  -0.568  1.00  0.00     0.011 A 
HETATM   12 BR   UNL     1      40.116 -13.830  -2.442  1.00  0.00    -0.051 Br
HETATM   13  C   UNL     1      39.504 -12.555   0.032  1.00  0.00     0.021 A 
HETATM   14  C   UNL     1      39.346 -12.494   1.422  1.00  0.00     0.031 A 
ENDBRANCH   6   8
ENDBRANCH   3   6
BRANCH   1  15
HETATM   15  C   UNL     1      43.028 -15.172   6.965  1.00  0.00     0.302 C 
HETATM   16  O   UNL     1      42.987 -15.302   8.181  1.00  0.00    -0.259 OA
BRANCH  15  17
HETATM   17  O   UNL     1      43.998 -15.713   6.166  1.00  0.00    -0.317 OA
BRANCH  17  18
HETATM   18  C   UNL     1      44.120 -17.142   6.211  1.00  0.00     0.174 C 
HETATM   19  C   UNL     1      44.040 -17.715   4.808  1.00  0.00     0.034 C 
ENDBRANCH  17  18
ENDBRANCH  15  17
ENDBRANCH   1  15
BRANCH   5  20
HETATM   20  C   UNL     1      43.087 -12.029   6.497  1.00  0.00     0.129 A 
HETATM   21  N   UNL     1      42.668 -10.902   7.032  1.00  0.00    -0.238 NA
HETATM   22  C   UNL     1      43.742 -10.188   7.535  1.00  0.00     0.075 A 
HETATM   23  C   UNL     1      43.672  -8.949   8.204  1.00  0.00     0.033 A 
HETATM   24  C   UNL     1      44.994 -10.774   7.342  1.00  0.00     0.035 A 
HETATM   25  C   UNL     1      44.845  -8.336   8.660  1.00  0.00     0.002 A 
HETATM   26  C   UNL     1      46.081  -8.940   8.456  1.00  0.00     0.002 A 
HETATM   27  C   UNL     1      46.178 -10.167   7.794  1.00  0.00     0.021 A 
HETATM   28  S   UNL     1      44.789 -12.263   6.508  1.00  0.00    -0.066 SA
ENDBRANCH   5  20
TORSDOF 6
ENDMDL
MODEL 5
REMARK VINA RESULT:      -7.5      3.867      8.246
REMARK  6 active torsions:
REMARK  status: ('A' for Active; 'I' for Inactive)
REMARK    1  A    between atoms: C_2  and  O_3 
REMARK    2  A    between atoms: O_3  and  C_4 
REMARK    3  A    between atoms: C_4  and  C_6 
REMARK    4  A    between atoms: C_8  and  N_9 
REMARK    5  A    between atoms: N_9  and  C_10 
REMARK    6  A    between atoms: C_18  and  C_19 
ROOT
HETATM    1  C   UNL     1      42.625 -14.365   5.113  1.00  0.00     0.115 A 
HETATM    2  S   UNL     1      42.089 -15.209   3.715  1.00  0.00    -0.043 SA
HETATM    3  C   UNL     1      42.500 -13.859   2.723  1.00  0.00     0.172 A 
HETATM    4  N   UNL     1      42.965 -12.830   3.391  1.00  0.00    -0.220 NA
HETATM    5  C   UNL     1      43.032 -13.097   4.753  1.00  0.00     0.118 A 
ENDROOT
BRANCH   3   6
HETATM    6  N   UNL     1      42.344 -13.966   1.384  1.00  0.00    -0.335 N 
HETATM    7  H   UNL     1      43.151 -14.277   0.857  1.00  0.00     0.168 HD
BRANCH   6   8
HETATM    8  C   UNL     1      41.231 -13.626   0.593  1.00  0.00     0.034 A 
HETATM    9  C   UNL     1      40.512 -14.661  -0.029  1.00  0.00     0.031 A 
HETATM   10  C   UNL     1      39.423 -14.393  -0.866  1.00  0.00     0.021 A 
HETATM   11  C   UNL     1      39.037 -13.076  -1.091  1.00  0.00     0.011 A 
HETATM   12 BR   UNL     1      37.572 -12.704  -2.224  1.00  0.00    -0.051 Br
HETATM   13  C   UNL     1      39.729 -12.033  -0.488  1.00  0.00     0.021 A 
HETATM   14  C   UNL     1      40.820 -12.310   0.344  1.00  0.00     0.031 A 
ENDBRANCH   6   8
ENDBRANCH   3   6
BRANCH   1  15
HETATM   15  C   UNL     1      42.679 -15.036   6.385  1.00  0.00     0.302 C 
HETATM   16  O   UNL     1      41.762 -15.120   7.190  1.00  0.00    -0.259 OA
BRANCH  15  17
HETATM   17  O   UNL     1      43.943 -15.513   6.604  1.00  0.00    -0.317 OA
BRANCH  17  18
HETATM   18  C   UNL     1      44.026 -16.856   7.100  1.00  0.00     0.174 C 
HETATM   19  C   UNL     1      43.748 -17.843   5.980  1.00  0.00     0.034 C 
ENDBRANCH  17  18
ENDBRANCH  15  17
ENDBRANCH   1  15
BRANCH   5  20
HETATM   20  C   UNL     1      43.493 -12.036   5.718  1.00  0.00     0.129 A 
HETATM   21  N   UNL     1      44.740 -11.935   6.120  1.00  0.00    -0.238 NA
HETATM   22  C   UNL     1      44.874 -10.867   6.991  1.00  0.00     0.075 A 
HETATM   23  C   UNL     1      46.072 -10.439   7.598  1.00  0.00     0.033 A 
HETATM   24  C   UNL     1      43.695 -10.175   7.274  1.00  0.00     0.035 A 
HETATM   25  C   UNL     1      46.059  -9.339   8.463  1.00  0.00     0.002 A 
HETATM   26  C   UNL     1      44.872  -8.664   8.730  1.00  0.00     0.002 A 
HETATM   27  C   UNL     1      43.671  -9.071   8.142  1.00  0.00     0.021 A 
HETATM   28  S   UNL     1      42.401 -10.903   6.408  1.00  0.00    -0.066 SA
ENDBRANCH   5  20
TORSDOF 6
ENDMDL
MODEL 6
REMARK VINA RESULT:      -7.4      3.495      7.979
REMARK  6 active torsions:
REMARK  status: ('A' for Active; 'I' for Inactive)
REMARK    1  A    between atoms: C_2  and  O_3 
REMARK    2  A    between atoms: O_3  and  C_4 
REMARK    3  A    between atoms: C_4  and  C_6 
REMARK    4  A    between atoms: C_8  and  N_9 
REMARK    5  A    between atoms: N_9  and  C_10 
REMARK    6  A    between atoms: C_18  and  C_19 
ROOT
HETATM    1  C   UNL     1      40.945 -12.648   5.022  1.00  0.00     0.115 A 
HETATM    2  S   UNL     1      40.798 -13.883   3.836  1.00  0.00    -0.043 SA
HETATM    3  C   UNL     1      42.493 -14.190   3.923  1.00  0.00     0.172 A 
HETATM    4  N   UNL     1      43.136 -13.398   4.748  1.00  0.00    -0.220 NA
HETATM    5  C   UNL     1      42.272 -12.507   5.373  1.00  0.00     0.118 A 
ENDROOT
BRANCH   3   6
HETATM    6  N   UNL     1      43.008 -15.201   3.187  1.00  0.00    -0.335 N 
HETATM    7  H   UNL     1      43.163 -15.013   2.204  1.00  0.00     0.168 HD
BRANCH   6   8
HETATM    8  C   UNL     1      43.289 -16.524   3.575  1.00  0.00     0.034 A 
HETATM    9  C   UNL     1      43.477 -16.793   4.943  1.00  0.00     0.031 A 
HETATM   10  C   UNL     1      43.805 -18.076   5.396  1.00  0.00     0.021 A 
HETATM   11  C   UNL     1      43.947 -19.113   4.480  1.00  0.00     0.011 A 
HETATM   12 BR   UNL     1      44.394 -20.847   5.082  1.00  0.00    -0.051 Br
HETATM   13  C   UNL     1      43.765 -18.876   3.123  1.00  0.00     0.021 A 
HETATM   14  C   UNL     1      43.442 -17.588   2.678  1.00  0.00     0.031 A 
ENDBRANCH   6   8
ENDBRANCH   3   6
BRANCH   1  15
HETATM   15  C   UNL     1      39.768 -12.010   5.549  1.00  0.00     0.302 C 
HETATM   16  O   UNL     1      39.369 -12.082   6.704  1.00  0.00    -0.259 OA
BRANCH  15  17
HETATM   17  O   UNL     1      39.104 -11.360   4.544  1.00  0.00    -0.317 OA
BRANCH  17  18
HETATM   18  C   UNL     1      39.623 -10.071   4.185  1.00  0.00     0.174 C 
HETATM   19  C   UNL     1      38.936  -8.989   5.000  1.00  0.00     0.034 C 
ENDBRANCH  17  18
ENDBRANCH  15  17
ENDBRANCH   1  15
BRANCH   5  20
HETATM   20  C   UNL     1      42.802 -11.469   6.327  1.00  0.00     0.129 A 
HETATM   21  N   UNL     1      42.274 -10.271   6.439  1.00  0.00    -0.238 NA
HETATM   22  C   UNL     1      42.956  -9.538   7.395  1.00  0.00     0.075 A 
HETATM   23  C   UNL     1      42.651  -8.224   7.803  1.00  0.00     0.033 A 
HETATM   24  C   UNL     1      44.039 -10.189   7.987  1.00  0.00     0.035 A 
HETATM   25  C   UNL     1      43.431  -7.602   8.785  1.00  0.00     0.002 A 
HETATM   26  C   UNL     1      44.506  -8.271   9.361  1.00  0.00     0.002 A 
HETATM   27  C   UNL     1      44.829  -9.574   8.972  1.00  0.00     0.021 A 
HETATM   28  S   UNL     1      44.182 -11.762   7.309  1.00  0.00    -0.066 SA
ENDBRANCH   5  20
TORSDOF 6
ENDMDL
MODEL 7
REMARK VINA RESULT:      -7.3      4.134      7.375
REMARK  6 active torsions:
REMARK  status: ('A' for Active; 'I' for Inactive)
REMARK    1  A    between atoms: C_2  and  O_3 
REMARK    2  A    between atoms: O_3  and  C_4 
REMARK    3  A    between atoms: C_4  and  C_6 
REMARK    4  A    between atoms: C_8  and  N_9 
REMARK    5  A    between atoms: N_9  and  C_10 
REMARK    6  A    between atoms: C_18  and  C_19 
ROOT
HETATM    1  C   UNL     1      41.634 -11.587   1.934  1.00  0.00     0.115 A 
HETATM    2  S   UNL     1      42.627 -11.851   3.312  1.00  0.00    -0.043 SA
HETATM    3  C   UNL     1      42.434 -13.557   3.143  1.00  0.00     0.172 A 
HETATM    4  N   UNL     1      41.648 -13.908   2.154  1.00  0.00    -0.220 NA
HETATM    5  C   UNL     1      41.175 -12.800   1.463  1.00  0.00     0.118 A 
ENDROOT
BRANCH   3   6
HETATM    6  N   UNL     1      43.103 -14.372   3.991  1.00  0.00    -0.335 N 
HETATM    7  H   UNL     1      43.599 -13.926   4.753  1.00  0.00     0.168 HD
BRANCH   6   8
HETATM    8  C   UNL     1      43.279 -15.766   3.922  1.00  0.00     0.034 A 
HETATM    9  C   UNL     1      43.578 -16.462   5.107  1.00  0.00     0.031 A 
HETATM   10  C   UNL     1      43.812 -17.841   5.104  1.00  0.00     0.021 A 
HETATM   11  C   UNL     1      43.747 -18.547   3.907  1.00  0.00     0.011 A 
HETATM   12 BR   UNL     1      44.067 -20.409   3.893  1.00  0.00    -0.051 Br
HETATM   13  C   UNL     1      43.452 -17.885   2.721  1.00  0.00     0.021 A 
HETATM   14  C   UNL     1      43.224 -16.504   2.732  1.00  0.00     0.031 A 
ENDBRANCH   6   8
ENDBRANCH   3   6
BRANCH   1  15
HETATM   15  C   UNL     1      41.473 -10.259   1.404  1.00  0.00     0.302 C 
HETATM   16  O   UNL     1      40.716  -9.401   1.838  1.00  0.00    -0.259 OA
BRANCH  15  17
HETATM   17  O   UNL     1      42.244 -10.111   0.284  1.00  0.00    -0.317 OA
BRANCH  17  18
HETATM   18  C   UNL     1      41.660  -9.342  -0.778  1.00  0.00     0.174 C 
HETATM   19  C   UNL     1      42.643  -8.290  -1.260  1.00  0.00     0.034 C 
ENDBRANCH  17  18
ENDBRANCH  15  17
ENDBRANCH   1  15
BRANCH   5  20
HETATM   20  C   UNL     1      40.213 -12.967   0.316  1.00  0.00     0.129 A 
HETATM   21  N   UNL     1      40.369 -13.885  -0.612  1.00  0.00    -0.238 NA
HETATM   22  C   UNL     1      39.334 -13.813  -1.529  1.00  0.00     0.075 A 
HETATM   23  C   UNL     1      39.155 -14.659  -2.643  1.00  0.00     0.033 A 
HETATM   24  C   UNL     1      38.402 -12.799  -1.302  1.00  0.00     0.035 A 
HETATM   25  C   UNL     1      38.057 -14.470  -3.491  1.00  0.00     0.002 A 
HETATM   26  C   UNL     1      37.141 -13.452  -3.244  1.00  0.00     0.002 A 
HETATM   27  C   UNL     1      37.298 -12.600  -2.147  1.00  0.00     0.021 A 
HETATM   28  S   UNL     1      38.860 -11.929   0.108  1.00  0.00    -0.066 SA
ENDBRANCH   5  20
TORSDOF 6
ENDMDL
MODEL 8
REMARK VINA RESULT:      -7.3      4.007      6.233
REMARK  6 active torsions:
REMARK  status: ('A' for Active; 'I' for Inactive)
REMARK    1  A    between atoms: C_2  and  O_3 
REMARK    2  A    between atoms: O_3  and  C_4 
REMARK    3  A    between atoms: C_4  and  C_6 
REMARK    4  A    between atoms: C_8  and  N_9 
REMARK    5  A    between atoms: N_9  and  C_10 
REMARK    6  A    between atoms: C_18  and  C_19 
ROOT
HETATM    1  C   UNL     1      43.033 -11.017   6.227  1.00  0.00     0.115 A 
HETATM    2  S   UNL     1      42.269  -9.673   6.977  1.00  0.00    -0.043 SA
HETATM    3  C   UNL     1      40.719 -10.368   6.680  1.00  0.00     0.172 A 
HETATM    4  N   UNL     1      40.761 -11.505   6.026  1.00  0.00    -0.220 NA
HETATM    5  C   UNL     1      42.070 -11.883   5.750  1.00  0.00     0.118 A 
ENDROOT
BRANCH   3   6
HETATM    6  N   UNL     1      39.621  -9.730   7.147  1.00  0.00    -0.335 N 
HETATM    7  H   UNL     1      38.803  -9.738   6.550  1.00  0.00     0.168 HD
BRANCH   6   8
HETATM    8  C   UNL     1      39.472  -8.974   8.324  1.00  0.00     0.034 A 
HETATM    9  C   UNL     1      39.532  -9.643   9.559  1.00  0.00     0.031 A 
HETATM   10  C   UNL     1      39.346  -8.962  10.768  1.00  0.00     0.021 A 
HETATM   11  C   UNL     1      39.098  -7.594  10.755  1.00  0.00     0.011 A 
HETATM   12 BR   UNL     1      38.841  -6.668  12.381  1.00  0.00    -0.051 Br
HETATM   13  C   UNL     1      39.036  -6.907   9.548  1.00  0.00     0.021 A 
HETATM   14  C   UNL     1      39.218  -7.597   8.344  1.00  0.00     0.031 A 
ENDBRANCH   6   8
ENDBRANCH   3   6
BRANCH   1  15
HETATM   15  C   UNL     1      44.466 -11.139   6.251  1.00  0.00     0.302 C 
HETATM   16  O   UNL     1      45.198 -11.196   5.272  1.00  0.00    -0.259 OA
BRANCH  15  17
HETATM   17  O   UNL     1      44.899 -11.260   7.544  1.00  0.00    -0.317 OA
BRANCH  17  18
HETATM   18  C   UNL     1      46.138 -10.604   7.851  1.00  0.00     0.174 C 
HETATM   19  C   UNL     1      45.883  -9.150   8.206  1.00  0.00     0.034 C 
ENDBRANCH  17  18
ENDBRANCH  15  17
ENDBRANCH   1  15
BRANCH   5  20
HETATM   20  C   UNL     1      42.353 -13.135   4.963  1.00  0.00     0.129 A 
HETATM   21  N   UNL     1      42.625 -13.118   3.677  1.00  0.00    -0.238 NA
HETATM   22  C   UNL     1      42.853 -14.407   3.223  1.00  0.00     0.075 A 
HETATM   23  C   UNL     1      43.200 -14.771   1.906  1.00  0.00     0.033 A 
HETATM   24  C   UNL     1      42.716 -15.412   4.182  1.00  0.00     0.035 A 
HETATM   25  C   UNL     1      43.401 -16.119   1.587  1.00  0.00     0.002 A 
HETATM   26  C   UNL     1      43.259 -17.103   2.560  1.00  0.00     0.002 A 
HETATM   27  C   UNL     1      42.913 -16.767   3.872  1.00  0.00     0.021 A 
HETATM   28  S   UNL     1      42.292 -14.693   5.684  1.00  0.00    -0.066 SA
ENDBRANCH   5  20
TORSDOF 6
ENDMDL
MODEL 9
REMARK VINA RESULT:      -7.1      3.672      7.716
REMARK  6 active torsions:
REMARK  status: ('A' for Active; 'I' for Inactive)
REMARK    1  A    between atoms: C_2  and  O_3 
REMARK    2  A    between atoms: O_3  and  C_4 
REMARK    3  A    between atoms: C_4  and  C_6 
REMARK    4  A    between atoms: C_8  and  N_9 
REMARK    5  A    between atoms: N_9  and  C_10 
REMARK    6  A    between atoms: C_18  and  C_19 
ROOT
HETATM    1  C   UNL     1      41.101 -15.011   3.578  1.00  0.00     0.115 A 
HETATM    2  S   UNL     1      40.126 -15.544   2.267  1.00  0.00    -0.043 SA
HETATM    3  C   UNL     1      40.022 -13.929   1.668  1.00  0.00     0.172 A 
HETATM    4  N   UNL     1      40.636 -13.044   2.416  1.00  0.00    -0.220 NA
HETATM    5  C   UNL     1      41.245 -13.641   3.513  1.00  0.00     0.118 A 
ENDROOT
BRANCH   3   6
HETATM    6  N   UNL     1      39.367 -13.710   0.505  1.00  0.00    -0.335 N 
HETATM    7  H   UNL     1      38.626 -14.359   0.272  1.00  0.00     0.168 HD
BRANCH   6   8
HETATM    8  C   UNL     1      39.624 -12.743  -0.485  1.00  0.00     0.034 A 
HETATM    9  C   UNL     1      40.376 -13.123  -1.610  1.00  0.00     0.031 A 
HETATM   10  C   UNL     1      40.708 -12.202  -2.610  1.00  0.00     0.021 A 
HETATM   11  C   UNL     1      40.287 -10.882  -2.497  1.00  0.00     0.011 A 
HETATM   12 BR   UNL     1      40.735  -9.631  -3.840  1.00  0.00    -0.051 Br
HETATM   13  C   UNL     1      39.540 -10.479  -1.396  1.00  0.00     0.021 A 
HETATM   14  C   UNL     1      39.216 -11.406  -0.397  1.00  0.00     0.031 A 
ENDBRANCH   6   8
ENDBRANCH   3   6
BRANCH   1  15
HETATM   15  C   UNL     1      41.692 -15.970   4.474  1.00  0.00     0.302 C 
HETATM   16  O   UNL     1      41.156 -16.453   5.463  1.00  0.00    -0.259 OA
BRANCH  15  17
HETATM   17  O   UNL     1      42.986 -16.215   4.103  1.00  0.00    -0.317 OA
BRANCH  17  18
HETATM   18  C   UNL     1      43.319 -17.591   3.873  1.00  0.00     0.174 C 
HETATM   19  C   UNL     1      43.158 -17.926   2.401  1.00  0.00     0.034 C 
ENDBRANCH  17  18
ENDBRANCH  15  17
ENDBRANCH   1  15
BRANCH   5  20
HETATM   20  C   UNL     1      41.967 -12.803   4.536  1.00  0.00     0.129 A 
HETATM   21  N   UNL     1      43.271 -12.841   4.693  1.00  0.00    -0.238 NA
HETATM   22  C   UNL     1      43.656 -11.963   5.691  1.00  0.00     0.075 A 
HETATM   23  C   UNL     1      44.979 -11.716   6.112  1.00  0.00     0.033 A 
HETATM   24  C   UNL     1      42.615 -11.278   6.320  1.00  0.00     0.035 A 
HETATM   25  C   UNL     1      45.222 -10.798   7.140  1.00  0.00     0.002 A 
HETATM   26  C   UNL     1      44.168 -10.127   7.751  1.00  0.00     0.002 A 
HETATM   27  C   UNL     1      42.848 -10.356   7.353  1.00  0.00     0.021 A 
HETATM   28  S   UNL     1      41.124 -11.766   5.617  1.00  0.00    -0.066 SA
ENDBRANCH   5  20
TORSDOF 6
ENDMDL
MODEL 10
REMARK VINA RESULT:      -7.0      9.485     12.918
REMARK  6 active torsions:
REMARK  status: ('A' for Active; 'I' for Inactive)
REMARK    1  A    between atoms: C_2  and  O_3 
REMARK    2  A    between atoms: O_3  and  C_4 
REMARK    3  A    between atoms: C_4  and  C_6 
REMARK    4  A    between atoms: C_8  and  N_9 
REMARK    5  A    between atoms: N_9  and  C_10 
REMARK    6  A    between atoms: C_18  and  C_19 
ROOT
HETATM    1  C   UNL     1      40.725  -7.111  13.531  1.00  0.00     0.115 A 
HETATM    2  S   UNL     1      40.340  -6.636  15.137  1.00  0.00    -0.043 SA
HETATM    3  C   UNL     1      42.015  -6.600  15.545  1.00  0.00     0.172 A 
HETATM    4  N   UNL     1      42.810  -6.959  14.565  1.00  0.00    -0.220 NA
HETATM    5  C   UNL     1      42.092  -7.265  13.416  1.00  0.00     0.118 A 
ENDROOT
BRANCH   3   6
HETATM    6  N   UNL     1      42.373  -6.194  16.785  1.00  0.00    -0.335 N 
HETATM    7  H   UNL     1      43.252  -5.698  16.864  1.00  0.00     0.168 HD
BRANCH   6   8
HETATM    8  C   UNL     1      41.730  -6.435  18.013  1.00  0.00     0.034 A 
HETATM    9  C   UNL     1      41.572  -7.768  18.433  1.00  0.00     0.031 A 
HETATM   10  C   UNL     1      40.902  -8.084  19.621  1.00  0.00     0.021 A 
HETATM   11  C   UNL     1      40.381  -7.063  20.409  1.00  0.00     0.011 A 
HETATM   12 BR   UNL     1      39.471  -7.481  22.011  1.00  0.00    -0.051 Br
HETATM   13  C   UNL     1      40.525  -5.737  20.019  1.00  0.00     0.021 A 
HETATM   14  C   UNL     1      41.192  -5.430  18.827  1.00  0.00     0.031 A 
ENDBRANCH   6   8
ENDBRANCH   3   6
BRANCH   1  15
HETATM   15  C   UNL     1      39.689  -7.200  12.536  1.00  0.00     0.302 C 
HETATM   16  O   UNL     1      39.397  -6.332  11.725  1.00  0.00    -0.259 OA
BRANCH  15  17
HETATM   17  O   UNL     1      39.016  -8.384  12.674  1.00  0.00    -0.317 OA
BRANCH  17  18
HETATM   18  C   UNL     1      39.626  -9.525  12.055  1.00  0.00     0.174 C 
HETATM   19  C   UNL     1      39.749 -10.658  13.059  1.00  0.00     0.034 C 
ENDBRANCH  17  18
ENDBRANCH  15  17
ENDBRANCH   1  15
BRANCH   5  20
HETATM   20  C   UNL     1      42.800  -7.750  12.178  1.00  0.00     0.129 A 
HETATM   21  N   UNL     1      43.570  -8.816  12.172  1.00  0.00    -0.238 NA
HETATM   22  C   UNL     1      44.077  -9.029  10.902  1.00  0.00     0.075 A 
HETATM   23  C   UNL     1      44.915 -10.094  10.513  1.00  0.00     0.033 A 
HETATM   24  C   UNL     1      43.707  -8.084   9.944  1.00  0.00     0.035 A 
HETATM   25  C   UNL     1      45.355 -10.185   9.187  1.00  0.00     0.002 A 
HETATM   26  C   UNL     1      44.973  -9.230   8.250  1.00  0.00     0.002 A 
HETATM   27  C   UNL     1      44.145  -8.164   8.612  1.00  0.00     0.021 A 
HETATM   28  S   UNL     1      42.694  -6.909  10.684  1.00  0.00    -0.066 SA
ENDBRANCH   5  20
TORSDOF 6
ENDMDL
