MODEL 1
REMARK VINA RESULT:      -9.4      0.000      0.000
REMARK  7 active torsions:
REMARK  status: ('A' for Active; 'I' for Inactive)
REMARK    1  A    between atoms: C_4  and  N_5 
REMARK    2  A    between atoms: C_6  and  S_7 
REMARK    3  A    between atoms: S_7  and  C_8 
REMARK    4  A    between atoms: C_8  and  C_9 
REMARK       I    between atoms: C_9  and  N_10 
REMARK    5  A    between atoms: N_10  and  C_11 
REMARK    6  A    between atoms: C_14  and  C_15 
REMARK       I    between atoms: C_15  and  N_16 
REMARK    7  A    between atoms: C_23  and  C_24 
ROOT
HETATM    1  N   UNL     1      41.566 -12.911   5.983  1.00  0.00    -0.271 N 
HETATM    2  C   UNL     1      40.345 -12.256   6.061  1.00  0.00     0.197 A 
HETATM    3  N   UNL     1      39.388 -13.106   6.349  1.00  0.00    -0.122 NA
HETATM    4  N   UNL     1      39.951 -14.346   6.456  1.00  0.00    -0.128 NA
HETATM    5  C   UNL     1      41.237 -14.252   6.170  1.00  0.00     0.171 A 
ENDROOT
BRANCH   2   6
HETATM    6  S   UNL     1      40.112 -10.535   6.001  1.00  0.00    -0.080 SA
BRANCH   6   7
HETATM    7  C   UNL     1      38.965 -10.404   4.594  1.00  0.00     0.185 C 
BRANCH   7   8
HETATM    8  C   UNL     1      39.602 -10.953   3.325  1.00  0.00     0.231 C 
HETATM    9  N   UNL     1      38.769 -11.803   2.612  1.00  0.00    -0.327 N 
HETATM   10  H   UNL     1      37.882 -12.020   3.052  1.00  0.00     0.169 HD
HETATM   11  O   UNL     1      40.726 -10.594   2.984  1.00  0.00    -0.272 OA
BRANCH   9  12
HETATM   12  C   UNL     1      39.043 -12.468   1.401  1.00  0.00     0.034 A 
HETATM   13  C   UNL     1      39.808 -13.632   1.303  1.00  0.00     0.030 A 
HETATM   14  C   UNL     1      40.025 -14.243   0.060  1.00  0.00     0.019 A 
HETATM   15  C   UNL     1      39.485 -13.689  -1.105  1.00  0.00     0.032 A 
HETATM   16  C   UNL     1      38.711 -12.527  -1.008  1.00  0.00     0.019 A 
HETATM   17  C   UNL     1      38.496 -11.920   0.235  1.00  0.00     0.030 A 
BRANCH  15  18
HETATM   18  C   UNL     1      39.675 -14.298  -2.448  1.00  0.00     0.249 C 
HETATM   19  N   UNL     1      38.821 -15.296  -2.824  1.00  0.00    -0.366 N 
HETATM   20  H   UNL     1      38.199 -15.767  -2.183  1.00  0.00     0.159 HD
HETATM   21  H   UNL     1      39.025 -15.755  -3.703  1.00  0.00     0.159 HD
HETATM   22  O   UNL     1      40.585 -13.944  -3.189  1.00  0.00    -0.268 OA
ENDBRANCH  15  18
ENDBRANCH   9  12
ENDBRANCH   7   8
ENDBRANCH   6   7
ENDBRANCH   2   6
BRANCH   1  23
HETATM   23  C   UNL     1      42.862 -12.338   5.880  1.00  0.00     0.044 A 
HETATM   24  C   UNL     1      43.546 -11.906   7.023  1.00  0.00     0.037 A 
HETATM   25  C   UNL     1      44.829 -11.352   6.912  1.00  0.00    -0.060 A 
HETATM   26  C   UNL     1      45.584 -10.916   8.133  1.00  0.00     0.048 C 
HETATM   27  C   UNL     1      45.427 -11.256   5.649  1.00  0.00     0.007 A 
HETATM   28  C   UNL     1      44.748 -11.688   4.510  1.00  0.00     0.003 A 
HETATM   29  C   UNL     1      43.468 -12.228   4.621  1.00  0.00     0.030 A 
ENDBRANCH   1  23
BRANCH   5  30
HETATM   30  C   UNL     1      42.092 -15.472   5.992  1.00  0.00     0.040 A 
HETATM   31  C   UNL     1      42.408 -16.111   4.752  1.00  0.00     0.006 A 
HETATM   32  C   UNL     1      43.243 -17.192   5.047  1.00  0.00     0.043 A 
HETATM   33  C   UNL     1      42.051 -15.895   3.403  1.00  0.00     0.015 A 
HETATM   34  C   UNL     1      43.735 -18.062   4.067  1.00  0.00     0.030 A 
HETATM   35  N   UNL     1      43.447 -17.188   6.407  1.00  0.00    -0.364 N 
HETATM   36  C   UNL     1      43.362 -17.824   2.741  1.00  0.00     0.002 A 
HETATM   37  C   UNL     1      42.533 -16.757   2.412  1.00  0.00     0.001 A 
HETATM   38  H   UNL     1      44.029 -17.851   6.899  1.00  0.00     0.165 HD
HETATM   39  C   UNL     1      42.765 -16.150   6.987  1.00  0.00     0.104 A 
ENDBRANCH   5  30
TORSDOF 7
ENDMDL
MODEL 2
REMARK VINA RESULT:      -9.3      3.066      6.775
REMARK  7 active torsions:
REMARK  status: ('A' for Active; 'I' for Inactive)
REMARK    1  A    between atoms: C_4  and  N_5 
REMARK    2  A    between atoms: C_6  and  S_7 
REMARK    3  A    between atoms: S_7  and  C_8 
REMARK    4  A    between atoms: C_8  and  C_9 
REMARK       I    between atoms: C_9  and  N_10 
REMARK    5  A    between atoms: N_10  and  C_11 
REMARK    6  A    between atoms: C_14  and  C_15 
REMARK       I    between atoms: C_15  and  N_16 
REMARK    7  A    between atoms: C_23  and  C_24 
ROOT
HETATM    1  N   UNL     1      41.298 -11.442   5.132  1.00  0.00    -0.271 N 
HETATM    2  C   UNL     1      40.976 -11.071   3.834  1.00  0.00     0.197 A 
HETATM    3  N   UNL     1      41.243  -9.800   3.643  1.00  0.00    -0.122 NA
HETATM    4  N   UNL     1      41.736  -9.298   4.813  1.00  0.00    -0.128 NA
HETATM    5  C   UNL     1      41.707 -10.251   5.728  1.00  0.00     0.171 A 
ENDROOT
BRANCH   2   6
HETATM    6  S   UNL     1      40.489 -12.149   2.562  1.00  0.00    -0.080 SA
BRANCH   6   7
HETATM    7  C   UNL     1      42.048 -13.044   2.269  1.00  0.00     0.185 C 
BRANCH   7   8
HETATM    8  C   UNL     1      41.880 -14.529   2.560  1.00  0.00     0.231 C 
HETATM    9  N   UNL     1      43.080 -15.222   2.601  1.00  0.00    -0.327 N 
HETATM   10  H   UNL     1      43.906 -14.687   2.356  1.00  0.00     0.169 HD
HETATM   11  O   UNL     1      40.769 -15.000   2.790  1.00  0.00    -0.272 OA
BRANCH   9  12
HETATM   12  C   UNL     1      43.279 -16.595   2.853  1.00  0.00     0.034 A 
HETATM   13  C   UNL     1      43.007 -17.606   1.930  1.00  0.00     0.030 A 
HETATM   14  C   UNL     1      43.244 -18.951   2.252  1.00  0.00     0.019 A 
HETATM   15  C   UNL     1      43.750 -19.298   3.508  1.00  0.00     0.032 A 
HETATM   16  C   UNL     1      44.032 -18.285   4.432  1.00  0.00     0.019 A 
HETATM   17  C   UNL     1      43.794 -16.945   4.107  1.00  0.00     0.030 A 
BRANCH  15  18
HETATM   18  C   UNL     1      44.029 -20.706   3.900  1.00  0.00     0.249 C 
HETATM   19  N   UNL     1      44.337 -20.955   5.209  1.00  0.00    -0.366 N 
HETATM   20  H   UNL     1      44.568 -20.232   5.873  1.00  0.00     0.159 HD
HETATM   21  H   UNL     1      44.609 -21.905   5.433  1.00  0.00     0.159 HD
HETATM   22  O   UNL     1      44.016 -21.615   3.079  1.00  0.00    -0.268 OA
ENDBRANCH  15  18
ENDBRANCH   9  12
ENDBRANCH   7   8
ENDBRANCH   6   7
ENDBRANCH   2   6
BRANCH   1  23
HETATM   23  C   UNL     1      41.339 -12.751   5.683  1.00  0.00     0.044 A 
HETATM   24  C   UNL     1      42.560 -13.342   6.032  1.00  0.00     0.037 A 
HETATM   25  C   UNL     1      42.589 -14.630   6.586  1.00  0.00    -0.060 A 
HETATM   26  C   UNL     1      43.889 -15.260   6.994  1.00  0.00     0.048 C 
HETATM   27  C   UNL     1      41.384 -15.308   6.806  1.00  0.00     0.007 A 
HETATM   28  C   UNL     1      40.168 -14.721   6.461  1.00  0.00     0.003 A 
HETATM   29  C   UNL     1      40.141 -13.445   5.900  1.00  0.00     0.030 A 
ENDBRANCH   1  23
BRANCH   5  30
HETATM   30  C   UNL     1      41.984  -9.960   7.172  1.00  0.00     0.040 A 
HETATM   31  C   UNL     1      43.248 -10.082   7.834  1.00  0.00     0.006 A 
HETATM   32  C   UNL     1      43.056  -9.693   9.162  1.00  0.00     0.043 A 
HETATM   33  C   UNL     1      44.536 -10.506   7.443  1.00  0.00     0.015 A 
HETATM   34  C   UNL     1      44.083  -9.708  10.114  1.00  0.00     0.030 A 
HETATM   35  N   UNL     1      41.738  -9.324   9.291  1.00  0.00    -0.364 N 
HETATM   36  C   UNL     1      45.347 -10.135   9.698  1.00  0.00     0.002 A 
HETATM   37  C   UNL     1      45.573 -10.528   8.383  1.00  0.00     0.001 A 
HETATM   38  H   UNL     1      41.322  -8.980  10.145  1.00  0.00     0.165 HD
HETATM   39  C   UNL     1      41.084  -9.471   8.095  1.00  0.00     0.104 A 
ENDBRANCH   5  30
TORSDOF 7
ENDMDL
MODEL 3
REMARK VINA RESULT:      -8.8      4.506      8.215
REMARK  7 active torsions:
REMARK  status: ('A' for Active; 'I' for Inactive)
REMARK    1  A    between atoms: C_4  and  N_5 
REMARK    2  A    between atoms: C_6  and  S_7 
REMARK    3  A    between atoms: S_7  and  C_8 
REMARK    4  A    between atoms: C_8  and  C_9 
REMARK       I    between atoms: C_9  and  N_10 
REMARK    5  A    between atoms: N_10  and  C_11 
REMARK    6  A    between atoms: C_14  and  C_15 
REMARK       I    between atoms: C_15  and  N_16 
REMARK    7  A    between atoms: C_23  and  C_24 
ROOT
HETATM    1  N   UNL     1      42.259 -12.457   6.177  1.00  0.00    -0.271 N 
HETATM    2  C   UNL     1      41.055 -11.810   5.937  1.00  0.00     0.197 A 
HETATM    3  N   UNL     1      40.083 -12.684   5.823  1.00  0.00    -0.122 NA
HETATM    4  N   UNL     1      40.622 -13.930   5.973  1.00  0.00    -0.128 NA
HETATM    5  C   UNL     1      41.930 -13.810   6.113  1.00  0.00     0.171 A 
ENDROOT
BRANCH   2   6
HETATM    6  S   UNL     1      40.799 -10.093   5.984  1.00  0.00    -0.080 SA
BRANCH   6   7
HETATM    7  C   UNL     1      39.773  -9.950   7.482  1.00  0.00     0.185 C 
BRANCH   7   8
HETATM    8  C   UNL     1      40.531  -9.227   8.587  1.00  0.00     0.231 C 
HETATM    9  N   UNL     1      40.249  -9.710   9.856  1.00  0.00    -0.327 N 
HETATM   10  H   UNL     1      39.524 -10.417   9.906  1.00  0.00     0.169 HD
HETATM   11  O   UNL     1      41.347  -8.351   8.316  1.00  0.00    -0.272 OA
BRANCH   9  12
HETATM   12  C   UNL     1      40.780  -9.274  11.086  1.00  0.00     0.034 A 
HETATM   13  C   UNL     1      42.022  -9.669  11.586  1.00  0.00     0.030 A 
HETATM   14  C   UNL     1      42.488  -9.180  12.815  1.00  0.00     0.019 A 
HETATM   15  C   UNL     1      41.709  -8.292  13.563  1.00  0.00     0.032 A 
HETATM   16  C   UNL     1      40.468  -7.887  13.060  1.00  0.00     0.019 A 
HETATM   17  C   UNL     1      40.006  -8.378  11.833  1.00  0.00     0.030 A 
BRANCH  15  18
HETATM   18  C   UNL     1      42.156  -7.734  14.868  1.00  0.00     0.249 C 
HETATM   19  N   UNL     1      43.187  -6.838  14.860  1.00  0.00    -0.366 N 
HETATM   20  H   UNL     1      43.779  -6.679  14.058  1.00  0.00     0.159 HD
HETATM   21  H   UNL     1      43.531  -6.541  15.765  1.00  0.00     0.159 HD
HETATM   22  O   UNL     1      41.642  -8.084  15.924  1.00  0.00    -0.268 OA
ENDBRANCH  15  18
ENDBRANCH   9  12
ENDBRANCH   7   8
ENDBRANCH   6   7
ENDBRANCH   2   6
BRANCH   1  23
HETATM   23  C   UNL     1      43.505 -11.880   6.543  1.00  0.00     0.044 A 
HETATM   24  C   UNL     1      43.709 -11.377   7.834  1.00  0.00     0.037 A 
HETATM   25  C   UNL     1      44.945 -10.819   8.188  1.00  0.00    -0.060 A 
HETATM   26  C   UNL     1      45.185 -10.307   9.578  1.00  0.00     0.048 C 
HETATM   27  C   UNL     1      45.980 -10.791   7.245  1.00  0.00     0.007 A 
HETATM   28  C   UNL     1      45.779 -11.293   5.960  1.00  0.00     0.003 A 
HETATM   29  C   UNL     1      44.546 -11.837   5.605  1.00  0.00     0.030 A 
ENDBRANCH   1  23
BRANCH   5  30
HETATM   30  C   UNL     1      42.835 -15.005   6.088  1.00  0.00     0.040 A 
HETATM   31  C   UNL     1      42.998 -15.921   5.000  1.00  0.00     0.006 A 
HETATM   32  C   UNL     1      43.947 -16.866   5.396  1.00  0.00     0.043 A 
HETATM   33  C   UNL     1      42.417 -16.056   3.720  1.00  0.00     0.015 A 
HETATM   34  C   UNL     1      44.342 -17.934   4.582  1.00  0.00     0.030 A 
HETATM   35  N   UNL     1      44.362 -16.519   6.660  1.00  0.00    -0.364 N 
HETATM   36  C   UNL     1      43.748 -18.044   3.322  1.00  0.00     0.002 A 
HETATM   37  C   UNL     1      42.800 -17.120   2.894  1.00  0.00     0.001 A 
HETATM   38  H   UNL     1      45.062 -17.020   7.189  1.00  0.00     0.165 HD
HETATM   39  C   UNL     1      43.705 -15.393   7.084  1.00  0.00     0.104 A 
ENDBRANCH   5  30
TORSDOF 7
ENDMDL
MODEL 4
REMARK VINA RESULT:      -8.8      3.041      6.136
REMARK  7 active torsions:
REMARK  status: ('A' for Active; 'I' for Inactive)
REMARK    1  A    between atoms: C_4  and  N_5 
REMARK    2  A    between atoms: C_6  and  S_7 
REMARK    3  A    between atoms: S_7  and  C_8 
REMARK    4  A    between atoms: C_8  and  C_9 
REMARK       I    between atoms: C_9  and  N_10 
REMARK    5  A    between atoms: N_10  and  C_11 
REMARK    6  A    between atoms: C_14  and  C_15 
REMARK       I    between atoms: C_15  and  N_16 
REMARK    7  A    between atoms: C_23  and  C_24 
ROOT
HETATM    1  N   UNL     1      40.855 -10.396   5.807  1.00  0.00    -0.271 N 
HETATM    2  C   UNL     1      40.405  -9.718   4.682  1.00  0.00     0.197 A 
HETATM    3  N   UNL     1      40.577  -8.426   4.829  1.00  0.00    -0.122 NA
HETATM    4  N   UNL     1      41.134  -8.217   6.058  1.00  0.00    -0.128 NA
HETATM    5  C   UNL     1      41.239  -9.379   6.678  1.00  0.00     0.171 A 
ENDROOT
BRANCH   2   6
HETATM    6  S   UNL     1      39.880 -10.453   3.198  1.00  0.00    -0.080 SA
BRANCH   6   7
HETATM    7  C   UNL     1      41.426 -10.403   2.238  1.00  0.00     0.185 C 
BRANCH   7   8
HETATM    8  C   UNL     1      42.246 -11.665   2.469  1.00  0.00     0.231 C 
HETATM    9  N   UNL     1      41.559 -12.832   2.169  1.00  0.00    -0.327 N 
HETATM   10  H   UNL     1      40.584 -12.715   1.915  1.00  0.00     0.169 HD
HETATM   11  O   UNL     1      43.418 -11.592   2.827  1.00  0.00    -0.272 OA
BRANCH   9  12
HETATM   12  C   UNL     1      42.024 -14.159   2.262  1.00  0.00     0.034 A 
HETATM   13  C   UNL     1      43.263 -14.588   1.783  1.00  0.00     0.030 A 
HETATM   14  C   UNL     1      43.661 -15.926   1.925  1.00  0.00     0.019 A 
HETATM   15  C   UNL     1      42.816 -16.852   2.543  1.00  0.00     0.032 A 
HETATM   16  C   UNL     1      41.577 -16.423   3.031  1.00  0.00     0.019 A 
HETATM   17  C   UNL     1      41.184 -15.087   2.887  1.00  0.00     0.030 A 
BRANCH  15  18
HETATM   18  C   UNL     1      43.188 -18.280   2.729  1.00  0.00     0.249 C 
HETATM   19  N   UNL     1      44.119 -18.579   3.684  1.00  0.00    -0.366 N 
HETATM   20  H   UNL     1      44.698 -17.884   4.132  1.00  0.00     0.159 HD
HETATM   21  H   UNL     1      44.421 -19.544   3.731  1.00  0.00     0.159 HD
HETATM   22  O   UNL     1      42.704 -19.165   2.033  1.00  0.00    -0.268 OA
ENDBRANCH  15  18
ENDBRANCH   9  12
ENDBRANCH   7   8
ENDBRANCH   6   7
ENDBRANCH   2   6
BRANCH   1  23
HETATM   23  C   UNL     1      41.021 -11.797   5.976  1.00  0.00     0.044 A 
HETATM   24  C   UNL     1      42.300 -12.366   6.018  1.00  0.00     0.037 A 
HETATM   25  C   UNL     1      42.453 -13.749   6.197  1.00  0.00    -0.060 A 
HETATM   26  C   UNL     1      43.820 -14.364   6.276  1.00  0.00     0.048 C 
HETATM   27  C   UNL     1      41.316 -14.549   6.356  1.00  0.00     0.007 A 
HETATM   28  C   UNL     1      40.042 -13.984   6.316  1.00  0.00     0.003 A 
HETATM   29  C   UNL     1      39.890 -12.612   6.127  1.00  0.00     0.030 A 
ENDBRANCH   1  23
BRANCH   5  30
HETATM   30  C   UNL     1      41.617  -9.464   8.127  1.00  0.00     0.040 A 
HETATM   31  C   UNL     1      42.944  -9.575   8.651  1.00  0.00     0.006 A 
HETATM   32  C   UNL     1      42.836  -9.605  10.043  1.00  0.00     0.043 A 
HETATM   33  C   UNL     1      44.232  -9.677   8.081  1.00  0.00     0.015 A 
HETATM   34  C   UNL     1      43.944  -9.730  10.889  1.00  0.00     0.030 A 
HETATM   35  N   UNL     1      41.501  -9.486  10.349  1.00  0.00    -0.364 N 
HETATM   36  C   UNL     1      45.206  -9.832  10.297  1.00  0.00     0.002 A 
HETATM   37  C   UNL     1      45.350  -9.805   8.913  1.00  0.00     0.001 A 
HETATM   38  H   UNL     1      41.130  -9.459  11.289  1.00  0.00     0.165 HD
HETATM   39  C   UNL     1      40.757  -9.391   9.202  1.00  0.00     0.104 A 
ENDBRANCH   5  30
TORSDOF 7
ENDMDL
MODEL 5
REMARK VINA RESULT:      -8.6      5.171      9.587
REMARK  7 active torsions:
REMARK  status: ('A' for Active; 'I' for Inactive)
REMARK    1  A    between atoms: C_4  and  N_5 
REMARK    2  A    between atoms: C_6  and  S_7 
REMARK    3  A    between atoms: S_7  and  C_8 
REMARK    4  A    between atoms: C_8  and  C_9 
REMARK       I    between atoms: C_9  and  N_10 
REMARK    5  A    between atoms: N_10  and  C_11 
REMARK    6  A    between atoms: C_14  and  C_15 
REMARK       I    between atoms: C_15  and  N_16 
REMARK    7  A    between atoms: C_23  and  C_24 
ROOT
HETATM    1  N   UNL     1      42.616 -12.455   6.144  1.00  0.00    -0.271 N 
HETATM    2  C   UNL     1      43.240 -11.615   7.056  1.00  0.00     0.197 A 
HETATM    3  N   UNL     1      44.329 -12.177   7.524  1.00  0.00    -0.122 NA
HETATM    4  N   UNL     1      44.446 -13.407   6.942  1.00  0.00    -0.128 NA
HETATM    5  C   UNL     1      43.392 -13.612   6.171  1.00  0.00     0.171 A 
ENDROOT
BRANCH   2   6
HETATM    6  S   UNL     1      42.789  -9.971   7.394  1.00  0.00    -0.080 SA
BRANCH   6   7
HETATM    7  C   UNL     1      43.788  -9.651   8.882  1.00  0.00     0.185 C 
BRANCH   7   8
HETATM    8  C   UNL     1      42.912  -9.150  10.022  1.00  0.00     0.231 C 
HETATM    9  N   UNL     1      43.552  -9.152  11.252  1.00  0.00    -0.327 N 
HETATM   10  H   UNL     1      44.482  -9.556  11.263  1.00  0.00     0.169 HD
HETATM   11  O   UNL     1      41.776  -8.738   9.803  1.00  0.00    -0.272 OA
BRANCH   9  12
HETATM   12  C   UNL     1      43.034  -8.746  12.498  1.00  0.00     0.034 A 
HETATM   13  C   UNL     1      42.084  -9.467  13.223  1.00  0.00     0.030 A 
HETATM   14  C   UNL     1      41.626  -9.002  14.465  1.00  0.00     0.019 A 
HETATM   15  C   UNL     1      42.112  -7.801  14.992  1.00  0.00     0.032 A 
HETATM   16  C   UNL     1      43.071  -7.081  14.271  1.00  0.00     0.019 A 
HETATM   17  C   UNL     1      43.525  -7.548  13.032  1.00  0.00     0.030 A 
BRANCH  15  18
HETATM   18  C   UNL     1      41.670  -7.264  16.306  1.00  0.00     0.249 C 
HETATM   19  N   UNL     1      42.443  -6.304  16.897  1.00  0.00    -0.366 N 
HETATM   20  H   UNL     1      43.378  -6.079  16.593  1.00  0.00     0.159 HD
HETATM   21  H   UNL     1      42.170  -6.019  17.830  1.00  0.00     0.159 HD
HETATM   22  O   UNL     1      40.663  -7.683  16.864  1.00  0.00    -0.268 OA
ENDBRANCH  15  18
ENDBRANCH   9  12
ENDBRANCH   7   8
ENDBRANCH   6   7
ENDBRANCH   2   6
BRANCH   1  23
HETATM   23  C   UNL     1      41.529 -12.155   5.280  1.00  0.00     0.044 A 
HETATM   24  C   UNL     1      41.742 -11.491   4.065  1.00  0.00     0.037 A 
HETATM   25  C   UNL     1      40.664 -11.210   3.214  1.00  0.00    -0.060 A 
HETATM   26  C   UNL     1      40.886 -10.529   1.896  1.00  0.00     0.048 C 
HETATM   27  C   UNL     1      39.376 -11.620   3.582  1.00  0.00     0.007 A 
HETATM   28  C   UNL     1      39.163 -12.282   4.790  1.00  0.00     0.003 A 
HETATM   29  C   UNL     1      40.234 -12.551   5.640  1.00  0.00     0.030 A 
ENDBRANCH   1  23
BRANCH   5  30
HETATM   30  C   UNL     1      43.117 -14.952   5.559  1.00  0.00     0.040 A 
HETATM   31  C   UNL     1      43.114 -15.261   4.161  1.00  0.00     0.006 A 
HETATM   32  C   UNL     1      42.831 -16.623   4.041  1.00  0.00     0.043 A 
HETATM   33  C   UNL     1      43.303 -14.513   2.979  1.00  0.00     0.015 A 
HETATM   34  C   UNL     1      42.727 -17.272   2.805  1.00  0.00     0.030 A 
HETATM   35  N   UNL     1      42.697 -17.124   5.314  1.00  0.00    -0.364 N 
HETATM   36  C   UNL     1      42.916 -16.505   1.651  1.00  0.00     0.002 A 
HETATM   37  C   UNL     1      43.200 -15.146   1.735  1.00  0.00     0.001 A 
HETATM   38  H   UNL     1      42.508 -18.093   5.530  1.00  0.00     0.165 HD
HETATM   39  C   UNL     1      42.877 -16.128   6.239  1.00  0.00     0.104 A 
ENDBRANCH   5  30
TORSDOF 7
ENDMDL
MODEL 6
REMARK VINA RESULT:      -8.1      1.375      2.106
REMARK  7 active torsions:
REMARK  status: ('A' for Active; 'I' for Inactive)
REMARK    1  A    between atoms: C_4  and  N_5 
REMARK    2  A    between atoms: C_6  and  S_7 
REMARK    3  A    between atoms: S_7  and  C_8 
REMARK    4  A    between atoms: C_8  and  C_9 
REMARK       I    between atoms: C_9  and  N_10 
REMARK    5  A    between atoms: N_10  and  C_11 
REMARK    6  A    between atoms: C_14  and  C_15 
REMARK       I    between atoms: C_15  and  N_16 
REMARK    7  A    between atoms: C_23  and  C_24 
ROOT
HETATM    1  N   UNL     1      41.250 -12.322   5.723  1.00  0.00    -0.271 N 
HETATM    2  C   UNL     1      40.253 -11.533   6.279  1.00  0.00     0.197 A 
HETATM    3  N   UNL     1      39.187 -12.254   6.531  1.00  0.00    -0.122 NA
HETATM    4  N   UNL     1      39.448 -13.536   6.137  1.00  0.00    -0.128 NA
HETATM    5  C   UNL     1      40.649 -13.573   5.589  1.00  0.00     0.171 A 
ENDROOT
BRANCH   2   6
HETATM    6  S   UNL     1      40.429  -9.878   6.775  1.00  0.00    -0.080 SA
BRANCH   6   7
HETATM    7  C   UNL     1      39.087  -9.099   5.822  1.00  0.00     0.185 C 
BRANCH   7   8
HETATM    8  C   UNL     1      39.276  -9.339   4.331  1.00  0.00     0.231 C 
HETATM    9  N   UNL     1      38.612 -10.464   3.865  1.00  0.00    -0.327 N 
HETATM   10  H   UNL     1      38.157 -11.031   4.572  1.00  0.00     0.169 HD
HETATM   11  O   UNL     1      39.912  -8.544   3.645  1.00  0.00    -0.272 OA
BRANCH   9  12
HETATM   12  C   UNL     1      38.572 -10.961   2.547  1.00  0.00     0.034 A 
HETATM   13  C   UNL     1      37.781 -10.422   1.531  1.00  0.00     0.030 A 
HETATM   14  C   UNL     1      37.806 -10.966   0.239  1.00  0.00     0.019 A 
HETATM   15  C   UNL     1      38.620 -12.066  -0.049  1.00  0.00     0.032 A 
HETATM   16  C   UNL     1      39.420 -12.603   0.965  1.00  0.00     0.019 A 
HETATM   17  C   UNL     1      39.392 -12.057   2.253  1.00  0.00     0.030 A 
BRANCH  15  18
HETATM   18  C   UNL     1      38.693 -12.679  -1.403  1.00  0.00     0.249 C 
HETATM   19  N   UNL     1      37.744 -13.603  -1.738  1.00  0.00    -0.366 N 
HETATM   20  H   UNL     1      37.120 -14.027  -1.068  1.00  0.00     0.159 HD
HETATM   21  H   UNL     1      37.866 -14.070  -2.628  1.00  0.00     0.159 HD
HETATM   22  O   UNL     1      39.590 -12.393  -2.188  1.00  0.00    -0.268 OA
ENDBRANCH  15  18
ENDBRANCH   9  12
ENDBRANCH   7   8
ENDBRANCH   6   7
ENDBRANCH   2   6
BRANCH   1  23
HETATM   23  C   UNL     1      42.607 -11.977   5.480  1.00  0.00     0.044 A 
HETATM   24  C   UNL     1      43.476 -11.703   6.543  1.00  0.00     0.037 A 
HETATM   25  C   UNL     1      44.816 -11.374   6.294  1.00  0.00    -0.060 A 
HETATM   26  C   UNL     1      45.764 -11.111   7.427  1.00  0.00     0.048 C 
HETATM   27  C   UNL     1      45.280 -11.345   4.973  1.00  0.00     0.007 A 
HETATM   28  C   UNL     1      44.416 -11.619   3.913  1.00  0.00     0.003 A 
HETATM   29  C   UNL     1      43.081 -11.934   4.162  1.00  0.00     0.030 A 
ENDBRANCH   1  23
BRANCH   5  30
HETATM   30  C   UNL     1      41.145 -14.790   4.867  1.00  0.00     0.040 A 
HETATM   31  C   UNL     1      42.317 -15.546   5.186  1.00  0.00     0.006 A 
HETATM   32  C   UNL     1      42.387 -16.602   4.274  1.00  0.00     0.043 A 
HETATM   33  C   UNL     1      43.342 -15.429   6.149  1.00  0.00     0.015 A 
HETATM   34  C   UNL     1      43.426 -17.540   4.276  1.00  0.00     0.030 A 
HETATM   35  N   UNL     1      41.287 -16.504   3.455  1.00  0.00    -0.364 N 
HETATM   36  C   UNL     1      44.429 -17.396   5.239  1.00  0.00     0.002 A 
HETATM   37  C   UNL     1      44.389 -16.357   6.164  1.00  0.00     0.001 A 
HETATM   38  H   UNL     1      41.071 -17.152   2.710  1.00  0.00     0.165 HD
HETATM   39  C   UNL     1      40.525 -15.421   3.808  1.00  0.00     0.104 A 
ENDBRANCH   5  30
TORSDOF 7
ENDMDL
MODEL 7
REMARK VINA RESULT:      -8.1      4.798      8.169
REMARK  7 active torsions:
REMARK  status: ('A' for Active; 'I' for Inactive)
REMARK    1  A    between atoms: C_4  and  N_5 
REMARK    2  A    between atoms: C_6  and  S_7 
REMARK    3  A    between atoms: S_7  and  C_8 
REMARK    4  A    between atoms: C_8  and  C_9 
REMARK       I    between atoms: C_9  and  N_10 
REMARK    5  A    between atoms: N_10  and  C_11 
REMARK    6  A    between atoms: C_14  and  C_15 
REMARK       I    between atoms: C_15  and  N_16 
REMARK    7  A    between atoms: C_23  and  C_24 
ROOT
HETATM    1  N   UNL     1      40.509  -8.349   9.046  1.00  0.00    -0.271 N 
HETATM    2  C   UNL     1      39.564  -8.100   8.060  1.00  0.00     0.197 A 
HETATM    3  N   UNL     1      38.375  -7.954   8.595  1.00  0.00    -0.122 NA
HETATM    4  N   UNL     1      38.502  -8.114   9.945  1.00  0.00    -0.128 NA
HETATM    5  C   UNL     1      39.758  -8.420  10.218  1.00  0.00     0.171 A 
ENDROOT
BRANCH   2   6
HETATM    6  S   UNL     1      39.903  -7.809   6.382  1.00  0.00    -0.080 SA
BRANCH   6   7
HETATM    7  C   UNL     1      38.742  -8.975   5.601  1.00  0.00     0.185 C 
BRANCH   7   8
HETATM    8  C   UNL     1      39.040 -10.404   6.034  1.00  0.00     0.231 C 
HETATM    9  N   UNL     1      40.250 -10.884   5.556  1.00  0.00    -0.327 N 
HETATM   10  H   UNL     1      40.746 -10.271   4.919  1.00  0.00     0.169 HD
HETATM   11  O   UNL     1      38.275 -11.002   6.786  1.00  0.00    -0.272 OA
BRANCH   9  12
HETATM   12  C   UNL     1      40.826 -12.152   5.776  1.00  0.00     0.034 A 
HETATM   13  C   UNL     1      40.106 -13.347   5.782  1.00  0.00     0.030 A 
HETATM   14  C   UNL     1      40.754 -14.573   5.996  1.00  0.00     0.019 A 
HETATM   15  C   UNL     1      42.134 -14.612   6.215  1.00  0.00     0.032 A 
HETATM   16  C   UNL     1      42.860 -13.416   6.201  1.00  0.00     0.019 A 
HETATM   17  C   UNL     1      42.209 -12.195   5.987  1.00  0.00     0.030 A 
BRANCH  15  18
HETATM   18  C   UNL     1      42.876 -15.882   6.439  1.00  0.00     0.249 C 
HETATM   19  N   UNL     1      42.767 -16.479   7.664  1.00  0.00    -0.366 N 
HETATM   20  H   UNL     1      42.375 -16.020   8.472  1.00  0.00     0.159 HD
HETATM   21  H   UNL     1      43.350 -17.292   7.821  1.00  0.00     0.159 HD
HETATM   22  O   UNL     1      43.588 -16.370   5.569  1.00  0.00    -0.268 OA
ENDBRANCH  15  18
ENDBRANCH   9  12
ENDBRANCH   7   8
ENDBRANCH   6   7
ENDBRANCH   2   6
BRANCH   1  23
HETATM   23  C   UNL     1      41.923  -8.381   8.915  1.00  0.00     0.044 A 
HETATM   24  C   UNL     1      42.592  -9.585   8.663  1.00  0.00     0.037 A 
HETATM   25  C   UNL     1      43.987  -9.604   8.524  1.00  0.00    -0.060 A 
HETATM   26  C   UNL     1      44.709 -10.884   8.221  1.00  0.00     0.048 C 
HETATM   27  C   UNL     1      44.701  -8.404   8.617  1.00  0.00     0.007 A 
HETATM   28  C   UNL     1      44.037  -7.203   8.866  1.00  0.00     0.003 A 
HETATM   29  C   UNL     1      42.651  -7.187   9.016  1.00  0.00     0.030 A 
ENDBRANCH   1  23
BRANCH   5  30
HETATM   30  C   UNL     1      40.177  -8.866  11.587  1.00  0.00     0.040 A 
HETATM   31  C   UNL     1      41.049  -8.161  12.477  1.00  0.00     0.006 A 
HETATM   32  C   UNL     1      41.149  -8.923  13.643  1.00  0.00     0.043 A 
HETATM   33  C   UNL     1      41.784  -6.958  12.402  1.00  0.00     0.015 A 
HETATM   34  C   UNL     1      41.944  -8.545  14.732  1.00  0.00     0.030 A 
HETATM   35  N   UNL     1      40.349 -10.028  13.477  1.00  0.00    -0.364 N 
HETATM   36  C   UNL     1      42.662  -7.351  14.628  1.00  0.00     0.002 A 
HETATM   37  C   UNL     1      42.584  -6.567  13.481  1.00  0.00     0.001 A 
HETATM   38  H   UNL     1      40.215 -10.747  14.174  1.00  0.00     0.165 HD
HETATM   39  C   UNL     1      39.749 -10.000  12.244  1.00  0.00     0.104 A 
ENDBRANCH   5  30
TORSDOF 7
ENDMDL
MODEL 8
REMARK VINA RESULT:      -8.0     16.706     19.607
REMARK  7 active torsions:
REMARK  status: ('A' for Active; 'I' for Inactive)
REMARK    1  A    between atoms: C_4  and  N_5 
REMARK    2  A    between atoms: C_6  and  S_7 
REMARK    3  A    between atoms: S_7  and  C_8 
REMARK    4  A    between atoms: C_8  and  C_9 
REMARK       I    between atoms: C_9  and  N_10 
REMARK    5  A    between atoms: N_10  and  C_11 
REMARK    6  A    between atoms: C_14  and  C_15 
REMARK       I    between atoms: C_15  and  N_16 
REMARK    7  A    between atoms: C_23  and  C_24 
ROOT
HETATM    1  N   UNL     1      45.894 -29.155   0.059  1.00  0.00    -0.271 N 
HETATM    2  C   UNL     1      46.778 -28.597   0.973  1.00  0.00     0.197 A 
HETATM    3  N   UNL     1      47.577 -27.745   0.375  1.00  0.00    -0.122 NA
HETATM    4  N   UNL     1      47.249 -27.727  -0.950  1.00  0.00    -0.128 NA
HETATM    5  C   UNL     1      46.295 -28.616  -1.162  1.00  0.00     0.171 A 
ENDROOT
BRANCH   2   6
HETATM    6  S   UNL     1      46.725 -28.814   2.696  1.00  0.00    -0.080 SA
BRANCH   6   7
HETATM    7  C   UNL     1      48.435 -29.348   3.017  1.00  0.00     0.185 C 
BRANCH   7   8
HETATM    8  C   UNL     1      48.900 -30.336   1.956  1.00  0.00     0.231 C 
HETATM    9  N   UNL     1      49.838 -29.806   1.082  1.00  0.00    -0.327 N 
HETATM   10  H   UNL     1      50.038 -28.819   1.198  1.00  0.00     0.169 HD
HETATM   11  O   UNL     1      48.496 -31.496   1.961  1.00  0.00    -0.272 OA
BRANCH   9  12
HETATM   12  C   UNL     1      50.473 -30.449   0.001  1.00  0.00     0.034 A 
HETATM   13  C   UNL     1      51.467 -31.419   0.141  1.00  0.00     0.030 A 
HETATM   14  C   UNL     1      52.043 -32.023  -0.986  1.00  0.00     0.019 A 
HETATM   15  C   UNL     1      51.634 -31.654  -2.271  1.00  0.00     0.032 A 
HETATM   16  C   UNL     1      50.632 -30.688  -2.415  1.00  0.00     0.019 A 
HETATM   17  C   UNL     1      50.060 -30.088  -1.287  1.00  0.00     0.030 A 
BRANCH  15  18
HETATM   18  C   UNL     1      52.203 -32.267  -3.501  1.00  0.00     0.249 C 
HETATM   19  N   UNL     1      53.208 -31.598  -4.142  1.00  0.00    -0.366 N 
HETATM   20  H   UNL     1      53.453 -30.639  -3.943  1.00  0.00     0.159 HD
HETATM   21  H   UNL     1      53.517 -31.988  -5.024  1.00  0.00     0.159 HD
HETATM   22  O   UNL     1      51.771 -33.321  -3.951  1.00  0.00    -0.268 OA
ENDBRANCH  15  18
ENDBRANCH   9  12
ENDBRANCH   7   8
ENDBRANCH   6   7
ENDBRANCH   2   6
BRANCH   1  23
HETATM   23  C   UNL     1      44.760 -29.969   0.322  1.00  0.00     0.044 A 
HETATM   24  C   UNL     1      44.818 -31.356   0.141  1.00  0.00     0.037 A 
HETATM   25  C   UNL     1      43.696 -32.152   0.414  1.00  0.00    -0.060 A 
HETATM   26  C   UNL     1      43.758 -33.643   0.255  1.00  0.00     0.048 C 
HETATM   27  C   UNL     1      42.527 -31.548   0.891  1.00  0.00     0.007 A 
HETATM   28  C   UNL     1      42.469 -30.167   1.074  1.00  0.00     0.003 A 
HETATM   29  C   UNL     1      43.580 -29.375   0.791  1.00  0.00     0.030 A 
ENDBRANCH   1  23
BRANCH   5  30
HETATM   30  C   UNL     1      45.863 -28.988  -2.549  1.00  0.00     0.040 A 
HETATM   31  C   UNL     1      46.169 -30.207  -3.234  1.00  0.00     0.006 A 
HETATM   32  C   UNL     1      45.554 -30.141  -4.486  1.00  0.00     0.043 A 
HETATM   33  C   UNL     1      46.929 -31.355  -2.925  1.00  0.00     0.015 A 
HETATM   34  C   UNL     1      45.660 -31.161  -5.440  1.00  0.00     0.030 A 
HETATM   35  N   UNL     1      44.879 -28.945  -4.545  1.00  0.00    -0.364 N 
HETATM   36  C   UNL     1      46.420 -32.285  -5.106  1.00  0.00     0.002 A 
HETATM   37  C   UNL     1      47.046 -32.383  -3.867  1.00  0.00     0.001 A 
HETATM   38  H   UNL     1      44.326 -28.639  -5.334  1.00  0.00     0.165 HD
HETATM   39  C   UNL     1      45.050 -28.244  -3.379  1.00  0.00     0.104 A 
ENDBRANCH   5  30
TORSDOF 7
ENDMDL
MODEL 9
REMARK VINA RESULT:      -7.9      3.605      6.026
REMARK  7 active torsions:
REMARK  status: ('A' for Active; 'I' for Inactive)
REMARK    1  A    between atoms: C_4  and  N_5 
REMARK    2  A    between atoms: C_6  and  S_7 
REMARK    3  A    between atoms: S_7  and  C_8 
REMARK    4  A    between atoms: C_8  and  C_9 
REMARK       I    between atoms: C_9  and  N_10 
REMARK    5  A    between atoms: N_10  and  C_11 
REMARK    6  A    between atoms: C_14  and  C_15 
REMARK       I    between atoms: C_15  and  N_16 
REMARK    7  A    between atoms: C_23  and  C_24 
ROOT
HETATM    1  N   UNL     1      42.293 -12.663   4.306  1.00  0.00    -0.271 N 
HETATM    2  C   UNL     1      42.316 -12.550   2.923  1.00  0.00     0.197 A 
HETATM    3  N   UNL     1      42.780 -11.375   2.569  1.00  0.00    -0.122 NA
HETATM    4  N   UNL     1      43.064 -10.678   3.708  1.00  0.00    -0.128 NA
HETATM    5  C   UNL     1      42.711 -11.410   4.750  1.00  0.00     0.171 A 
ENDROOT
BRANCH   2   6
HETATM    6  S   UNL     1      41.986 -13.830   1.796  1.00  0.00    -0.080 SA
BRANCH   6   7
HETATM    7  C   UNL     1      40.410 -13.254   1.090  1.00  0.00     0.185 C 
BRANCH   7   8
HETATM    8  C   UNL     1      40.641 -12.545  -0.238  1.00  0.00     0.231 C 
HETATM    9  N   UNL     1      40.952 -11.201  -0.099  1.00  0.00    -0.327 N 
HETATM   10  H   UNL     1      40.908 -10.835   0.846  1.00  0.00     0.169 HD
HETATM   11  O   UNL     1      40.604 -13.170  -1.294  1.00  0.00    -0.272 OA
BRANCH   9  12
HETATM   12  C   UNL     1      41.231 -10.268  -1.117  1.00  0.00     0.034 A 
HETATM   13  C   UNL     1      40.623 -10.276  -2.374  1.00  0.00     0.030 A 
HETATM   14  C   UNL     1      40.945  -9.303  -3.331  1.00  0.00     0.019 A 
HETATM   15  C   UNL     1      41.888  -8.312  -3.042  1.00  0.00     0.032 A 
HETATM   16  C   UNL     1      42.493  -8.296  -1.780  1.00  0.00     0.019 A 
HETATM   17  C   UNL     1      42.168  -9.269  -0.828  1.00  0.00     0.030 A 
BRANCH  15  18
HETATM   18  C   UNL     1      42.262  -7.251  -4.015  1.00  0.00     0.249 C 
HETATM   19  N   UNL     1      41.924  -7.438  -5.326  1.00  0.00    -0.366 N 
HETATM   20  H   UNL     1      41.611  -8.322  -5.698  1.00  0.00     0.159 HD
HETATM   21  H   UNL     1      42.267  -6.746  -5.981  1.00  0.00     0.159 HD
HETATM   22  O   UNL     1      42.880  -6.252  -3.667  1.00  0.00    -0.268 OA
ENDBRANCH  15  18
ENDBRANCH   9  12
ENDBRANCH   7   8
ENDBRANCH   6   7
ENDBRANCH   2   6
BRANCH   1  23
HETATM   23  C   UNL     1      42.041 -13.824   5.086  1.00  0.00     0.044 A 
HETATM   24  C   UNL     1      43.090 -14.668   5.470  1.00  0.00     0.037 A 
HETATM   25  C   UNL     1      42.833 -15.806   6.249  1.00  0.00    -0.060 A 
HETATM   26  C   UNL     1      43.954 -16.699   6.694  1.00  0.00     0.048 C 
HETATM   27  C   UNL     1      41.521 -16.074   6.657  1.00  0.00     0.007 A 
HETATM   28  C   UNL     1      40.475 -15.234   6.276  1.00  0.00     0.003 A 
HETATM   29  C   UNL     1      40.731 -14.110   5.493  1.00  0.00     0.030 A 
ENDBRANCH   1  23
BRANCH   5  30
HETATM   30  C   UNL     1      42.698 -10.842   6.138  1.00  0.00     0.040 A 
HETATM   31  C   UNL     1      43.834 -10.656   6.988  1.00  0.00     0.006 A 
HETATM   32  C   UNL     1      43.371 -10.085   8.176  1.00  0.00     0.043 A 
HETATM   33  C   UNL     1      45.214 -10.935   6.877  1.00  0.00     0.015 A 
HETATM   34  C   UNL     1      44.213  -9.782   9.252  1.00  0.00     0.030 A 
HETATM   35  N   UNL     1      42.015  -9.907   8.039  1.00  0.00    -0.364 N 
HETATM   36  C   UNL     1      45.573 -10.073   9.115  1.00  0.00     0.002 A 
HETATM   37  C   UNL     1      46.069 -10.640   7.945  1.00  0.00     0.001 A 
HETATM   38  H   UNL     1      41.419  -9.494   8.742  1.00  0.00     0.165 HD
HETATM   39  C   UNL     1      41.598 -10.351   6.810  1.00  0.00     0.104 A 
ENDBRANCH   5  30
TORSDOF 7
ENDMDL
MODEL 10
REMARK VINA RESULT:      -7.9      4.876      8.186
REMARK  7 active torsions:
REMARK  status: ('A' for Active; 'I' for Inactive)
REMARK    1  A    between atoms: C_4  and  N_5 
REMARK    2  A    between atoms: C_6  and  S_7 
REMARK    3  A    between atoms: S_7  and  C_8 
REMARK    4  A    between atoms: C_8  and  C_9 
REMARK       I    between atoms: C_9  and  N_10 
REMARK    5  A    between atoms: N_10  and  C_11 
REMARK    6  A    between atoms: C_14  and  C_15 
REMARK       I    between atoms: C_15  and  N_16 
REMARK    7  A    between atoms: C_23  and  C_24 
ROOT
HETATM    1  N   UNL     1      40.957  -9.108   8.816  1.00  0.00    -0.271 N 
HETATM    2  C   UNL     1      40.384  -9.617   7.659  1.00  0.00     0.197 A 
HETATM    3  N   UNL     1      39.228  -9.040   7.430  1.00  0.00    -0.122 NA
HETATM    4  N   UNL     1      39.003  -8.144   8.436  1.00  0.00    -0.128 NA
HETATM    5  C   UNL     1      39.994  -8.227   9.305  1.00  0.00     0.171 A 
ENDROOT
BRANCH   2   6
HETATM    6  S   UNL     1      41.151 -10.704   6.541  1.00  0.00    -0.080 SA
BRANCH   6   7
HETATM    7  C   UNL     1      39.739 -11.757   6.080  1.00  0.00     0.185 C 
BRANCH   7   8
HETATM    8  C   UNL     1      40.180 -13.203   5.902  1.00  0.00     0.231 C 
HETATM    9  N   UNL     1      41.123 -13.374   4.900  1.00  0.00    -0.327 N 
HETATM   10  H   UNL     1      41.342 -12.546   4.357  1.00  0.00     0.169 HD
HETATM   11  O   UNL     1      39.754 -14.082   6.647  1.00  0.00    -0.272 OA
BRANCH   9  12
HETATM   12  C   UNL     1      41.741 -14.571   4.488  1.00  0.00     0.034 A 
HETATM   13  C   UNL     1      42.964 -15.030   4.980  1.00  0.00     0.030 A 
HETATM   14  C   UNL     1      43.509 -16.241   4.528  1.00  0.00     0.019 A 
HETATM   15  C   UNL     1      42.836 -17.004   3.569  1.00  0.00     0.032 A 
HETATM   16  C   UNL     1      41.605 -16.551   3.080  1.00  0.00     0.019 A 
HETATM   17  C   UNL     1      41.065 -15.341   3.534  1.00  0.00     0.030 A 
BRANCH  15  18
HETATM   18  C   UNL     1      43.361 -18.299   3.060  1.00  0.00     0.249 C 
HETATM   19  N   UNL     1      44.402 -18.875   3.732  1.00  0.00    -0.366 N 
HETATM   20  H   UNL     1      44.951 -18.391   4.427  1.00  0.00     0.159 HD
HETATM   21  H   UNL     1      44.800 -19.708   3.316  1.00  0.00     0.159 HD
HETATM   22  O   UNL     1      42.902 -18.826   2.054  1.00  0.00    -0.268 OA
ENDBRANCH  15  18
ENDBRANCH   9  12
ENDBRANCH   7   8
ENDBRANCH   6   7
ENDBRANCH   2   6
BRANCH   1  23
HETATM   23  C   UNL     1      42.272  -9.323   9.309  1.00  0.00     0.044 A 
HETATM   24  C   UNL     1      43.390  -8.972   8.542  1.00  0.00     0.037 A 
HETATM   25  C   UNL     1      44.684  -9.178   9.042  1.00  0.00    -0.060 A 
HETATM   26  C   UNL     1      45.888  -8.776   8.243  1.00  0.00     0.048 C 
HETATM   27  C   UNL     1      44.844  -9.716  10.325  1.00  0.00     0.007 A 
HETATM   28  C   UNL     1      43.732 -10.064  11.091  1.00  0.00     0.003 A 
HETATM   29  C   UNL     1      42.447  -9.870  10.588  1.00  0.00     0.030 A 
ENDBRANCH   1  23
BRANCH   5  30
HETATM   30  C   UNL     1      39.937  -7.525  10.629  1.00  0.00     0.040 A 
HETATM   31  C   UNL     1      40.790  -6.461  11.061  1.00  0.00     0.006 A 
HETATM   32  C   UNL     1      40.375  -6.095  12.343  1.00  0.00     0.043 A 
HETATM   33  C   UNL     1      41.893  -5.782  10.499  1.00  0.00     0.015 A 
HETATM   34  C   UNL     1      41.004  -5.090  13.088  1.00  0.00     0.030 A 
HETATM   35  N   UNL     1      39.297  -6.886  12.662  1.00  0.00    -0.364 N 
HETATM   36  C   UNL     1      42.095  -4.437  12.507  1.00  0.00     0.002 A 
HETATM   37  C   UNL     1      42.534  -4.776  11.231  1.00  0.00     0.001 A 
HETATM   38  H   UNL     1      38.780  -6.825  13.529  1.00  0.00     0.165 HD
HETATM   39  C   UNL     1      39.017  -7.746  11.632  1.00  0.00     0.104 A 
ENDBRANCH   5  30
TORSDOF 7
ENDMDL
