MODEL 1
REMARK VINA RESULT:      -9.1      0.000      0.000
REMARK  6 active torsions:
REMARK  status: ('A' for Active; 'I' for Inactive)
REMARK    1  A    between atoms: C_8  and  C_9 
REMARK    2  A    between atoms: C_9  and  C_10 
REMARK       I    between atoms: C_10  and  N_11 
REMARK    3  A    between atoms: N_11  and  C_12 
REMARK    4  A    between atoms: C_12  and  C_13 
REMARK    5  A    between atoms: C_16  and  N_17 
REMARK       I    between atoms: N_17  and  C_18 
REMARK    6  A    between atoms: C_18  and  C_19 
ROOT
HETATM    1  C   UNL     1      41.495 -12.969   2.234  1.00  0.00     0.161 C 
ENDROOT
BRANCH   1   2
HETATM    2  N   UNL     1      41.686 -14.389   2.076  1.00  0.00    -0.357 N 
HETATM    3  C   UNL     1      42.947 -14.910   1.890  1.00  0.00     0.222 C 
HETATM    4  O   UNL     1      43.950 -14.205   1.798  1.00  0.00    -0.273 OA
HETATM    5  H   UNL     1      40.881 -15.002   2.090  1.00  0.00     0.162 HD
BRANCH   3   6
HETATM    6  C   UNL     1      43.009 -16.421   1.848  1.00  0.00     0.143 C 
BRANCH   6   7
HETATM    7  C   UNL     1      43.295 -17.120   3.145  1.00  0.00    -0.022 A 
HETATM    8  C   UNL     1      43.521 -18.510   3.440  1.00  0.00    -0.001 A 
HETATM    9  C   UNL     1      43.583 -19.702   2.684  1.00  0.00     0.014 A 
HETATM   10  C   UNL     1      43.717 -18.615   4.821  1.00  0.00     0.042 A 
HETATM   11  C   UNL     1      43.810 -20.929   3.320  1.00  0.00     0.001 A 
HETATM   12  C   UNL     1      43.988 -20.991   4.697  1.00  0.00     0.002 A 
HETATM   13  C   UNL     1      43.950 -19.834   5.474  1.00  0.00     0.030 A 
HETATM   14  N   UNL     1      43.643 -17.348   5.343  1.00  0.00    -0.365 N 
HETATM   15  H   UNL     1      43.763 -17.124   6.321  1.00  0.00     0.165 HD
HETATM   16  C   UNL     1      43.386 -16.446   4.352  1.00  0.00     0.097 A 
ENDBRANCH   6   7
ENDBRANCH   3   6
ENDBRANCH   1   2
BRANCH   1  17
HETATM   17  C   UNL     1      41.922 -12.493   3.595  1.00  0.00    -0.040 A 
HETATM   18  C   UNL     1      42.725 -11.354   3.736  1.00  0.00     0.011 A 
HETATM   19  C   UNL     1      43.085 -10.887   5.007  1.00  0.00     0.030 A 
HETATM   20  C   UNL     1      42.651 -11.550   6.155  1.00  0.00     0.035 A 
HETATM   21  C   UNL     1      41.881 -12.711   6.012  1.00  0.00     0.030 A 
HETATM   22  C   UNL     1      41.525 -13.182   4.745  1.00  0.00     0.011 A 
BRANCH  20  23
HETATM   23  N   UNL     1      42.912 -11.113   7.466  1.00  0.00    -0.321 N 
HETATM   24  C   UNL     1      44.113 -11.112   8.152  1.00  0.00     0.279 C 
HETATM   25  O   UNL     1      45.170 -11.582   7.742  1.00  0.00    -0.265 OA
HETATM   26  H   UNL     1      42.138 -10.700   7.976  1.00  0.00     0.169 HD
BRANCH  24  27
HETATM   27  C   UNL     1      44.010 -10.467   9.450  1.00  0.00     0.142 A 
HETATM   28  O   UNL     1      43.598 -11.199  10.537  1.00  0.00    -0.317 OA
HETATM   29  C   UNL     1      43.572 -10.355  11.600  1.00  0.00     0.143 A 
HETATM   30  C   UNL     1      43.962  -9.092  11.225  1.00  0.00     0.027 A 
HETATM   31  C   UNL     1      44.248  -9.163   9.840  1.00  0.00     0.045 A 
ENDBRANCH  24  27
ENDBRANCH  20  23
ENDBRANCH   1  17
TORSDOF 6
ENDMDL
MODEL 2
REMARK VINA RESULT:      -8.9      3.870      7.564
REMARK  6 active torsions:
REMARK  status: ('A' for Active; 'I' for Inactive)
REMARK    1  A    between atoms: C_8  and  C_9 
REMARK    2  A    between atoms: C_9  and  C_10 
REMARK       I    between atoms: C_10  and  N_11 
REMARK    3  A    between atoms: N_11  and  C_12 
REMARK    4  A    between atoms: C_12  and  C_13 
REMARK    5  A    between atoms: C_16  and  N_17 
REMARK       I    between atoms: N_17  and  C_18 
REMARK    6  A    between atoms: C_18  and  C_19 
ROOT
HETATM    1  C   UNL     1      41.527 -15.079   6.314  1.00  0.00     0.161 C 
ENDROOT
BRANCH   1   2
HETATM    2  N   UNL     1      41.942 -16.434   6.574  1.00  0.00    -0.357 N 
HETATM    3  C   UNL     1      43.278 -16.769   6.583  1.00  0.00     0.222 C 
HETATM    4  O   UNL     1      44.167 -15.960   6.322  1.00  0.00    -0.273 OA
HETATM    5  H   UNL     1      41.240 -17.145   6.740  1.00  0.00     0.162 HD
BRANCH   3   6
HETATM    6  C   UNL     1      43.571 -18.199   6.977  1.00  0.00     0.143 C 
BRANCH   6   7
HETATM    7  C   UNL     1      43.686 -19.195   5.861  1.00  0.00    -0.022 A 
HETATM    8  C   UNL     1      43.650 -19.023   4.432  1.00  0.00    -0.001 A 
HETATM    9  C   UNL     1      43.522 -17.924   3.554  1.00  0.00     0.014 A 
HETATM   10  C   UNL     1      43.780 -20.293   3.858  1.00  0.00     0.042 A 
HETATM   11  C   UNL     1      43.506 -18.128   2.168  1.00  0.00     0.001 A 
HETATM   12  C   UNL     1      43.626 -19.406   1.638  1.00  0.00     0.002 A 
HETATM   13  C   UNL     1      43.771 -20.514   2.474  1.00  0.00     0.030 A 
HETATM   14  N   UNL     1      43.917 -21.195   4.883  1.00  0.00    -0.365 N 
HETATM   15  H   UNL     1      44.045 -22.189   4.757  1.00  0.00     0.165 HD
HETATM   16  C   UNL     1      43.857 -20.552   6.086  1.00  0.00     0.097 A 
ENDBRANCH   6   7
ENDBRANCH   3   6
ENDBRANCH   1   2
BRANCH   1  17
HETATM   17  C   UNL     1      41.022 -14.907   4.908  1.00  0.00    -0.040 A 
HETATM   18  C   UNL     1      40.723 -16.019   4.112  1.00  0.00     0.011 A 
HETATM   19  C   UNL     1      40.211 -15.857   2.819  1.00  0.00     0.030 A 
HETATM   20  C   UNL     1      39.992 -14.581   2.299  1.00  0.00     0.035 A 
HETATM   21  C   UNL     1      40.328 -13.468   3.080  1.00  0.00     0.030 A 
HETATM   22  C   UNL     1      40.843 -13.628   4.369  1.00  0.00     0.011 A 
BRANCH  20  23
HETATM   23  N   UNL     1      39.421 -14.329   1.038  1.00  0.00    -0.321 N 
HETATM   24  C   UNL     1      39.973 -13.660  -0.040  1.00  0.00     0.279 C 
HETATM   25  O   UNL     1      41.060 -13.090  -0.046  1.00  0.00    -0.265 OA
HETATM   26  H   UNL     1      38.501 -14.718   0.863  1.00  0.00     0.169 HD
BRANCH  24  27
HETATM   27  C   UNL     1      39.122 -13.707  -1.217  1.00  0.00     0.142 A 
HETATM   28  O   UNL     1      39.273 -14.731  -2.120  1.00  0.00    -0.317 OA
HETATM   29  C   UNL     1      38.378 -14.518  -3.118  1.00  0.00     0.143 A 
HETATM   30  C   UNL     1      37.647 -13.379  -2.879  1.00  0.00     0.027 A 
HETATM   31  C   UNL     1      38.123 -12.856  -1.652  1.00  0.00     0.045 A 
ENDBRANCH  24  27
ENDBRANCH  20  23
ENDBRANCH   1  17
TORSDOF 6
ENDMDL
MODEL 3
REMARK VINA RESULT:      -8.9      1.776      2.626
REMARK  6 active torsions:
REMARK  status: ('A' for Active; 'I' for Inactive)
REMARK    1  A    between atoms: C_8  and  C_9 
REMARK    2  A    between atoms: C_9  and  C_10 
REMARK       I    between atoms: C_10  and  N_11 
REMARK    3  A    between atoms: N_11  and  C_12 
REMARK    4  A    between atoms: C_12  and  C_13 
REMARK    5  A    between atoms: C_16  and  N_17 
REMARK       I    between atoms: N_17  and  C_18 
REMARK    6  A    between atoms: C_18  and  C_19 
ROOT
HETATM    1  C   UNL     1      39.317 -13.159   2.728  1.00  0.00     0.161 C 
ENDROOT
BRANCH   1   2
HETATM    2  N   UNL     1      39.557 -14.564   2.521  1.00  0.00    -0.357 N 
HETATM    3  C   UNL     1      40.645 -14.988   1.789  1.00  0.00     0.222 C 
HETATM    4  O   UNL     1      41.421 -14.208   1.241  1.00  0.00    -0.273 OA
HETATM    5  H   UNL     1      38.912 -15.241   2.908  1.00  0.00     0.162 HD
BRANCH   3   6
HETATM    6  C   UNL     1      40.833 -16.488   1.744  1.00  0.00     0.143 C 
BRANCH   6   7
HETATM    7  C   UNL     1      41.969 -17.049   2.547  1.00  0.00    -0.022 A 
HETATM    8  C   UNL     1      42.547 -16.622   3.794  1.00  0.00    -0.001 A 
HETATM    9  C   UNL     1      42.290 -15.587   4.720  1.00  0.00     0.014 A 
HETATM   10  C   UNL     1      43.605 -17.493   4.081  1.00  0.00     0.042 A 
HETATM   11  C   UNL     1      43.091 -15.446   5.861  1.00  0.00     0.001 A 
HETATM   12  C   UNL     1      44.139 -16.326   6.103  1.00  0.00     0.002 A 
HETATM   13  C   UNL     1      44.413 -17.370   5.220  1.00  0.00     0.030 A 
HETATM   14  N   UNL     1      43.654 -18.423   3.075  1.00  0.00    -0.365 N 
HETATM   15  H   UNL     1      44.315 -19.187   3.033  1.00  0.00     0.165 HD
HETATM   16  C   UNL     1      42.685 -18.166   2.148  1.00  0.00     0.097 A 
ENDBRANCH   6   7
ENDBRANCH   3   6
ENDBRANCH   1   2
BRANCH   1  17
HETATM   17  C   UNL     1      40.113 -12.617   3.884  1.00  0.00    -0.040 A 
HETATM   18  C   UNL     1      39.806 -12.982   5.200  1.00  0.00     0.011 A 
HETATM   19  C   UNL     1      40.576 -12.512   6.271  1.00  0.00     0.030 A 
HETATM   20  C   UNL     1      41.664 -11.668   6.044  1.00  0.00     0.035 A 
HETATM   21  C   UNL     1      41.948 -11.272   4.731  1.00  0.00     0.030 A 
HETATM   22  C   UNL     1      41.177 -11.736   3.662  1.00  0.00     0.011 A 
BRANCH  20  23
HETATM   23  N   UNL     1      42.527 -11.203   7.053  1.00  0.00    -0.321 N 
HETATM   24  C   UNL     1      43.840 -11.563   7.297  1.00  0.00     0.279 C 
HETATM   25  O   UNL     1      44.465 -12.434   6.701  1.00  0.00    -0.265 OA
HETATM   26  H   UNL     1      42.171 -10.477   7.665  1.00  0.00     0.169 HD
BRANCH  24  27
HETATM   27  C   UNL     1      44.443 -10.775   8.359  1.00  0.00     0.142 A 
HETATM   28  O   UNL     1      44.044 -10.976   9.658  1.00  0.00    -0.317 OA
HETATM   29  C   UNL     1      44.743 -10.104  10.430  1.00  0.00     0.143 A 
HETATM   30  C   UNL     1      45.589  -9.346   9.658  1.00  0.00     0.027 A 
HETATM   31  C   UNL     1      45.399  -9.778   8.323  1.00  0.00     0.045 A 
ENDBRANCH  24  27
ENDBRANCH  20  23
ENDBRANCH   1  17
TORSDOF 6
ENDMDL
MODEL 4
REMARK VINA RESULT:      -8.8      3.216      7.565
REMARK  6 active torsions:
REMARK  status: ('A' for Active; 'I' for Inactive)
REMARK    1  A    between atoms: C_8  and  C_9 
REMARK    2  A    between atoms: C_9  and  C_10 
REMARK       I    between atoms: C_10  and  N_11 
REMARK    3  A    between atoms: N_11  and  C_12 
REMARK    4  A    between atoms: C_12  and  C_13 
REMARK    5  A    between atoms: C_16  and  N_17 
REMARK       I    between atoms: N_17  and  C_18 
REMARK    6  A    between atoms: C_18  and  C_19 
ROOT
HETATM    1  C   UNL     1      41.375 -12.085   6.003  1.00  0.00     0.161 C 
ENDROOT
BRANCH   1   2
HETATM    2  N   UNL     1      42.402 -13.027   6.369  1.00  0.00    -0.357 N 
HETATM    3  C   UNL     1      42.076 -14.324   6.702  1.00  0.00     0.222 C 
HETATM    4  O   UNL     1      40.915 -14.723   6.755  1.00  0.00    -0.273 OA
HETATM    5  H   UNL     1      43.368 -12.725   6.392  1.00  0.00     0.162 HD
BRANCH   3   6
HETATM    6  C   UNL     1      43.260 -15.229   6.959  1.00  0.00     0.143 C 
BRANCH   6   7
HETATM    7  C   UNL     1      43.423 -16.403   6.039  1.00  0.00    -0.022 A 
HETATM    8  C   UNL     1      43.347 -16.499   4.605  1.00  0.00    -0.001 A 
HETATM    9  C   UNL     1      43.124 -15.590   3.547  1.00  0.00     0.014 A 
HETATM   10  C   UNL     1      43.554 -17.841   4.267  1.00  0.00     0.042 A 
HETATM   11  C   UNL     1      43.095 -16.045   2.222  1.00  0.00     0.001 A 
HETATM   12  C   UNL     1      43.294 -17.389   1.930  1.00  0.00     0.002 A 
HETATM   13  C   UNL     1      43.533 -18.312   2.947  1.00  0.00     0.030 A 
HETATM   14  N   UNL     1      43.774 -18.528   5.434  1.00  0.00    -0.365 N 
HETATM   15  H   UNL     1      43.968 -19.518   5.487  1.00  0.00     0.165 HD
HETATM   16  C   UNL     1      43.693 -17.681   6.501  1.00  0.00     0.097 A 
ENDBRANCH   6   7
ENDBRANCH   3   6
ENDBRANCH   1   2
BRANCH   1  17
HETATM   17  C   UNL     1      40.939 -12.256   4.574  1.00  0.00    -0.040 A 
HETATM   18  C   UNL     1      41.846 -12.082   3.522  1.00  0.00     0.011 A 
HETATM   19  C   UNL     1      41.449 -12.285   2.194  1.00  0.00     0.030 A 
HETATM   20  C   UNL     1      40.140 -12.664   1.896  1.00  0.00     0.035 A 
HETATM   21  C   UNL     1      39.223 -12.801   2.946  1.00  0.00     0.030 A 
HETATM   22  C   UNL     1      39.616 -12.593   4.271  1.00  0.00     0.011 A 
BRANCH  20  23
HETATM   23  N   UNL     1      39.676 -12.952   0.600  1.00  0.00    -0.321 N 
HETATM   24  C   UNL     1      39.817 -14.120  -0.127  1.00  0.00     0.279 C 
HETATM   25  O   UNL     1      40.460 -15.105   0.222  1.00  0.00    -0.265 OA
HETATM   26  H   UNL     1      39.126 -12.235   0.138  1.00  0.00     0.169 HD
BRANCH  24  27
HETATM   27  C   UNL     1      39.096 -14.080  -1.388  1.00  0.00     0.142 A 
HETATM   28  O   UNL     1      38.035 -13.219  -1.531  1.00  0.00    -0.317 OA
HETATM   29  C   UNL     1      37.539 -13.402  -2.782  1.00  0.00     0.143 A 
HETATM   30  C   UNL     1      38.259 -14.362  -3.453  1.00  0.00     0.027 A 
HETATM   31  C   UNL     1      39.264 -14.798  -2.556  1.00  0.00     0.045 A 
ENDBRANCH  24  27
ENDBRANCH  20  23
ENDBRANCH   1  17
TORSDOF 6
ENDMDL
MODEL 5
REMARK VINA RESULT:      -8.6      2.502      4.940
REMARK  6 active torsions:
REMARK  status: ('A' for Active; 'I' for Inactive)
REMARK    1  A    between atoms: C_8  and  C_9 
REMARK    2  A    between atoms: C_9  and  C_10 
REMARK       I    between atoms: C_10  and  N_11 
REMARK    3  A    between atoms: N_11  and  C_12 
REMARK    4  A    between atoms: C_12  and  C_13 
REMARK    5  A    between atoms: C_16  and  N_17 
REMARK       I    between atoms: N_17  and  C_18 
REMARK    6  A    between atoms: C_18  and  C_19 
ROOT
HETATM    1  C   UNL     1      45.188 -10.820   6.703  1.00  0.00     0.161 C 
ENDROOT
BRANCH   1   2
HETATM    2  N   UNL     1      44.089 -11.291   5.899  1.00  0.00    -0.357 N 
HETATM    3  C   UNL     1      43.720 -12.618   5.923  1.00  0.00     0.222 C 
HETATM    4  O   UNL     1      44.329 -13.464   6.576  1.00  0.00    -0.273 OA
HETATM    5  H   UNL     1      43.595 -10.638   5.303  1.00  0.00     0.162 HD
BRANCH   3   6
HETATM    6  C   UNL     1      42.485 -12.948   5.115  1.00  0.00     0.143 C 
BRANCH   6   7
HETATM    7  C   UNL     1      42.692 -13.754   3.867  1.00  0.00    -0.022 A 
HETATM    8  C   UNL     1      42.923 -15.162   3.677  1.00  0.00    -0.001 A 
HETATM    9  C   UNL     1      43.022 -16.288   4.524  1.00  0.00     0.014 A 
HETATM   10  C   UNL     1      43.072 -15.377   2.302  1.00  0.00     0.042 A 
HETATM   11  C   UNL     1      43.282 -17.554   3.985  1.00  0.00     0.001 A 
HETATM   12  C   UNL     1      43.434 -17.723   2.614  1.00  0.00     0.002 A 
HETATM   13  C   UNL     1      43.327 -16.638   1.745  1.00  0.00     0.030 A 
HETATM   14  N   UNL     1      42.913 -14.165   1.678  1.00  0.00    -0.365 N 
HETATM   15  H   UNL     1      42.954 -14.027   0.678  1.00  0.00     0.165 HD
HETATM   16  C   UNL     1      42.690 -13.186   2.603  1.00  0.00     0.097 A 
ENDBRANCH   6   7
ENDBRANCH   3   6
ENDBRANCH   1   2
BRANCH   1  17
HETATM   17  C   UNL     1      44.729 -10.324   8.047  1.00  0.00    -0.040 A 
HETATM   18  C   UNL     1      45.600 -10.316   9.143  1.00  0.00     0.011 A 
HETATM   19  C   UNL     1      45.185  -9.813  10.382  1.00  0.00     0.030 A 
HETATM   20  C   UNL     1      43.893  -9.312  10.546  1.00  0.00     0.035 A 
HETATM   21  C   UNL     1      43.010  -9.356   9.460  1.00  0.00     0.030 A 
HETATM   22  C   UNL     1      43.421  -9.862   8.224  1.00  0.00     0.011 A 
BRANCH  20  23
HETATM   23  N   UNL     1      43.416  -8.730  11.735  1.00  0.00    -0.321 N 
HETATM   24  C   UNL     1      42.654  -9.309  12.733  1.00  0.00     0.279 C 
HETATM   25  O   UNL     1      42.186 -10.443  12.707  1.00  0.00    -0.265 OA
HETATM   26  H   UNL     1      43.694  -7.772  11.922  1.00  0.00     0.169 HD
BRANCH  24  27
HETATM   27  C   UNL     1      42.459  -8.422  13.868  1.00  0.00     0.142 A 
HETATM   28  O   UNL     1      41.539  -8.753  14.833  1.00  0.00    -0.317 OA
HETATM   29  C   UNL     1      41.547  -7.753  15.751  1.00  0.00     0.143 A 
HETATM   30  C   UNL     1      42.455  -6.782  15.402  1.00  0.00     0.027 A 
HETATM   31  C   UNL     1      43.045  -7.213  14.189  1.00  0.00     0.045 A 
ENDBRANCH  24  27
ENDBRANCH  20  23
ENDBRANCH   1  17
TORSDOF 6
ENDMDL
MODEL 6
REMARK VINA RESULT:      -8.4      2.424     10.211
REMARK  6 active torsions:
REMARK  status: ('A' for Active; 'I' for Inactive)
REMARK    1  A    between atoms: C_8  and  C_9 
REMARK    2  A    between atoms: C_9  and  C_10 
REMARK       I    between atoms: C_10  and  N_11 
REMARK    3  A    between atoms: N_11  and  C_12 
REMARK    4  A    between atoms: C_12  and  C_13 
REMARK    5  A    between atoms: C_16  and  N_17 
REMARK       I    between atoms: N_17  and  C_18 
REMARK    6  A    between atoms: C_18  and  C_19 
ROOT
HETATM    1  C   UNL     1      43.184  -9.989   7.258  1.00  0.00     0.161 C 
ENDROOT
BRANCH   1   2
HETATM    2  N   UNL     1      43.746  -9.990   8.585  1.00  0.00    -0.357 N 
HETATM    3  C   UNL     1      44.256  -8.832   9.131  1.00  0.00     0.222 C 
HETATM    4  O   UNL     1      44.306  -7.772   8.510  1.00  0.00    -0.273 OA
HETATM    5  H   UNL     1      43.775 -10.854   9.111  1.00  0.00     0.162 HD
BRANCH   3   6
HETATM    6  C   UNL     1      44.713  -8.956  10.567  1.00  0.00     0.143 C 
BRANCH   6   7
HETATM    7  C   UNL     1      43.660  -9.286  11.583  1.00  0.00    -0.022 A 
HETATM    8  C   UNL     1      43.206  -8.564  12.742  1.00  0.00    -0.001 A 
HETATM    9  C   UNL     1      43.525  -7.328  13.347  1.00  0.00     0.014 A 
HETATM   10  C   UNL     1      42.216  -9.342  13.353  1.00  0.00     0.042 A 
HETATM   11  C   UNL     1      42.877  -6.931  14.523  1.00  0.00     0.001 A 
HETATM   12  C   UNL     1      41.907  -7.738  15.105  1.00  0.00     0.002 A 
HETATM   13  C   UNL     1      41.553  -8.957  14.528  1.00  0.00     0.030 A 
HETATM   14  N   UNL     1      42.052 -10.470  12.591  1.00  0.00    -0.365 N 
HETATM   15  H   UNL     1      41.386 -11.204  12.790  1.00  0.00     0.165 HD
HETATM   16  C   UNL     1      42.913 -10.452  11.532  1.00  0.00     0.097 A 
ENDBRANCH   6   7
ENDBRANCH   3   6
ENDBRANCH   1   2
BRANCH   1  17
HETATM   17  C   UNL     1      43.128 -11.372   6.671  1.00  0.00    -0.040 A 
HETATM   18  C   UNL     1      42.288 -11.658   5.587  1.00  0.00     0.011 A 
HETATM   19  C   UNL     1      42.270 -12.935   5.013  1.00  0.00     0.030 A 
HETATM   20  C   UNL     1      43.088 -13.948   5.514  1.00  0.00     0.035 A 
HETATM   21  C   UNL     1      43.899 -13.673   6.622  1.00  0.00     0.030 A 
HETATM   22  C   UNL     1      43.915 -12.401   7.199  1.00  0.00     0.011 A 
BRANCH  20  23
HETATM   23  N   UNL     1      43.180 -15.237   4.958  1.00  0.00    -0.321 N 
HETATM   24  C   UNL     1      43.083 -15.611   3.629  1.00  0.00     0.279 C 
HETATM   25  O   UNL     1      42.815 -14.864   2.694  1.00  0.00    -0.265 OA
HETATM   26  H   UNL     1      43.387 -16.000   5.594  1.00  0.00     0.169 HD
BRANCH  24  27
HETATM   27  C   UNL     1      43.352 -17.026   3.431  1.00  0.00     0.142 A 
HETATM   28  O   UNL     1      43.930 -17.752   4.443  1.00  0.00    -0.317 OA
HETATM   29  C   UNL     1      44.085 -19.021   3.986  1.00  0.00     0.143 A 
HETATM   30  C   UNL     1      43.616 -19.133   2.700  1.00  0.00     0.027 A 
HETATM   31  C   UNL     1      43.141 -17.848   2.341  1.00  0.00     0.045 A 
ENDBRANCH  24  27
ENDBRANCH  20  23
ENDBRANCH   1  17
TORSDOF 6
ENDMDL
MODEL 7
REMARK VINA RESULT:      -8.4      1.620      1.845
REMARK  6 active torsions:
REMARK  status: ('A' for Active; 'I' for Inactive)
REMARK    1  A    between atoms: C_8  and  C_9 
REMARK    2  A    between atoms: C_9  and  C_10 
REMARK       I    between atoms: C_10  and  N_11 
REMARK    3  A    between atoms: N_11  and  C_12 
REMARK    4  A    between atoms: C_12  and  C_13 
REMARK    5  A    between atoms: C_16  and  N_17 
REMARK       I    between atoms: N_17  and  C_18 
REMARK    6  A    between atoms: C_18  and  C_19 
ROOT
HETATM    1  C   UNL     1      39.704 -14.226   2.631  1.00  0.00     0.161 C 
ENDROOT
BRANCH   1   2
HETATM    2  N   UNL     1      40.673 -15.243   2.310  1.00  0.00    -0.357 N 
HETATM    3  C   UNL     1      41.811 -14.927   1.601  1.00  0.00     0.222 C 
HETATM    4  O   UNL     1      42.031 -13.798   1.167  1.00  0.00    -0.273 OA
HETATM    5  H   UNL     1      40.505 -16.198   2.600  1.00  0.00     0.162 HD
BRANCH   3   6
HETATM    6  C   UNL     1      42.789 -16.069   1.430  1.00  0.00     0.143 C 
BRANCH   6   7
HETATM    7  C   UNL     1      43.219 -16.780   2.679  1.00  0.00    -0.022 A 
HETATM    8  C   UNL     1      43.432 -18.178   2.946  1.00  0.00    -0.001 A 
HETATM    9  C   UNL     1      43.350 -19.370   2.192  1.00  0.00     0.014 A 
HETATM   10  C   UNL     1      43.805 -18.292   4.290  1.00  0.00     0.042 A 
HETATM   11  C   UNL     1      43.616 -20.605   2.796  1.00  0.00     0.001 A 
HETATM   12  C   UNL     1      43.972 -20.676   4.137  1.00  0.00     0.002 A 
HETATM   13  C   UNL     1      44.079 -19.519   4.909  1.00  0.00     0.030 A 
HETATM   14  N   UNL     1      43.845 -17.024   4.813  1.00  0.00    -0.365 N 
HETATM   15  H   UNL     1      44.102 -16.806   5.766  1.00  0.00     0.165 HD
HETATM   16  C   UNL     1      43.492 -16.111   3.862  1.00  0.00     0.097 A 
ENDBRANCH   6   7
ENDBRANCH   3   6
ENDBRANCH   1   2
BRANCH   1  17
HETATM   17  C   UNL     1      40.146 -13.374   3.789  1.00  0.00    -0.040 A 
HETATM   18  C   UNL     1      40.629 -13.959   4.966  1.00  0.00     0.011 A 
HETATM   19  C   UNL     1      41.081 -13.165   6.027  1.00  0.00     0.030 A 
HETATM   20  C   UNL     1      41.057 -11.773   5.929  1.00  0.00     0.035 A 
HETATM   21  C   UNL     1      40.538 -11.188   4.768  1.00  0.00     0.030 A 
HETATM   22  C   UNL     1      40.081 -11.979   3.710  1.00  0.00     0.011 A 
BRANCH  20  23
HETATM   23  N   UNL     1      41.551 -10.904   6.918  1.00  0.00    -0.321 N 
HETATM   24  C   UNL     1      42.832 -10.401   7.063  1.00  0.00     0.279 C 
HETATM   25  O   UNL     1      43.800 -10.705   6.373  1.00  0.00    -0.265 OA
HETATM   26  H   UNL     1      40.884 -10.554   7.599  1.00  0.00     0.169 HD
BRANCH  24  27
HETATM   27  C   UNL     1      42.929  -9.433   8.142  1.00  0.00     0.142 A 
HETATM   28  O   UNL     1      41.841  -9.209   8.949  1.00  0.00    -0.317 OA
HETATM   29  C   UNL     1      42.198  -8.255   9.846  1.00  0.00     0.143 A 
HETATM   30  C   UNL     1      43.498  -7.859   9.640  1.00  0.00     0.027 A 
HETATM   31  C   UNL     1      43.971  -8.619   8.543  1.00  0.00     0.045 A 
ENDBRANCH  24  27
ENDBRANCH  20  23
ENDBRANCH   1  17
TORSDOF 6
ENDMDL
MODEL 8
REMARK VINA RESULT:      -8.2      5.124      8.848
REMARK  6 active torsions:
REMARK  status: ('A' for Active; 'I' for Inactive)
REMARK    1  A    between atoms: C_8  and  C_9 
REMARK    2  A    between atoms: C_9  and  C_10 
REMARK       I    between atoms: C_10  and  N_11 
REMARK    3  A    between atoms: N_11  and  C_12 
REMARK    4  A    between atoms: C_12  and  C_13 
REMARK    5  A    between atoms: C_16  and  N_17 
REMARK       I    between atoms: N_17  and  C_18 
REMARK    6  A    between atoms: C_18  and  C_19 
ROOT
HETATM    1  C   UNL     1      40.143 -15.311   0.729  1.00  0.00     0.161 C 
ENDROOT
BRANCH   1   2
HETATM    2  N   UNL     1      41.455 -15.283   1.322  1.00  0.00    -0.357 N 
HETATM    3  C   UNL     1      41.619 -15.503   2.672  1.00  0.00     0.222 C 
HETATM    4  O   UNL     1      40.671 -15.678   3.435  1.00  0.00    -0.273 OA
HETATM    5  H   UNL     1      42.260 -15.089   0.739  1.00  0.00     0.162 HD
BRANCH   3   6
HETATM    6  C   UNL     1      43.057 -15.553   3.137  1.00  0.00     0.143 C 
BRANCH   6   7
HETATM    7  C   UNL     1      43.473 -16.770   3.910  1.00  0.00    -0.022 A 
HETATM    8  C   UNL     1      43.544 -18.155   3.528  1.00  0.00    -0.001 A 
HETATM    9  C   UNL     1      43.289 -18.887   2.346  1.00  0.00     0.014 A 
HETATM   10  C   UNL     1      43.976 -18.874   4.648  1.00  0.00     0.042 A 
HETATM   11  C   UNL     1      43.448 -20.278   2.331  1.00  0.00     0.001 A 
HETATM   12  C   UNL     1      43.868 -20.956   3.469  1.00  0.00     0.002 A 
HETATM   13  C   UNL     1      44.145 -20.265   4.649  1.00  0.00     0.030 A 
HETATM   14  N   UNL     1      44.186 -17.970   5.659  1.00  0.00    -0.365 N 
HETATM   15  H   UNL     1      44.518 -18.211   6.582  1.00  0.00     0.165 HD
HETATM   16  C   UNL     1      43.884 -16.709   5.232  1.00  0.00     0.097 A 
ENDBRANCH   6   7
ENDBRANCH   3   6
ENDBRANCH   1   2
BRANCH   1  17
HETATM   17  C   UNL     1      40.004 -14.299  -0.376  1.00  0.00    -0.040 A 
HETATM   18  C   UNL     1      39.235 -14.579  -1.512  1.00  0.00     0.011 A 
HETATM   19  C   UNL     1      39.071 -13.619  -2.519  1.00  0.00     0.030 A 
HETATM   20  C   UNL     1      39.675 -12.367  -2.408  1.00  0.00     0.035 A 
HETATM   21  C   UNL     1      40.477 -12.101  -1.291  1.00  0.00     0.030 A 
HETATM   22  C   UNL     1      40.645 -13.059  -0.288  1.00  0.00     0.011 A 
BRANCH  20  23
HETATM   23  N   UNL     1      39.510 -11.325  -3.339  1.00  0.00    -0.321 N 
HETATM   24  C   UNL     1      38.616 -10.271  -3.304  1.00  0.00     0.279 C 
HETATM   25  O   UNL     1      37.736 -10.109  -2.464  1.00  0.00    -0.265 OA
HETATM   26  H   UNL     1      40.152 -11.304  -4.126  1.00  0.00     0.169 HD
BRANCH  24  27
HETATM   27  C   UNL     1      38.828  -9.327  -4.388  1.00  0.00     0.142 A 
HETATM   28  O   UNL     1      40.107  -8.941  -4.707  1.00  0.00    -0.317 OA
HETATM   29  C   UNL     1      40.013  -8.050  -5.727  1.00  0.00     0.143 A 
HETATM   30  C   UNL     1      38.699  -7.853  -6.078  1.00  0.00     0.027 A 
HETATM   31  C   UNL     1      37.934  -8.677  -5.217  1.00  0.00     0.045 A 
ENDBRANCH  24  27
ENDBRANCH  20  23
ENDBRANCH   1  17
TORSDOF 6
ENDMDL
MODEL 9
REMARK VINA RESULT:      -8.0      2.462      2.705
REMARK  6 active torsions:
REMARK  status: ('A' for Active; 'I' for Inactive)
REMARK    1  A    between atoms: C_8  and  C_9 
REMARK    2  A    between atoms: C_9  and  C_10 
REMARK       I    between atoms: C_10  and  N_11 
REMARK    3  A    between atoms: N_11  and  C_12 
REMARK    4  A    between atoms: C_12  and  C_13 
REMARK    5  A    between atoms: C_16  and  N_17 
REMARK       I    between atoms: N_17  and  C_18 
REMARK    6  A    between atoms: C_18  and  C_19 
ROOT
HETATM    1  C   UNL     1      38.793 -12.745   2.656  1.00  0.00     0.161 C 
ENDROOT
BRANCH   1   2
HETATM    2  N   UNL     1      39.308 -14.078   2.468  1.00  0.00    -0.357 N 
HETATM    3  C   UNL     1      40.444 -14.291   1.717  1.00  0.00     0.222 C 
HETATM    4  O   UNL     1      41.035 -13.383   1.136  1.00  0.00    -0.273 OA
HETATM    5  H   UNL     1      38.820 -14.862   2.883  1.00  0.00     0.162 HD
BRANCH   3   6
HETATM    6  C   UNL     1      40.929 -15.723   1.694  1.00  0.00     0.143 C 
BRANCH   6   7
HETATM    7  C   UNL     1      41.927 -16.113   2.745  1.00  0.00    -0.022 A 
HETATM    8  C   UNL     1      42.694 -17.318   2.919  1.00  0.00    -0.001 A 
HETATM    9  C   UNL     1      42.831 -18.535   2.215  1.00  0.00     0.014 A 
HETATM   10  C   UNL     1      43.455 -17.161   4.083  1.00  0.00     0.042 A 
HETATM   11  C   UNL     1      43.684 -19.536   2.697  1.00  0.00     0.001 A 
HETATM   12  C   UNL     1      44.414 -19.344   3.863  1.00  0.00     0.002 A 
HETATM   13  C   UNL     1      44.317 -18.150   4.577  1.00  0.00     0.030 A 
HETATM   14  N   UNL     1      43.188 -15.910   4.582  1.00  0.00    -0.365 N 
HETATM   15  H   UNL     1      43.614 -15.522   5.412  1.00  0.00     0.165 HD
HETATM   16  C   UNL     1      42.272 -15.276   3.793  1.00  0.00     0.097 A 
ENDBRANCH   6   7
ENDBRANCH   3   6
ENDBRANCH   1   2
BRANCH   1  17
HETATM   17  C   UNL     1      39.407 -12.070   3.852  1.00  0.00    -0.040 A 
HETATM   18  C   UNL     1      39.930 -10.775   3.754  1.00  0.00     0.011 A 
HETATM   19  C   UNL     1      40.461 -10.131   4.879  1.00  0.00     0.030 A 
HETATM   20  C   UNL     1      40.479 -10.771   6.118  1.00  0.00     0.035 A 
HETATM   21  C   UNL     1      39.990 -12.080   6.208  1.00  0.00     0.030 A 
HETATM   22  C   UNL     1      39.465 -12.726   5.086  1.00  0.00     0.011 A 
BRANCH  20  23
HETATM   23  N   UNL     1      40.932 -10.174   7.308  1.00  0.00    -0.321 N 
HETATM   24  C   UNL     1      40.207  -9.457   8.244  1.00  0.00     0.279 C 
HETATM   25  O   UNL     1      39.025  -9.146   8.145  1.00  0.00    -0.265 OA
HETATM   26  H   UNL     1      41.907 -10.314   7.552  1.00  0.00     0.169 HD
BRANCH  24  27
HETATM   27  C   UNL     1      41.002  -9.100   9.407  1.00  0.00     0.142 A 
HETATM   28  O   UNL     1      40.370  -8.753  10.576  1.00  0.00    -0.317 OA
HETATM   29  C   UNL     1      41.339  -8.450  11.478  1.00  0.00     0.143 A 
HETATM   30  C   UNL     1      42.585  -8.597  10.919  1.00  0.00     0.027 A 
HETATM   31  C   UNL     1      42.370  -9.018   9.584  1.00  0.00     0.045 A 
ENDBRANCH  24  27
ENDBRANCH  20  23
ENDBRANCH   1  17
TORSDOF 6
ENDMDL
MODEL 10
REMARK VINA RESULT:      -8.0      2.170      3.442
REMARK  6 active torsions:
REMARK  status: ('A' for Active; 'I' for Inactive)
REMARK    1  A    between atoms: C_8  and  C_9 
REMARK    2  A    between atoms: C_9  and  C_10 
REMARK       I    between atoms: C_10  and  N_11 
REMARK    3  A    between atoms: N_11  and  C_12 
REMARK    4  A    between atoms: C_12  and  C_13 
REMARK    5  A    between atoms: C_16  and  N_17 
REMARK       I    between atoms: N_17  and  C_18 
REMARK    6  A    between atoms: C_18  and  C_19 
ROOT
HETATM    1  C   UNL     1      43.922 -11.520   5.382  1.00  0.00     0.161 C 
ENDROOT
BRANCH   1   2
HETATM    2  N   UNL     1      43.114 -12.709   5.275  1.00  0.00    -0.357 N 
HETATM    3  C   UNL     1      43.033 -13.396   4.084  1.00  0.00     0.222 C 
HETATM    4  O   UNL     1      43.589 -13.012   3.057  1.00  0.00    -0.273 OA
HETATM    5  H   UNL     1      42.595 -13.030   6.083  1.00  0.00     0.162 HD
BRANCH   3   6
HETATM    6  C   UNL     1      42.239 -14.682   4.147  1.00  0.00     0.143 C 
BRANCH   6   7
HETATM    7  C   UNL     1      42.998 -15.926   4.501  1.00  0.00    -0.022 A 
HETATM    8  C   UNL     1      43.164 -17.167   3.792  1.00  0.00    -0.001 A 
HETATM    9  C   UNL     1      42.729 -17.682   2.550  1.00  0.00     0.014 A 
HETATM   10  C   UNL     1      43.954 -18.001   4.591  1.00  0.00     0.042 A 
HETATM   11  C   UNL     1      43.071 -18.986   2.169  1.00  0.00     0.001 A 
HETATM   12  C   UNL     1      43.849 -19.785   2.997  1.00  0.00     0.002 A 
HETATM   13  C   UNL     1      44.311 -19.306   4.223  1.00  0.00     0.030 A 
HETATM   14  N   UNL     1      44.281 -17.295   5.721  1.00  0.00    -0.365 N 
HETATM   15  H   UNL     1      44.861 -17.648   6.469  1.00  0.00     0.165 HD
HETATM   16  C   UNL     1      43.711 -16.055   5.682  1.00  0.00     0.097 A 
ENDBRANCH   6   7
ENDBRANCH   3   6
ENDBRANCH   1   2
BRANCH   1  17
HETATM   17  C   UNL     1      43.687 -10.796   6.679  1.00  0.00    -0.040 A 
HETATM   18  C   UNL     1      42.625  -9.893   6.814  1.00  0.00     0.011 A 
HETATM   19  C   UNL     1      42.381  -9.253   8.035  1.00  0.00     0.030 A 
HETATM   20  C   UNL     1      43.195  -9.503   9.140  1.00  0.00     0.035 A 
HETATM   21  C   UNL     1      44.280 -10.376   8.995  1.00  0.00     0.030 A 
HETATM   22  C   UNL     1      44.528 -11.012   7.775  1.00  0.00     0.011 A 
BRANCH  20  23
HETATM   23  N   UNL     1      42.983  -8.954  10.418  1.00  0.00    -0.321 N 
HETATM   24  C   UNL     1      41.926  -9.171  11.285  1.00  0.00     0.279 C 
HETATM   25  O   UNL     1      40.928  -9.841  11.040  1.00  0.00    -0.265 OA
HETATM   26  H   UNL     1      43.710  -8.351  10.787  1.00  0.00     0.169 HD
BRANCH  24  27
HETATM   27  C   UNL     1      42.119  -8.518  12.568  1.00  0.00     0.142 A 
HETATM   28  O   UNL     1      42.382  -7.171  12.608  1.00  0.00    -0.317 OA
HETATM   29  C   UNL     1      42.537  -6.832  13.914  1.00  0.00     0.143 A 
HETATM   30  C   UNL     1      42.375  -7.932  14.721  1.00  0.00     0.027 A 
HETATM   31  C   UNL     1      42.103  -9.019  13.856  1.00  0.00     0.045 A 
ENDBRANCH  24  27
ENDBRANCH  20  23
ENDBRANCH   1  17
TORSDOF 6
ENDMDL
