MODEL 1
REMARK VINA RESULT:      -9.3      0.000      0.000
REMARK  3 active torsions:
REMARK  status: ('A' for Active; 'I' for Inactive)
REMARK    1  A    between atoms: C_3  and  C_4 
REMARK    2  A    between atoms: C_8  and  C_9 
REMARK       I    between atoms: C_9  and  N_10 
REMARK    3  A    between atoms: N_10  and  N_11 
ROOT
HETATM    1  C   UNL     1      40.624 -14.067   1.382  1.00  0.00     0.289 C 
HETATM    2  N   UNL     1      40.763 -13.498   0.126  1.00  0.00    -0.241 N 
HETATM    3  O   UNL     1      39.790 -13.713   2.212  1.00  0.00    -0.264 OA
HETATM    4  H   UNL     1      41.491 -13.817  -0.511  1.00  0.00     0.192 HD
ENDROOT
BRANCH   1   5
HETATM    5  C   UNL     1      41.556 -15.129   1.670  1.00  0.00     0.121 A 
HETATM    6  N   UNL     1      42.825 -15.108   1.167  1.00  0.00    -0.272 N 
HETATM    7  N   UNL     1      43.578 -16.159   1.527  1.00  0.00    -0.174 NA
HETATM    8  H   UNL     1      43.230 -14.389   0.575  1.00  0.00     0.189 HD
HETATM    9  C   UNL     1      42.761 -16.919   2.274  1.00  0.00     0.091 A 
HETATM   10  C   UNL     1      41.490 -16.293   2.409  1.00  0.00     0.071 A 
BRANCH   9  11
HETATM   11  C   UNL     1      43.235 -18.172   2.866  1.00  0.00     0.016 A 
HETATM   12  C   UNL     1      43.131 -19.347   2.097  1.00  0.00     0.015 A 
HETATM   13  C   UNL     1      43.570 -20.578   2.590  1.00  0.00     0.001 A 
HETATM   14  C   UNL     1      44.121 -20.657   3.865  1.00  0.00     0.002 A 
HETATM   15  C   UNL     1      44.223 -19.505   4.647  1.00  0.00     0.025 A 
HETATM   16  C   UNL     1      43.781 -18.268   4.157  1.00  0.00     0.046 A 
HETATM   17 CL   UNL     1      43.902 -16.923   5.240  1.00  0.00    -0.083 Cl
ENDBRANCH   9  11
ENDBRANCH   1   5
BRANCH   2  18
HETATM   18  N   UNL     1      39.953 -12.464  -0.260  1.00  0.00    -0.165 NA
HETATM   19  C   UNL     1      39.018 -12.747  -1.108  1.00  0.00     0.157 A 
HETATM   20  C   UNL     1      38.686 -14.100  -1.744  1.00  0.00     0.277 A 
HETATM   21  C   UNL     1      38.054 -11.802  -1.657  1.00  0.00     0.027 A 
HETATM   22  O   UNL     1      39.281 -15.133  -1.518  1.00  0.00    -0.266 OA
HETATM   23  N   UNL     1      37.616 -13.865  -2.580  1.00  0.00    -0.321 N 
HETATM   24  C   UNL     1      37.243 -12.523  -2.532  1.00  0.00     0.048 A 
HETATM   25  H   UNL     1      37.178 -14.582  -3.140  1.00  0.00     0.169 HD
HETATM   26  C   UNL     1      36.221 -11.914  -3.227  1.00  0.00     0.030 A 
HETATM   27  C   UNL     1      36.030 -10.541  -3.017  1.00  0.00     0.002 A 
HETATM   28  C   UNL     1      36.855  -9.817  -2.129  1.00  0.00     0.001 A 
HETATM   29  C   UNL     1      37.887 -10.451  -1.433  1.00  0.00     0.016 A 
ENDBRANCH   2  18
TORSDOF 3
ENDMDL
MODEL 2
REMARK VINA RESULT:      -9.1      6.111      9.683
REMARK  3 active torsions:
REMARK  status: ('A' for Active; 'I' for Inactive)
REMARK    1  A    between atoms: C_3  and  C_4 
REMARK    2  A    between atoms: C_8  and  C_9 
REMARK       I    between atoms: C_9  and  N_10 
REMARK    3  A    between atoms: N_10  and  N_11 
ROOT
HETATM    1  C   UNL     1      43.141 -13.247   4.302  1.00  0.00     0.289 C 
HETATM    2  N   UNL     1      43.006 -14.539   4.783  1.00  0.00    -0.241 N 
HETATM    3  O   UNL     1      43.221 -12.958   3.110  1.00  0.00    -0.264 OA
HETATM    4  H   UNL     1      42.970 -14.719   5.785  1.00  0.00     0.192 HD
ENDROOT
BRANCH   1   5
HETATM    5  C   UNL     1      43.192 -12.226   5.319  1.00  0.00     0.121 A 
HETATM    6  N   UNL     1      42.598 -11.011   5.129  1.00  0.00    -0.272 N 
HETATM    7  N   UNL     1      42.722 -10.168   6.165  1.00  0.00    -0.174 NA
HETATM    8  H   UNL     1      42.085 -10.711   4.305  1.00  0.00     0.189 HD
HETATM    9  C   UNL     1      43.454 -10.845   7.064  1.00  0.00     0.091 A 
HETATM   10  C   UNL     1      43.746 -12.151   6.581  1.00  0.00     0.071 A 
BRANCH   9  11
HETATM   11  C   UNL     1      43.798 -10.246   8.356  1.00  0.00     0.016 A 
HETATM   12  C   UNL     1      42.745  -9.799   9.178  1.00  0.00     0.015 A 
HETATM   13  C   UNL     1      42.993  -9.226  10.427  1.00  0.00     0.001 A 
HETATM   14  C   UNL     1      44.301  -9.087  10.878  1.00  0.00     0.002 A 
HETATM   15  C   UNL     1      45.359  -9.513  10.073  1.00  0.00     0.025 A 
HETATM   16  C   UNL     1      45.115 -10.086   8.817  1.00  0.00     0.046 A 
HETATM   17 CL   UNL     1      46.507 -10.520   7.885  1.00  0.00    -0.083 Cl
ENDBRANCH   9  11
ENDBRANCH   1   5
BRANCH   2  18
HETATM   18  N   UNL     1      42.968 -15.600   3.919  1.00  0.00    -0.165 NA
HETATM   19  C   UNL     1      43.347 -16.744   4.391  1.00  0.00     0.157 A 
HETATM   20  C   UNL     1      43.835 -17.077   5.805  1.00  0.00     0.277 A 
HETATM   21  C   UNL     1      43.394 -17.997   3.648  1.00  0.00     0.027 A 
HETATM   22  O   UNL     1      43.926 -16.274   6.709  1.00  0.00    -0.266 OA
HETATM   23  N   UNL     1      44.125 -18.424   5.789  1.00  0.00    -0.321 N 
HETATM   24  C   UNL     1      43.869 -18.966   4.531  1.00  0.00     0.048 A 
HETATM   25  H   UNL     1      44.474 -18.928   6.592  1.00  0.00     0.169 HD
HETATM   26  C   UNL     1      44.036 -20.274   4.134  1.00  0.00     0.030 A 
HETATM   27  C   UNL     1      43.709 -20.590   2.808  1.00  0.00     0.002 A 
HETATM   28  C   UNL     1      43.229 -19.604   1.920  1.00  0.00     0.001 A 
HETATM   29  C   UNL     1      43.066 -18.282   2.339  1.00  0.00     0.016 A 
ENDBRANCH   2  18
TORSDOF 3
ENDMDL
MODEL 3
REMARK VINA RESULT:      -8.8      6.339      9.786
REMARK  3 active torsions:
REMARK  status: ('A' for Active; 'I' for Inactive)
REMARK    1  A    between atoms: C_3  and  C_4 
REMARK    2  A    between atoms: C_8  and  C_9 
REMARK       I    between atoms: C_9  and  N_10 
REMARK    3  A    between atoms: N_10  and  N_11 
ROOT
HETATM    1  C   UNL     1      43.146 -13.012   4.483  1.00  0.00     0.289 C 
HETATM    2  N   UNL     1      42.845 -14.289   4.928  1.00  0.00    -0.241 N 
HETATM    3  O   UNL     1      43.392 -12.729   3.313  1.00  0.00    -0.264 OA
HETATM    4  H   UNL     1      42.675 -14.467   5.917  1.00  0.00     0.192 HD
ENDROOT
BRANCH   1   5
HETATM    5  C   UNL     1      43.161 -12.002   5.512  1.00  0.00     0.121 A 
HETATM    6  N   UNL     1      42.697 -10.741   5.268  1.00  0.00    -0.272 N 
HETATM    7  N   UNL     1      42.767  -9.913   6.321  1.00  0.00    -0.174 NA
HETATM    8  H   UNL     1      42.312 -10.397   4.393  1.00  0.00     0.189 HD
HETATM    9  C   UNL     1      43.329 -10.651   7.292  1.00  0.00     0.091 A 
HETATM   10  C   UNL     1      43.567 -11.977   6.831  1.00  0.00     0.071 A 
BRANCH   9  11
HETATM   11  C   UNL     1      43.566 -10.086   8.623  1.00  0.00     0.016 A 
HETATM   12  C   UNL     1      44.857 -10.211   9.173  1.00  0.00     0.015 A 
HETATM   13  C   UNL     1      45.162  -9.689  10.432  1.00  0.00     0.001 A 
HETATM   14  C   UNL     1      44.180  -9.033  11.167  1.00  0.00     0.002 A 
HETATM   15  C   UNL     1      42.892  -8.909  10.644  1.00  0.00     0.025 A 
HETATM   16  C   UNL     1      42.580  -9.434   9.381  1.00  0.00     0.046 A 
HETATM   17 CL   UNL     1      40.936  -9.273   8.865  1.00  0.00    -0.083 Cl
ENDBRANCH   9  11
ENDBRANCH   1   5
BRANCH   2  18
HETATM   18  N   UNL     1      42.822 -15.341   4.053  1.00  0.00    -0.165 NA
HETATM   19  C   UNL     1      43.261 -16.474   4.499  1.00  0.00     0.157 A 
HETATM   20  C   UNL     1      43.809 -16.802   5.891  1.00  0.00     0.277 A 
HETATM   21  C   UNL     1      43.334 -17.716   3.739  1.00  0.00     0.027 A 
HETATM   22  O   UNL     1      43.897 -16.007   6.802  1.00  0.00    -0.266 OA
HETATM   23  N   UNL     1      44.151 -18.137   5.850  1.00  0.00    -0.321 N 
HETATM   24  C   UNL     1      43.875 -18.674   4.595  1.00  0.00     0.048 A 
HETATM   25  H   UNL     1      44.546 -18.635   6.634  1.00  0.00     0.169 HD
HETATM   26  C   UNL     1      44.082 -19.971   4.176  1.00  0.00     0.030 A 
HETATM   27  C   UNL     1      43.724 -20.285   2.858  1.00  0.00     0.002 A 
HETATM   28  C   UNL     1      43.176 -19.309   1.998  1.00  0.00     0.001 A 
HETATM   29  C   UNL     1      42.974 -18.000   2.438  1.00  0.00     0.016 A 
ENDBRANCH   2  18
TORSDOF 3
ENDMDL
MODEL 4
REMARK VINA RESULT:      -8.8      7.903     10.294
REMARK  3 active torsions:
REMARK  status: ('A' for Active; 'I' for Inactive)
REMARK    1  A    between atoms: C_3  and  C_4 
REMARK    2  A    between atoms: C_8  and  C_9 
REMARK       I    between atoms: C_9  and  N_10 
REMARK    3  A    between atoms: N_10  and  N_11 
ROOT
HETATM    1  C   UNL     1      44.272 -11.473   6.226  1.00  0.00     0.289 C 
HETATM    2  N   UNL     1      43.288 -12.426   6.019  1.00  0.00    -0.241 N 
HETATM    3  O   UNL     1      45.090 -11.130   5.377  1.00  0.00    -0.264 OA
HETATM    4  H   UNL     1      42.653 -12.688   6.771  1.00  0.00     0.192 HD
ENDROOT
BRANCH   1   5
HETATM    5  C   UNL     1      44.283 -10.895   7.547  1.00  0.00     0.121 A 
HETATM    6  N   UNL     1      45.414 -10.909   8.313  1.00  0.00    -0.272 N 
HETATM    7  N   UNL     1      45.275 -10.328   9.513  1.00  0.00    -0.174 NA
HETATM    8  H   UNL     1      46.315 -11.302   8.054  1.00  0.00     0.189 HD
HETATM    9  C   UNL     1      43.990  -9.939   9.553  1.00  0.00     0.091 A 
HETATM   10  C   UNL     1      43.341 -10.254   8.326  1.00  0.00     0.071 A 
BRANCH   9  11
HETATM   11  C   UNL     1      43.452  -9.244  10.725  1.00  0.00     0.016 A 
HETATM   12  C   UNL     1      43.173 -10.008  11.875  1.00  0.00     0.015 A 
HETATM   13  C   UNL     1      42.667  -9.414  13.034  1.00  0.00     0.001 A 
HETATM   14  C   UNL     1      42.428  -8.044  13.063  1.00  0.00     0.002 A 
HETATM   15  C   UNL     1      42.687  -7.272  11.930  1.00  0.00     0.025 A 
HETATM   16  C   UNL     1      43.193  -7.864  10.763  1.00  0.00     0.046 A 
HETATM   17 CL   UNL     1      43.417  -6.817   9.403  1.00  0.00    -0.083 Cl
ENDBRANCH   9  11
ENDBRANCH   1   5
BRANCH   2  18
HETATM   18  N   UNL     1      43.186 -13.067   4.814  1.00  0.00    -0.165 NA
HETATM   19  C   UNL     1      43.197 -14.361   4.843  1.00  0.00     0.157 A 
HETATM   20  C   UNL     1      43.308 -15.285   6.060  1.00  0.00     0.277 A 
HETATM   21  C   UNL     1      43.109 -15.239   3.683  1.00  0.00     0.027 A 
HETATM   22  O   UNL     1      43.394 -14.905   7.209  1.00  0.00    -0.266 OA
HETATM   23  N   UNL     1      43.285 -16.567   5.556  1.00  0.00    -0.321 N 
HETATM   24  C   UNL     1      43.169 -16.545   4.168  1.00  0.00     0.048 A 
HETATM   25  H   UNL     1      43.346 -17.393   6.132  1.00  0.00     0.169 HD
HETATM   26  C   UNL     1      43.115 -17.626   3.315  1.00  0.00     0.030 A 
HETATM   27  C   UNL     1      42.995 -17.359   1.944  1.00  0.00     0.002 A 
HETATM   28  C   UNL     1      42.935 -16.034   1.462  1.00  0.00     0.001 A 
HETATM   29  C   UNL     1      42.992 -14.949   2.340  1.00  0.00     0.016 A 
ENDBRANCH   2  18
TORSDOF 3
ENDMDL
MODEL 5
REMARK VINA RESULT:      -8.8      5.727      7.871
REMARK  3 active torsions:
REMARK  status: ('A' for Active; 'I' for Inactive)
REMARK    1  A    between atoms: C_3  and  C_4 
REMARK    2  A    between atoms: C_8  and  C_9 
REMARK       I    between atoms: C_9  and  N_10 
REMARK    3  A    between atoms: N_10  and  N_11 
ROOT
HETATM    1  C   UNL     1      42.074 -12.917   4.345  1.00  0.00     0.289 C 
HETATM    2  N   UNL     1      42.172 -12.710   5.711  1.00  0.00    -0.241 N 
HETATM    3  O   UNL     1      41.943 -12.018   3.518  1.00  0.00    -0.264 OA
HETATM    4  H   UNL     1      42.254 -13.499   6.351  1.00  0.00     0.192 HD
ENDROOT
BRANCH   1   5
HETATM    5  C   UNL     1      42.130 -14.299   3.938  1.00  0.00     0.121 A 
HETATM    6  N   UNL     1      41.179 -14.829   3.113  1.00  0.00    -0.272 N 
HETATM    7  N   UNL     1      41.367 -16.124   2.814  1.00  0.00    -0.174 NA
HETATM    8  H   UNL     1      40.380 -14.341   2.718  1.00  0.00     0.189 HD
HETATM    9  C   UNL     1      42.472 -16.469   3.495  1.00  0.00     0.091 A 
HETATM   10  C   UNL     1      42.996 -15.344   4.191  1.00  0.00     0.071 A 
BRANCH   9  11
HETATM   11  C   UNL     1      43.009 -17.830   3.414  1.00  0.00     0.016 A 
HETATM   12  C   UNL     1      42.807 -18.549   2.220  1.00  0.00     0.015 A 
HETATM   13  C   UNL     1      43.298 -19.847   2.064  1.00  0.00     0.001 A 
HETATM   14  C   UNL     1      43.998 -20.453   3.102  1.00  0.00     0.002 A 
HETATM   15  C   UNL     1      44.198 -19.761   4.297  1.00  0.00     0.025 A 
HETATM   16  C   UNL     1      43.705 -18.458   4.459  1.00  0.00     0.046 A 
HETATM   17 CL   UNL     1      43.961 -17.725   6.006  1.00  0.00    -0.083 Cl
ENDBRANCH   9  11
ENDBRANCH   1   5
BRANCH   2  18
HETATM   18  N   UNL     1      42.109 -11.444   6.227  1.00  0.00    -0.165 NA
HETATM   19  C   UNL     1      43.149 -11.033   6.879  1.00  0.00     0.157 A 
HETATM   20  C   UNL     1      44.459 -11.779   7.152  1.00  0.00     0.277 A 
HETATM   21  C   UNL     1      43.292  -9.730   7.515  1.00  0.00     0.027 A 
HETATM   22  O   UNL     1      44.706 -12.902   6.767  1.00  0.00    -0.266 OA
HETATM   23  N   UNL     1      45.231 -10.912   7.894  1.00  0.00    -0.321 N 
HETATM   24  C   UNL     1      44.554  -9.714   8.108  1.00  0.00     0.048 A 
HETATM   25  H   UNL     1      46.158 -11.137   8.225  1.00  0.00     0.169 HD
HETATM   26  C   UNL     1      45.003  -8.612   8.803  1.00  0.00     0.030 A 
HETATM   27  C   UNL     1      44.141  -7.510   8.888  1.00  0.00     0.002 A 
HETATM   28  C   UNL     1      42.865  -7.534   8.285  1.00  0.00     0.001 A 
HETATM   29  C   UNL     1      42.426  -8.659   7.584  1.00  0.00     0.016 A 
ENDBRANCH   2  18
TORSDOF 3
ENDMDL
MODEL 6
REMARK VINA RESULT:      -8.7      6.474      7.913
REMARK  3 active torsions:
REMARK  status: ('A' for Active; 'I' for Inactive)
REMARK    1  A    between atoms: C_3  and  C_4 
REMARK    2  A    between atoms: C_8  and  C_9 
REMARK       I    between atoms: C_9  and  N_10 
REMARK    3  A    between atoms: N_10  and  N_11 
ROOT
HETATM    1  C   UNL     1      42.107 -13.709   5.933  1.00  0.00     0.289 C 
HETATM    2  N   UNL     1      42.882 -12.606   5.616  1.00  0.00    -0.241 N 
HETATM    3  O   UNL     1      40.974 -13.645   6.405  1.00  0.00    -0.264 OA
HETATM    4  H   UNL     1      43.826 -12.723   5.251  1.00  0.00     0.192 HD
ENDROOT
BRANCH   1   5
HETATM    5  C   UNL     1      42.733 -14.982   5.676  1.00  0.00     0.121 A 
HETATM    6  N   UNL     1      43.876 -15.349   6.327  1.00  0.00    -0.272 N 
HETATM    7  N   UNL     1      44.338 -16.563   5.991  1.00  0.00    -0.174 NA
HETATM    8  H   UNL     1      44.379 -14.803   7.021  1.00  0.00     0.189 HD
HETATM    9  C   UNL     1      43.479 -17.003   5.057  1.00  0.00     0.091 A 
HETATM   10  C   UNL     1      42.442 -16.050   4.851  1.00  0.00     0.071 A 
BRANCH   9  11
HETATM   11  C   UNL     1      43.649 -18.322   4.442  1.00  0.00     0.016 A 
HETATM   12  C   UNL     1      43.914 -19.415   5.289  1.00  0.00     0.015 A 
HETATM   13  C   UNL     1      44.078 -20.705   4.778  1.00  0.00     0.001 A 
HETATM   14  C   UNL     1      43.982 -20.925   3.408  1.00  0.00     0.002 A 
HETATM   15  C   UNL     1      43.731 -19.852   2.552  1.00  0.00     0.025 A 
HETATM   16  C   UNL     1      43.568 -18.555   3.060  1.00  0.00     0.046 A 
HETATM   17 CL   UNL     1      43.322 -17.297   1.896  1.00  0.00    -0.083 Cl
ENDBRANCH   9  11
ENDBRANCH   1   5
BRANCH   2  18
HETATM   18  N   UNL     1      42.410 -11.340   5.835  1.00  0.00    -0.165 NA
HETATM   19  C   UNL     1      43.015 -10.646   6.744  1.00  0.00     0.157 A 
HETATM   20  C   UNL     1      44.206 -11.053   7.618  1.00  0.00     0.277 A 
HETATM   21  C   UNL     1      42.675  -9.286   7.143  1.00  0.00     0.027 A 
HETATM   22  O   UNL     1      44.768 -12.127   7.562  1.00  0.00    -0.266 OA
HETATM   23  N   UNL     1      44.461  -9.967   8.427  1.00  0.00    -0.321 N 
HETATM   24  C   UNL     1      43.569  -8.933   8.153  1.00  0.00     0.048 A 
HETATM   25  H   UNL     1      45.198  -9.947   9.116  1.00  0.00     0.169 HD
HETATM   26  C   UNL     1      43.512  -7.695   8.756  1.00  0.00     0.030 A 
HETATM   27  C   UNL     1      42.522  -6.808   8.312  1.00  0.00     0.002 A 
HETATM   28  C   UNL     1      41.621  -7.174   7.289  1.00  0.00     0.001 A 
HETATM   29  C   UNL     1      41.692  -8.433   6.689  1.00  0.00     0.016 A 
ENDBRANCH   2  18
TORSDOF 3
ENDMDL
MODEL 7
REMARK VINA RESULT:      -8.5      7.568     10.645
REMARK  3 active torsions:
REMARK  status: ('A' for Active; 'I' for Inactive)
REMARK    1  A    between atoms: C_3  and  C_4 
REMARK    2  A    between atoms: C_8  and  C_9 
REMARK       I    between atoms: C_9  and  N_10 
REMARK    3  A    between atoms: N_10  and  N_11 
ROOT
HETATM    1  C   UNL     1      44.043 -12.359   7.147  1.00  0.00     0.289 C 
HETATM    2  N   UNL     1      43.232 -13.482   7.169  1.00  0.00    -0.241 N 
HETATM    3  O   UNL     1      45.186 -12.342   6.698  1.00  0.00    -0.264 OA
HETATM    4  H   UNL     1      42.300 -13.441   7.578  1.00  0.00     0.192 HD
ENDROOT
BRANCH   1   5
HETATM    5  C   UNL     1      43.447 -11.173   7.710  1.00  0.00     0.121 A 
HETATM    6  N   UNL     1      42.274 -10.673   7.219  1.00  0.00    -0.272 N 
HETATM    7  N   UNL     1      41.838  -9.571   7.847  1.00  0.00    -0.174 NA
HETATM    8  H   UNL     1      41.726 -11.057   6.455  1.00  0.00     0.189 HD
HETATM    9  C   UNL     1      42.778  -9.316   8.772  1.00  0.00     0.091 A 
HETATM   10  C   UNL     1      43.791 -10.316   8.735  1.00  0.00     0.071 A 
BRANCH   9  11
HETATM   11  C   UNL     1      42.649  -8.174   9.680  1.00  0.00     0.016 A 
HETATM   12  C   UNL     1      42.891  -6.887   9.160  1.00  0.00     0.015 A 
HETATM   13  C   UNL     1      42.777  -5.749   9.961  1.00  0.00     0.001 A 
HETATM   14  C   UNL     1      42.421  -5.876  11.300  1.00  0.00     0.002 A 
HETATM   15  C   UNL     1      42.189  -7.144  11.836  1.00  0.00     0.025 A 
HETATM   16  C   UNL     1      42.304  -8.289  11.036  1.00  0.00     0.046 A 
HETATM   17 CL   UNL     1      42.052  -9.809  11.827  1.00  0.00    -0.083 Cl
ENDBRANCH   9  11
ENDBRANCH   1   5
BRANCH   2  18
HETATM   18  N   UNL     1      43.690 -14.678   6.686  1.00  0.00    -0.165 NA
HETATM   19  C   UNL     1      43.173 -15.089   5.573  1.00  0.00     0.157 A 
HETATM   20  C   UNL     1      42.106 -14.408   4.710  1.00  0.00     0.277 A 
HETATM   21  C   UNL     1      43.506 -16.331   4.888  1.00  0.00     0.027 A 
HETATM   22  O   UNL     1      41.590 -13.341   4.966  1.00  0.00    -0.266 OA
HETATM   23  N   UNL     1      41.896 -15.255   3.644  1.00  0.00    -0.321 N 
HETATM   24  C   UNL     1      42.711 -16.380   3.743  1.00  0.00     0.048 A 
HETATM   25  H   UNL     1      41.236 -15.065   2.903  1.00  0.00     0.169 HD
HETATM   26  C   UNL     1      42.782 -17.442   2.868  1.00  0.00     0.030 A 
HETATM   27  C   UNL     1      43.686 -18.469   3.176  1.00  0.00     0.002 A 
HETATM   28  C   UNL     1      44.486 -18.413   4.337  1.00  0.00     0.001 A 
HETATM   29  C   UNL     1      44.402 -17.328   5.213  1.00  0.00     0.016 A 
ENDBRANCH   2  18
TORSDOF 3
ENDMDL
MODEL 8
REMARK VINA RESULT:      -8.3      2.540      3.416
REMARK  3 active torsions:
REMARK  status: ('A' for Active; 'I' for Inactive)
REMARK    1  A    between atoms: C_3  and  C_4 
REMARK    2  A    between atoms: C_8  and  C_9 
REMARK       I    between atoms: C_9  and  N_10 
REMARK    3  A    between atoms: N_10  and  N_11 
ROOT
HETATM    1  C   UNL     1      40.506 -14.257   1.115  1.00  0.00     0.289 C 
HETATM    2  N   UNL     1      40.410 -13.174   1.973  1.00  0.00    -0.241 N 
HETATM    3  O   UNL     1      39.827 -14.396   0.100  1.00  0.00    -0.264 OA
HETATM    4  H   UNL     1      40.982 -13.126   2.815  1.00  0.00     0.192 HD
ENDROOT
BRANCH   1   5
HETATM    5  C   UNL     1      41.477 -15.250   1.503  1.00  0.00     0.121 A 
HETATM    6  N   UNL     1      42.786 -15.137   1.133  1.00  0.00    -0.272 N 
HETATM    7  N   UNL     1      43.572 -16.131   1.573  1.00  0.00    -0.174 NA
HETATM    8  H   UNL     1      43.197 -14.389   0.581  1.00  0.00     0.189 HD
HETATM    9  C   UNL     1      42.739 -16.950   2.236  1.00  0.00     0.091 A 
HETATM   10  C   UNL     1      41.419 -16.417   2.238  1.00  0.00     0.071 A 
BRANCH   9  11
HETATM   11  C   UNL     1      43.239 -18.167   2.881  1.00  0.00     0.016 A 
HETATM   12  C   UNL     1      43.146 -19.378   2.168  1.00  0.00     0.015 A 
HETATM   13  C   UNL     1      43.609 -20.577   2.712  1.00  0.00     0.001 A 
HETATM   14  C   UNL     1      44.173 -20.589   3.984  1.00  0.00     0.002 A 
HETATM   15  C   UNL     1      44.264 -19.401   4.711  1.00  0.00     0.025 A 
HETATM   16  C   UNL     1      43.797 -18.195   4.169  1.00  0.00     0.046 A 
HETATM   17 CL   UNL     1      43.907 -16.800   5.188  1.00  0.00    -0.083 Cl
ENDBRANCH   9  11
ENDBRANCH   1   5
BRANCH   2  18
HETATM   18  N   UNL     1      39.508 -12.173   1.729  1.00  0.00    -0.165 NA
HETATM   19  C   UNL     1      39.987 -10.975   1.623  1.00  0.00     0.157 A 
HETATM   20  C   UNL     1      41.446 -10.520   1.732  1.00  0.00     0.277 A 
HETATM   21  C   UNL     1      39.211  -9.768   1.374  1.00  0.00     0.027 A 
HETATM   22  O   UNL     1      42.386 -11.260   1.933  1.00  0.00    -0.266 OA
HETATM   23  N   UNL     1      41.422  -9.154   1.557  1.00  0.00    -0.321 N 
HETATM   24  C   UNL     1      40.118  -8.709   1.347  1.00  0.00     0.048 A 
HETATM   25  H   UNL     1      42.249  -8.574   1.581  1.00  0.00     0.169 HD
HETATM   26  C   UNL     1      39.700  -7.414   1.134  1.00  0.00     0.030 A 
HETATM   27  C   UNL     1      38.326  -7.205   0.945  1.00  0.00     0.002 A 
HETATM   28  C   UNL     1      37.414  -8.282   0.974  1.00  0.00     0.001 A 
HETATM   29  C   UNL     1      37.855  -9.589   1.191  1.00  0.00     0.016 A 
ENDBRANCH   2  18
TORSDOF 3
ENDMDL
MODEL 9
REMARK VINA RESULT:      -8.1      7.514     10.429
REMARK  3 active torsions:
REMARK  status: ('A' for Active; 'I' for Inactive)
REMARK    1  A    between atoms: C_3  and  C_4 
REMARK    2  A    between atoms: C_8  and  C_9 
REMARK       I    between atoms: C_9  and  N_10 
REMARK    3  A    between atoms: N_10  and  N_11 
ROOT
HETATM    1  C   UNL     1      42.602 -11.400   5.822  1.00  0.00     0.289 C 
HETATM    2  N   UNL     1      42.092 -12.687   5.857  1.00  0.00    -0.241 N 
HETATM    3  O   UNL     1      43.249 -10.939   4.884  1.00  0.00    -0.264 OA
HETATM    4  H   UNL     1      41.584 -13.022   6.674  1.00  0.00     0.192 HD
ENDROOT
BRANCH   1   5
HETATM    5  C   UNL     1      42.327 -10.608   6.995  1.00  0.00     0.121 A 
HETATM    6  N   UNL     1      41.054 -10.216   7.298  1.00  0.00    -0.272 N 
HETATM    7  N   UNL     1      40.952  -9.493   8.423  1.00  0.00    -0.174 NA
HETATM    8  H   UNL     1      40.214 -10.426   6.766  1.00  0.00     0.189 HD
HETATM    9  C   UNL     1      42.216  -9.378   8.865  1.00  0.00     0.091 A 
HETATM   10  C   UNL     1      43.105 -10.088   8.010  1.00  0.00     0.071 A 
BRANCH   9  11
HETATM   11  C   UNL     1      42.516  -8.649  10.100  1.00  0.00     0.016 A 
HETATM   12  C   UNL     1      42.165  -7.287  10.164  1.00  0.00     0.015 A 
HETATM   13  C   UNL     1      42.411  -6.528  11.311  1.00  0.00     0.001 A 
HETATM   14  C   UNL     1      43.014  -7.119  12.416  1.00  0.00     0.002 A 
HETATM   15  C   UNL     1      43.378  -8.465  12.368  1.00  0.00     0.025 A 
HETATM   16  C   UNL     1      43.137  -9.230  11.218  1.00  0.00     0.046 A 
HETATM   17 CL   UNL     1      43.688 -10.871  11.254  1.00  0.00    -0.083 Cl
ENDBRANCH   9  11
ENDBRANCH   1   5
BRANCH   2  18
HETATM   18  N   UNL     1      42.304 -13.547   4.813  1.00  0.00    -0.165 NA
HETATM   19  C   UNL     1      42.764 -14.719   5.113  1.00  0.00     0.157 A 
HETATM   20  C   UNL     1      43.104 -15.283   6.496  1.00  0.00     0.277 A 
HETATM   21  C   UNL     1      43.069 -15.781   4.163  1.00  0.00     0.027 A 
HETATM   22  O   UNL     1      42.972 -14.678   7.539  1.00  0.00    -0.266 OA
HETATM   23  N   UNL     1      43.565 -16.562   6.271  1.00  0.00    -0.321 N 
HETATM   24  C   UNL     1      43.546 -16.857   4.910  1.00  0.00     0.048 A 
HETATM   25  H   UNL     1      43.870 -17.182   7.008  1.00  0.00     0.169 HD
HETATM   26  C   UNL     1      43.932 -18.033   4.303  1.00  0.00     0.030 A 
HETATM   27  C   UNL     1      43.823 -18.101   2.907  1.00  0.00     0.002 A 
HETATM   28  C   UNL     1      43.339 -17.008   2.159  1.00  0.00     0.001 A 
HETATM   29  C   UNL     1      42.952 -15.823   2.789  1.00  0.00     0.016 A 
ENDBRANCH   2  18
TORSDOF 3
ENDMDL
MODEL 10
REMARK VINA RESULT:      -7.9      5.593      9.692
REMARK  3 active torsions:
REMARK  status: ('A' for Active; 'I' for Inactive)
REMARK    1  A    between atoms: C_3  and  C_4 
REMARK    2  A    between atoms: C_8  and  C_9 
REMARK       I    between atoms: C_9  and  N_10 
REMARK    3  A    between atoms: N_10  and  N_11 
ROOT
HETATM    1  C   UNL     1      42.213 -14.559   6.273  1.00  0.00     0.289 C 
HETATM    2  N   UNL     1      43.384 -15.064   5.731  1.00  0.00    -0.241 N 
HETATM    3  O   UNL     1      41.318 -15.253   6.749  1.00  0.00    -0.264 OA
HETATM    4  H   UNL     1      44.081 -14.439   5.327  1.00  0.00     0.192 HD
ENDROOT
BRANCH   1   5
HETATM    5  C   UNL     1      42.101 -13.122   6.236  1.00  0.00     0.121 A 
HETATM    6  N   UNL     1      43.024 -12.327   6.853  1.00  0.00    -0.272 N 
HETATM    7  N   UNL     1      42.793 -11.012   6.726  1.00  0.00    -0.174 NA
HETATM    8  H   UNL     1      43.840 -12.639   7.372  1.00  0.00     0.189 HD
HETATM    9  C   UNL     1      41.653 -10.937   6.021  1.00  0.00     0.091 A 
HETATM   10  C   UNL     1      41.202 -12.241   5.671  1.00  0.00     0.071 A 
BRANCH   9  11
HETATM   11  C   UNL     1      41.073  -9.639   5.666  1.00  0.00     0.016 A 
HETATM   12  C   UNL     1      41.488  -9.037   4.462  1.00  0.00     0.015 A 
HETATM   13  C   UNL     1      40.973  -7.805   4.053  1.00  0.00     0.001 A 
HETATM   14  C   UNL     1      40.033  -7.150   4.841  1.00  0.00     0.002 A 
HETATM   15  C   UNL     1      39.618  -7.725   6.043  1.00  0.00     0.025 A 
HETATM   16  C   UNL     1      40.134  -8.961   6.460  1.00  0.00     0.046 A 
HETATM   17 CL   UNL     1      39.590  -9.544   7.997  1.00  0.00    -0.083 Cl
ENDBRANCH   9  11
ENDBRANCH   1   5
BRANCH   2  18
HETATM   18  N   UNL     1      43.602 -16.414   5.685  1.00  0.00    -0.165 NA
HETATM   19  C   UNL     1      43.529 -16.973   4.520  1.00  0.00     0.157 A 
HETATM   20  C   UNL     1      43.231 -16.318   3.167  1.00  0.00     0.277 A 
HETATM   21  C   UNL     1      43.717 -18.391   4.243  1.00  0.00     0.027 A 
HETATM   22  O   UNL     1      43.024 -15.135   3.004  1.00  0.00    -0.266 OA
HETATM   23  N   UNL     1      43.257 -17.343   2.246  1.00  0.00    -0.321 N 
HETATM   24  C   UNL     1      43.540 -18.556   2.870  1.00  0.00     0.048 A 
HETATM   25  H   UNL     1      43.091 -17.209   1.259  1.00  0.00     0.169 HD
HETATM   26  C   UNL     1      43.649 -19.796   2.279  1.00  0.00     0.030 A 
HETATM   27  C   UNL     1      43.944 -20.882   3.114  1.00  0.00     0.002 A 
HETATM   28  C   UNL     1      44.121 -20.708   4.503  1.00  0.00     0.001 A 
HETATM   29  C   UNL     1      44.008 -19.444   5.086  1.00  0.00     0.016 A 
ENDBRANCH   2  18
TORSDOF 3
ENDMDL
