MODEL 1
REMARK VINA RESULT:      -8.5      0.000      0.000
REMARK  7 active torsions:
REMARK  status: ('A' for Active; 'I' for Inactive)
REMARK    1  A    between atoms: C_2  and  O_3 
REMARK    2  A    between atoms: O_3  and  C_4 
REMARK    3  A    between atoms: C_5  and  O_6 
REMARK    4  A    between atoms: C_10  and  C_11 
REMARK    5  A    between atoms: C_12  and  C_13 
REMARK       I    between atoms: C_13  and  N_14 
REMARK    6  A    between atoms: N_14  and  N_15 
REMARK       I    between atoms: N_15  and  C_16 
REMARK    7  A    between atoms: C_16  and  C_17 
ROOT
HETATM    1  C   UNL     1      44.281 -11.823   7.160  1.00  0.00     0.259 C 
HETATM    2  N   UNL     1      43.335 -12.819   7.181  1.00  0.00    -0.264 N 
HETATM    3  O   UNL     1      45.368 -11.941   6.601  1.00  0.00    -0.267 OA
HETATM    4  H   UNL     1      42.392 -12.722   7.550  1.00  0.00     0.190 HD
ENDROOT
BRANCH   2   5
HETATM    5  N   UNL     1      43.610 -13.992   6.466  1.00  0.00    -0.263 N 
HETATM    6  C   UNL     1      43.255 -15.211   7.015  1.00  0.00     0.272 C 
HETATM    7  O   UNL     1      42.826 -15.293   8.166  1.00  0.00    -0.266 OA
HETATM    8  H   UNL     1      43.796 -13.875   5.474  1.00  0.00     0.190 HD
BRANCH   6   9
HETATM    9  C   UNL     1      43.416 -16.364   6.129  1.00  0.00     0.061 A 
HETATM   10  C   UNL     1      43.315 -16.371   4.694  1.00  0.00     0.008 A 
HETATM   11  C   UNL     1      43.542 -17.680   4.249  1.00  0.00     0.045 A 
HETATM   12  C   UNL     1      43.052 -15.372   3.730  1.00  0.00     0.015 A 
HETATM   13  C   UNL     1      43.520 -18.015   2.885  1.00  0.00     0.030 A 
HETATM   14  N   UNL     1      43.766 -18.446   5.370  1.00  0.00    -0.359 N 
HETATM   15  C   UNL     1      43.256 -17.004   1.956  1.00  0.00     0.002 A 
HETATM   16  C   UNL     1      43.024 -15.699   2.371  1.00  0.00     0.001 A 
HETATM   17  C   UNL     1      44.043 -19.866   5.402  1.00  0.00     0.156 C 
HETATM   18  C   UNL     1      43.692 -17.671   6.500  1.00  0.00     0.108 A 
ENDBRANCH   6   9
ENDBRANCH   2   5
BRANCH   1  19
HETATM   19  C   UNL     1      43.862 -10.592   7.875  1.00  0.00     0.076 C 
HETATM   20  C   UNL     1      44.052 -10.512   9.201  1.00  0.00     0.017 C 
BRANCH  20  21
HETATM   21  C   UNL     1      43.658  -9.377  10.047  1.00  0.00    -0.033 A 
HETATM   22  C   UNL     1      43.291  -8.182   9.419  1.00  0.00     0.014 A 
HETATM   23  C   UNL     1      42.869  -7.080  10.166  1.00  0.00     0.040 A 
HETATM   24  C   UNL     1      42.797  -7.157  11.558  1.00  0.00     0.101 A 
HETATM   25  C   UNL     1      43.160  -8.356  12.204  1.00  0.00     0.102 A 
HETATM   26  C   UNL     1      43.579  -9.458  11.444  1.00  0.00     0.051 A 
BRANCH  24  27
HETATM   27  O   UNL     1      42.395  -6.127  12.372  1.00  0.00    -0.353 OA
HETATM   28  C   UNL     1      41.025  -5.757  12.332  1.00  0.00     0.210 C 
ENDBRANCH  24  27
BRANCH  25  29
HETATM   29  O   UNL     1      43.057  -8.349  13.573  1.00  0.00    -0.349 OA
BRANCH  29  30
HETATM   30  C   UNL     1      41.990  -9.079  14.171  1.00  0.00     0.171 C 
HETATM   31  C   UNL     1      41.450  -8.254  15.326  1.00  0.00     0.034 C 
ENDBRANCH  29  30
ENDBRANCH  25  29
ENDBRANCH  20  21
ENDBRANCH   1  19
TORSDOF 7
ENDMDL
MODEL 2
REMARK VINA RESULT:      -8.5      6.785     11.313
REMARK  7 active torsions:
REMARK  status: ('A' for Active; 'I' for Inactive)
REMARK    1  A    between atoms: C_2  and  O_3 
REMARK    2  A    between atoms: O_3  and  C_4 
REMARK    3  A    between atoms: C_5  and  O_6 
REMARK    4  A    between atoms: C_10  and  C_11 
REMARK    5  A    between atoms: C_12  and  C_13 
REMARK       I    between atoms: C_13  and  N_14 
REMARK    6  A    between atoms: N_14  and  N_15 
REMARK       I    between atoms: N_15  and  C_16 
REMARK    7  A    between atoms: C_16  and  C_17 
ROOT
HETATM    1  C   UNL     1      40.531 -14.586   0.269  1.00  0.00     0.259 C 
HETATM    2  N   UNL     1      41.381 -13.514   0.142  1.00  0.00    -0.264 N 
HETATM    3  O   UNL     1      39.512 -14.718  -0.404  1.00  0.00    -0.267 OA
HETATM    4  H   UNL     1      42.278 -13.421   0.613  1.00  0.00     0.190 HD
ENDROOT
BRANCH   2   5
HETATM    5  N   UNL     1      41.095 -12.572  -0.855  1.00  0.00    -0.263 N 
HETATM    6  C   UNL     1      40.957 -11.243  -0.500  1.00  0.00     0.272 C 
HETATM    7  O   UNL     1      40.947 -10.893   0.680  1.00  0.00    -0.266 OA
HETATM    8  H   UNL     1      41.282 -12.865  -1.810  1.00  0.00     0.190 HD
BRANCH   6   9
HETATM    9  C   UNL     1      40.837 -10.309  -1.621  1.00  0.00     0.061 A 
HETATM   10  C   UNL     1      41.671  -9.168  -1.887  1.00  0.00     0.008 A 
HETATM   11  C   UNL     1      41.209  -8.556  -3.059  1.00  0.00     0.045 A 
HETATM   12  C   UNL     1      42.787  -8.602  -1.231  1.00  0.00     0.015 A 
HETATM   13  C   UNL     1      41.825  -7.411  -3.593  1.00  0.00     0.030 A 
HETATM   14  N   UNL     1      40.127  -9.290  -3.490  1.00  0.00    -0.359 N 
HETATM   15  C   UNL     1      42.926  -6.875  -2.919  1.00  0.00     0.002 A 
HETATM   16  C   UNL     1      43.403  -7.460  -1.753  1.00  0.00     0.001 A 
HETATM   17  C   UNL     1      39.322  -9.032  -4.663  1.00  0.00     0.156 C 
HETATM   18  C   UNL     1      39.894 -10.339  -2.637  1.00  0.00     0.108 A 
ENDBRANCH   6   9
ENDBRANCH   2   5
BRANCH   1  19
HETATM   19  C   UNL     1      40.963 -15.569   1.293  1.00  0.00     0.076 C 
HETATM   20  C   UNL     1      42.274 -15.722   1.536  1.00  0.00     0.017 C 
BRANCH  20  21
HETATM   21  C   UNL     1      42.853 -16.677   2.491  1.00  0.00    -0.033 A 
HETATM   22  C   UNL     1      43.084 -17.987   2.057  1.00  0.00     0.014 A 
HETATM   23  C   UNL     1      43.668 -18.931   2.905  1.00  0.00     0.040 A 
HETATM   24  C   UNL     1      44.043 -18.577   4.202  1.00  0.00     0.101 A 
HETATM   25  C   UNL     1      43.821 -17.259   4.652  1.00  0.00     0.102 A 
HETATM   26  C   UNL     1      43.237 -16.319   3.790  1.00  0.00     0.051 A 
BRANCH  24  27
HETATM   27  O   UNL     1      44.622 -19.436   5.103  1.00  0.00    -0.353 OA
HETATM   28  C   UNL     1      44.016 -20.708   5.279  1.00  0.00     0.210 C 
ENDBRANCH  24  27
BRANCH  25  29
HETATM   29  O   UNL     1      44.223 -16.993   5.937  1.00  0.00    -0.349 OA
BRANCH  29  30
HETATM   30  C   UNL     1      43.962 -15.698   6.469  1.00  0.00     0.171 C 
HETATM   31  C   UNL     1      42.898 -15.840   7.543  1.00  0.00     0.034 C 
ENDBRANCH  29  30
ENDBRANCH  25  29
ENDBRANCH  20  21
ENDBRANCH   1  19
TORSDOF 7
ENDMDL
MODEL 3
REMARK VINA RESULT:      -8.5      2.531     11.268
REMARK  7 active torsions:
REMARK  status: ('A' for Active; 'I' for Inactive)
REMARK    1  A    between atoms: C_2  and  O_3 
REMARK    2  A    between atoms: O_3  and  C_4 
REMARK    3  A    between atoms: C_5  and  O_6 
REMARK    4  A    between atoms: C_10  and  C_11 
REMARK    5  A    between atoms: C_12  and  C_13 
REMARK       I    between atoms: C_13  and  N_14 
REMARK    6  A    between atoms: N_14  and  N_15 
REMARK       I    between atoms: N_15  and  C_16 
REMARK    7  A    between atoms: C_16  and  C_17 
ROOT
HETATM    1  C   UNL     1      42.554 -12.382   6.092  1.00  0.00     0.259 C 
HETATM    2  N   UNL     1      43.267 -11.922   7.172  1.00  0.00    -0.264 N 
HETATM    3  O   UNL     1      41.519 -11.855   5.696  1.00  0.00    -0.267 OA
HETATM    4  H   UNL     1      44.175 -12.274   7.467  1.00  0.00     0.190 HD
ENDROOT
BRANCH   2   5
HETATM    5  N   UNL     1      42.816 -10.751   7.798  1.00  0.00    -0.263 N 
HETATM    6  C   UNL     1      43.563 -10.213   8.830  1.00  0.00     0.272 C 
HETATM    7  O   UNL     1      44.536 -10.808   9.293  1.00  0.00    -0.266 OA
HETATM    8  H   UNL     1      42.127 -10.210   7.284  1.00  0.00     0.190 HD
BRANCH   6   9
HETATM    9  C   UNL     1      43.116  -8.903   9.304  1.00  0.00     0.061 A 
HETATM   10  C   UNL     1      43.042  -8.459  10.670  1.00  0.00     0.008 A 
HETATM   11  C   UNL     1      42.566  -7.142  10.673  1.00  0.00     0.045 A 
HETATM   12  C   UNL     1      43.344  -9.065  11.911  1.00  0.00     0.015 A 
HETATM   13  C   UNL     1      42.389  -6.418  11.865  1.00  0.00     0.030 A 
HETATM   14  N   UNL     1      42.348  -6.795   9.359  1.00  0.00    -0.359 N 
HETATM   15  C   UNL     1      42.695  -7.046  13.075  1.00  0.00     0.002 A 
HETATM   16  C   UNL     1      43.166  -8.353  13.101  1.00  0.00     0.001 A 
HETATM   17  C   UNL     1      41.852  -5.527   8.872  1.00  0.00     0.156 C 
HETATM   18  C   UNL     1      42.672  -7.841   8.532  1.00  0.00     0.108 A 
ENDBRANCH   6   9
ENDBRANCH   2   5
BRANCH   1  19
HETATM   19  C   UNL     1      43.158 -13.576   5.448  1.00  0.00     0.076 C 
HETATM   20  C   UNL     1      42.350 -14.516   4.934  1.00  0.00     0.017 C 
BRANCH  20  21
HETATM   21  C   UNL     1      42.798 -15.764   4.300  1.00  0.00    -0.033 A 
HETATM   22  C   UNL     1      42.629 -15.901   2.919  1.00  0.00     0.014 A 
HETATM   23  C   UNL     1      43.070 -17.046   2.252  1.00  0.00     0.040 A 
HETATM   24  C   UNL     1      43.699 -18.074   2.957  1.00  0.00     0.101 A 
HETATM   25  C   UNL     1      43.880 -17.949   4.349  1.00  0.00     0.102 A 
HETATM   26  C   UNL     1      43.436 -16.792   5.008  1.00  0.00     0.051 A 
BRANCH  24  27
HETATM   27  O   UNL     1      44.163 -19.233   2.387  1.00  0.00    -0.353 OA
HETATM   28  C   UNL     1      43.201 -20.141   1.869  1.00  0.00     0.210 C 
ENDBRANCH  24  27
BRANCH  25  29
HETATM   29  O   UNL     1      44.510 -19.001   4.965  1.00  0.00    -0.349 OA
BRANCH  29  30
HETATM   30  C   UNL     1      43.738 -19.845   5.814  1.00  0.00     0.171 C 
HETATM   31  C   UNL     1      43.832 -21.261   5.274  1.00  0.00     0.034 C 
ENDBRANCH  29  30
ENDBRANCH  25  29
ENDBRANCH  20  21
ENDBRANCH   1  19
TORSDOF 7
ENDMDL
MODEL 4
REMARK VINA RESULT:      -8.2      0.878      2.063
REMARK  7 active torsions:
REMARK  status: ('A' for Active; 'I' for Inactive)
REMARK    1  A    between atoms: C_2  and  O_3 
REMARK    2  A    between atoms: O_3  and  C_4 
REMARK    3  A    between atoms: C_5  and  O_6 
REMARK    4  A    between atoms: C_10  and  C_11 
REMARK    5  A    between atoms: C_12  and  C_13 
REMARK       I    between atoms: C_13  and  N_14 
REMARK    6  A    between atoms: N_14  and  N_15 
REMARK       I    between atoms: N_15  and  C_16 
REMARK    7  A    between atoms: C_16  and  C_17 
ROOT
HETATM    1  C   UNL     1      44.422 -11.738   7.203  1.00  0.00     0.259 C 
HETATM    2  N   UNL     1      43.531 -12.781   7.277  1.00  0.00    -0.264 N 
HETATM    3  O   UNL     1      45.452 -11.780   6.537  1.00  0.00    -0.267 OA
HETATM    4  H   UNL     1      42.625 -12.745   7.740  1.00  0.00     0.190 HD
ENDROOT
BRANCH   2   5
HETATM    5  N   UNL     1      43.790 -13.914   6.494  1.00  0.00    -0.263 N 
HETATM    6  C   UNL     1      43.331 -15.145   6.925  1.00  0.00     0.272 C 
HETATM    7  O   UNL     1      42.822 -15.285   8.036  1.00  0.00    -0.266 OA
HETATM    8  H   UNL     1      44.048 -13.736   5.527  1.00  0.00     0.190 HD
BRANCH   6   9
HETATM    9  C   UNL     1      43.490 -16.239   5.965  1.00  0.00     0.061 A 
HETATM   10  C   UNL     1      43.326 -16.166   4.538  1.00  0.00     0.008 A 
HETATM   11  C   UNL     1      43.574 -17.438   4.007  1.00  0.00     0.045 A 
HETATM   12  C   UNL     1      42.989 -15.122   3.647  1.00  0.00     0.015 A 
HETATM   13  C   UNL     1      43.502 -17.694   2.627  1.00  0.00     0.030 A 
HETATM   14  N   UNL     1      43.871 -18.261   5.069  1.00  0.00    -0.359 N 
HETATM   15  C   UNL     1      43.166 -16.640   1.773  1.00  0.00     0.002 A 
HETATM   16  C   UNL     1      42.911 -15.370   2.274  1.00  0.00     0.001 A 
HETATM   17  C   UNL     1      44.193 -19.669   5.005  1.00  0.00     0.156 C 
HETATM   18  C   UNL     1      43.822 -17.555   6.245  1.00  0.00     0.108 A 
ENDBRANCH   6   9
ENDBRANCH   2   5
BRANCH   1  19
HETATM   19  C   UNL     1      44.017 -10.554   8.002  1.00  0.00     0.076 C 
HETATM   20  C   UNL     1      43.972 -10.657   9.339  1.00  0.00     0.017 C 
BRANCH  20  21
HETATM   21  C   UNL     1      43.558  -9.586  10.258  1.00  0.00    -0.033 A 
HETATM   22  C   UNL     1      43.444  -9.891  11.618  1.00  0.00     0.014 A 
HETATM   23  C   UNL     1      43.092  -8.908  12.546  1.00  0.00     0.040 A 
HETATM   24  C   UNL     1      42.858  -7.596  12.130  1.00  0.00     0.101 A 
HETATM   25  C   UNL     1      42.975  -7.273  10.762  1.00  0.00     0.102 A 
HETATM   26  C   UNL     1      43.332  -8.268   9.840  1.00  0.00     0.051 A 
BRANCH  24  27
HETATM   27  O   UNL     1      42.509  -6.567  12.969  1.00  0.00    -0.353 OA
HETATM   28  C   UNL     1      42.297  -6.881  14.337  1.00  0.00     0.210 C 
ENDBRANCH  24  27
BRANCH  25  29
HETATM   29  O   UNL     1      42.733  -5.961  10.438  1.00  0.00    -0.349 OA
BRANCH  29  30
HETATM   30  C   UNL     1      41.942  -5.688   9.286  1.00  0.00     0.171 C 
HETATM   31  C   UNL     1      40.485  -5.885   9.662  1.00  0.00     0.034 C 
ENDBRANCH  29  30
ENDBRANCH  25  29
ENDBRANCH  20  21
ENDBRANCH   1  19
TORSDOF 7
ENDMDL
MODEL 5
REMARK VINA RESULT:      -8.2      1.516      2.645
REMARK  7 active torsions:
REMARK  status: ('A' for Active; 'I' for Inactive)
REMARK    1  A    between atoms: C_2  and  O_3 
REMARK    2  A    between atoms: O_3  and  C_4 
REMARK    3  A    between atoms: C_5  and  O_6 
REMARK    4  A    between atoms: C_10  and  C_11 
REMARK    5  A    between atoms: C_12  and  C_13 
REMARK       I    between atoms: C_13  and  N_14 
REMARK    6  A    between atoms: N_14  and  N_15 
REMARK       I    between atoms: N_15  and  C_16 
REMARK    7  A    between atoms: C_16  and  C_17 
ROOT
HETATM    1  C   UNL     1      44.483 -11.536   7.510  1.00  0.00     0.259 C 
HETATM    2  N   UNL     1      43.381 -12.308   7.234  1.00  0.00    -0.264 N 
HETATM    3  O   UNL     1      45.489 -11.525   6.806  1.00  0.00    -0.267 OA
HETATM    4  H   UNL     1      42.499 -12.270   7.740  1.00  0.00     0.190 HD
ENDROOT
BRANCH   2   5
HETATM    5  N   UNL     1      43.392 -13.058   6.050  1.00  0.00    -0.263 N 
HETATM    6  C   UNL     1      42.940 -14.364   6.081  1.00  0.00     0.272 C 
HETATM    7  O   UNL     1      42.655 -14.918   7.142  1.00  0.00    -0.266 OA
HETATM    8  H   UNL     1      43.464 -12.526   5.187  1.00  0.00     0.190 HD
BRANCH   6   9
HETATM    9  C   UNL     1      42.821 -15.012   4.774  1.00  0.00     0.061 A 
HETATM   10  C   UNL     1      43.328 -16.307   4.403  1.00  0.00     0.008 A 
HETATM   11  C   UNL     1      42.991 -16.537   3.063  1.00  0.00     0.045 A 
HETATM   12  C   UNL     1      44.045 -17.309   5.095  1.00  0.00     0.015 A 
HETATM   13  C   UNL     1      43.339 -17.727   2.403  1.00  0.00     0.030 A 
HETATM   14  N   UNL     1      42.310 -15.423   2.628  1.00  0.00    -0.359 N 
HETATM   15  C   UNL     1      44.049 -18.698   3.115  1.00  0.00     0.002 A 
HETATM   16  C   UNL     1      44.399 -18.494   4.444  1.00  0.00     0.001 A 
HETATM   17  C   UNL     1      41.768 -15.205   1.304  1.00  0.00     0.156 C 
HETATM   18  C   UNL     1      42.204 -14.504   3.642  1.00  0.00     0.108 A 
ENDBRANCH   6   9
ENDBRANCH   2   5
BRANCH   1  19
HETATM   19  C   UNL     1      44.341 -10.716   8.739  1.00  0.00     0.076 C 
HETATM   20  C   UNL     1      43.171 -10.106   8.982  1.00  0.00     0.017 C 
BRANCH  20  21
HETATM   21  C   UNL     1      42.892  -9.236  10.133  1.00  0.00    -0.033 A 
HETATM   22  C   UNL     1      43.822  -9.204  11.178  1.00  0.00     0.014 A 
HETATM   23  C   UNL     1      43.633  -8.369  12.281  1.00  0.00     0.040 A 
HETATM   24  C   UNL     1      42.512  -7.540  12.354  1.00  0.00     0.101 A 
HETATM   25  C   UNL     1      41.569  -7.557  11.307  1.00  0.00     0.102 A 
HETATM   26  C   UNL     1      41.770  -8.397  10.202  1.00  0.00     0.051 A 
BRANCH  24  27
HETATM   27  O   UNL     1      42.245  -6.688  13.397  1.00  0.00    -0.353 OA
HETATM   28  C   UNL     1      42.764  -7.032  14.674  1.00  0.00     0.210 C 
ENDBRANCH  24  27
BRANCH  25  29
HETATM   29  O   UNL     1      40.499  -6.709  11.454  1.00  0.00    -0.349 OA
BRANCH  29  30
HETATM   30  C   UNL     1      39.189  -7.266  11.422  1.00  0.00     0.171 C 
HETATM   31  C   UNL     1      38.757  -7.525  12.854  1.00  0.00     0.034 C 
ENDBRANCH  29  30
ENDBRANCH  25  29
ENDBRANCH  20  21
ENDBRANCH   1  19
TORSDOF 7
ENDMDL
MODEL 6
REMARK VINA RESULT:      -8.2      7.679     10.250
REMARK  7 active torsions:
REMARK  status: ('A' for Active; 'I' for Inactive)
REMARK    1  A    between atoms: C_2  and  O_3 
REMARK    2  A    between atoms: O_3  and  C_4 
REMARK    3  A    between atoms: C_5  and  O_6 
REMARK    4  A    between atoms: C_10  and  C_11 
REMARK    5  A    between atoms: C_12  and  C_13 
REMARK       I    between atoms: C_13  and  N_14 
REMARK    6  A    between atoms: N_14  and  N_15 
REMARK       I    between atoms: N_15  and  C_16 
REMARK    7  A    between atoms: C_16  and  C_17 
ROOT
HETATM    1  C   UNL     1      40.360 -14.618   0.484  1.00  0.00     0.259 C 
HETATM    2  N   UNL     1      41.433 -14.364   1.304  1.00  0.00    -0.264 N 
HETATM    3  O   UNL     1      39.706 -15.656   0.536  1.00  0.00    -0.267 OA
HETATM    4  H   UNL     1      41.935 -13.480   1.353  1.00  0.00     0.190 HD
ENDROOT
BRANCH   2   5
HETATM    5  N   UNL     1      41.739 -15.314   2.287  1.00  0.00    -0.263 N 
HETATM    6  C   UNL     1      43.005 -15.871   2.309  1.00  0.00     0.272 C 
HETATM    7  O   UNL     1      43.816 -15.650   1.411  1.00  0.00    -0.266 OA
HETATM    8  H   UNL     1      41.120 -15.335   3.092  1.00  0.00     0.190 HD
BRANCH   6   9
HETATM    9  C   UNL     1      43.292 -16.716   3.469  1.00  0.00     0.061 A 
HETATM   10  C   UNL     1      43.495 -18.140   3.471  1.00  0.00     0.008 A 
HETATM   11  C   UNL     1      43.746 -18.541   4.789  1.00  0.00     0.045 A 
HETATM   12  C   UNL     1      43.490 -19.127   2.460  1.00  0.00     0.015 A 
HETATM   13  C   UNL     1      43.995 -19.883   5.124  1.00  0.00     0.030 A 
HETATM   14  N   UNL     1      43.692 -17.406   5.566  1.00  0.00    -0.359 N 
HETATM   15  C   UNL     1      43.982 -20.835   4.101  1.00  0.00     0.002 A 
HETATM   16  C   UNL     1      43.732 -20.465   2.785  1.00  0.00     0.001 A 
HETATM   17  C   UNL     1      43.886 -17.331   6.998  1.00  0.00     0.156 C 
HETATM   18  C   UNL     1      43.419 -16.309   4.788  1.00  0.00     0.108 A 
ENDBRANCH   6   9
ENDBRANCH   2   5
BRANCH   1  19
HETATM   19  C   UNL     1      40.065 -13.517  -0.467  1.00  0.00     0.076 C 
HETATM   20  C   UNL     1      40.940 -12.505  -0.582  1.00  0.00     0.017 C 
BRANCH  20  21
HETATM   21  C   UNL     1      40.769 -11.332  -1.451  1.00  0.00    -0.033 A 
HETATM   22  C   UNL     1      39.863 -11.423  -2.513  1.00  0.00     0.014 A 
HETATM   23  C   UNL     1      39.627 -10.331  -3.350  1.00  0.00     0.040 A 
HETATM   24  C   UNL     1      40.287  -9.120  -3.132  1.00  0.00     0.101 A 
HETATM   25  C   UNL     1      41.200  -9.011  -2.063  1.00  0.00     0.102 A 
HETATM   26  C   UNL     1      41.426 -10.115  -1.227  1.00  0.00     0.051 A 
BRANCH  24  27
HETATM   27  O   UNL     1      40.118  -7.996  -3.902  1.00  0.00    -0.353 OA
HETATM   28  C   UNL     1      38.796  -7.507  -4.066  1.00  0.00     0.210 C 
ENDBRANCH  24  27
BRANCH  25  29
HETATM   29  O   UNL     1      41.802  -7.787  -1.916  1.00  0.00    -0.349 OA
BRANCH  29  30
HETATM   30  C   UNL     1      43.202  -7.752  -1.660  1.00  0.00     0.171 C 
HETATM   31  C   UNL     1      43.698  -6.350  -1.965  1.00  0.00     0.034 C 
ENDBRANCH  29  30
ENDBRANCH  25  29
ENDBRANCH  20  21
ENDBRANCH   1  19
TORSDOF 7
ENDMDL
MODEL 7
REMARK VINA RESULT:      -8.2      1.229      2.060
REMARK  7 active torsions:
REMARK  status: ('A' for Active; 'I' for Inactive)
REMARK    1  A    between atoms: C_2  and  O_3 
REMARK    2  A    between atoms: O_3  and  C_4 
REMARK    3  A    between atoms: C_5  and  O_6 
REMARK    4  A    between atoms: C_10  and  C_11 
REMARK    5  A    between atoms: C_12  and  C_13 
REMARK       I    between atoms: C_13  and  N_14 
REMARK    6  A    between atoms: N_14  and  N_15 
REMARK       I    between atoms: N_15  and  C_16 
REMARK    7  A    between atoms: C_16  and  C_17 
ROOT
HETATM    1  C   UNL     1      44.296 -11.653   7.317  1.00  0.00     0.259 C 
HETATM    2  N   UNL     1      43.066 -12.163   6.980  1.00  0.00    -0.264 N 
HETATM    3  O   UNL     1      45.331 -11.952   6.729  1.00  0.00    -0.267 OA
HETATM    4  H   UNL     1      42.180 -11.866   7.381  1.00  0.00     0.190 HD
ENDROOT
BRANCH   2   5
HETATM    5  N   UNL     1      42.996 -13.007   5.864  1.00  0.00    -0.263 N 
HETATM    6  C   UNL     1      42.663 -14.337   6.049  1.00  0.00     0.272 C 
HETATM    7  O   UNL     1      42.558 -14.818   7.177  1.00  0.00    -0.266 OA
HETATM    8  H   UNL     1      42.917 -12.547   4.962  1.00  0.00     0.190 HD
BRANCH   6   9
HETATM    9  C   UNL     1      42.441 -15.100   4.821  1.00  0.00     0.061 A 
HETATM   10  C   UNL     1      43.070 -16.340   4.449  1.00  0.00     0.008 A 
HETATM   11  C   UNL     1      42.567 -16.723   3.199  1.00  0.00     0.045 A 
HETATM   12  C   UNL     1      44.025 -17.174   5.072  1.00  0.00     0.015 A 
HETATM   13  C   UNL     1      42.982 -17.905   2.562  1.00  0.00     0.030 A 
HETATM   14  N   UNL     1      41.671 -15.751   2.816  1.00  0.00    -0.359 N 
HETATM   15  C   UNL     1      43.928 -18.709   3.204  1.00  0.00     0.002 A 
HETATM   16  C   UNL     1      44.445 -18.350   4.443  1.00  0.00     0.001 A 
HETATM   17  C   UNL     1      40.905 -15.719   1.590  1.00  0.00     0.156 C 
HETATM   18  C   UNL     1      41.589 -14.775   3.777  1.00  0.00     0.108 A 
ENDBRANCH   6   9
ENDBRANCH   2   5
BRANCH   1  19
HETATM   19  C   UNL     1      44.253 -10.705   8.459  1.00  0.00     0.076 C 
HETATM   20  C   UNL     1      43.215  -9.861   8.565  1.00  0.00     0.017 C 
BRANCH  20  21
HETATM   21  C   UNL     1      43.052  -8.846   9.615  1.00  0.00    -0.033 A 
HETATM   22  C   UNL     1      42.684  -7.553   9.231  1.00  0.00     0.014 A 
HETATM   23  C   UNL     1      42.476  -6.553  10.185  1.00  0.00     0.040 A 
HETATM   24  C   UNL     1      42.621  -6.835  11.545  1.00  0.00     0.101 A 
HETATM   25  C   UNL     1      42.987  -8.136  11.947  1.00  0.00     0.102 A 
HETATM   26  C   UNL     1      43.190  -9.132  10.980  1.00  0.00     0.051 A 
BRANCH  24  27
HETATM   27  O   UNL     1      42.437  -5.919  12.550  1.00  0.00    -0.353 OA
HETATM   28  C   UNL     1      41.159  -5.308  12.653  1.00  0.00     0.210 C 
ENDBRANCH  24  27
BRANCH  25  29
HETATM   29  O   UNL     1      43.104  -8.330  13.301  1.00  0.00    -0.349 OA
BRANCH  29  30
HETATM   30  C   UNL     1      42.080  -9.061  13.967  1.00  0.00     0.171 C 
HETATM   31  C   UNL     1      41.617  -8.238  15.156  1.00  0.00     0.034 C 
ENDBRANCH  29  30
ENDBRANCH  25  29
ENDBRANCH  20  21
ENDBRANCH   1  19
TORSDOF 7
ENDMDL
MODEL 8
REMARK VINA RESULT:      -8.1      6.842     11.381
REMARK  7 active torsions:
REMARK  status: ('A' for Active; 'I' for Inactive)
REMARK    1  A    between atoms: C_2  and  O_3 
REMARK    2  A    between atoms: O_3  and  C_4 
REMARK    3  A    between atoms: C_5  and  O_6 
REMARK    4  A    between atoms: C_10  and  C_11 
REMARK    5  A    between atoms: C_12  and  C_13 
REMARK       I    between atoms: C_13  and  N_14 
REMARK    6  A    between atoms: N_14  and  N_15 
REMARK       I    between atoms: N_15  and  C_16 
REMARK    7  A    between atoms: C_16  and  C_17 
ROOT
HETATM    1  C   UNL     1      40.594 -13.916   1.079  1.00  0.00     0.259 C 
HETATM    2  N   UNL     1      41.417 -13.641   0.015  1.00  0.00    -0.264 N 
HETATM    3  O   UNL     1      39.626 -13.222   1.376  1.00  0.00    -0.267 OA
HETATM    4  H   UNL     1      42.167 -14.244  -0.316  1.00  0.00     0.190 HD
ENDROOT
BRANCH   2   5
HETATM    5  N   UNL     1      41.082 -12.553  -0.803  1.00  0.00    -0.263 N 
HETATM    6  C   UNL     1      40.488 -12.795  -2.029  1.00  0.00     0.272 C 
HETATM    7  O   UNL     1      40.371 -13.938  -2.468  1.00  0.00    -0.266 OA
HETATM    8  H   UNL     1      41.034 -11.649  -0.342  1.00  0.00     0.190 HD
BRANCH   6   9
HETATM    9  C   UNL     1      40.014 -11.604  -2.735  1.00  0.00     0.061 A 
HETATM   10  C   UNL     1      38.645 -11.215  -2.948  1.00  0.00     0.008 A 
HETATM   11  C   UNL     1      38.642 -10.012  -3.665  1.00  0.00     0.045 A 
HETATM   12  C   UNL     1      37.402 -11.784  -2.588  1.00  0.00     0.015 A 
HETATM   13  C   UNL     1      37.449  -9.363  -4.024  1.00  0.00     0.030 A 
HETATM   14  N   UNL     1      39.959  -9.681  -3.889  1.00  0.00    -0.359 N 
HETATM   15  C   UNL     1      36.236  -9.952  -3.655  1.00  0.00     0.002 A 
HETATM   16  C   UNL     1      36.211 -11.147  -2.946  1.00  0.00     0.001 A 
HETATM   17  C   UNL     1      40.447  -8.517  -4.597  1.00  0.00     0.156 C 
HETATM   18  C   UNL     1      40.788 -10.626  -3.339  1.00  0.00     0.108 A 
ENDBRANCH   6   9
ENDBRANCH   2   5
BRANCH   1  19
HETATM   19  C   UNL     1      40.984 -15.134   1.832  1.00  0.00     0.076 C 
HETATM   20  C   UNL     1      42.251 -15.260   2.254  1.00  0.00     0.017 C 
BRANCH  20  21
HETATM   21  C   UNL     1      42.793 -16.419   2.978  1.00  0.00    -0.033 A 
HETATM   22  C   UNL     1      43.287 -17.492   2.229  1.00  0.00     0.014 A 
HETATM   23  C   UNL     1      43.850 -18.606   2.857  1.00  0.00     0.040 A 
HETATM   24  C   UNL     1      43.938 -18.661   4.249  1.00  0.00     0.101 A 
HETATM   25  C   UNL     1      43.448 -17.584   5.017  1.00  0.00     0.102 A 
HETATM   26  C   UNL     1      42.888 -16.470   4.375  1.00  0.00     0.051 A 
BRANCH  24  27
HETATM   27  O   UNL     1      44.475 -19.712   4.951  1.00  0.00    -0.353 OA
HETATM   28  C   UNL     1      43.822 -20.969   4.849  1.00  0.00     0.210 C 
ENDBRANCH  24  27
BRANCH  25  29
HETATM   29  O   UNL     1      43.577 -17.716   6.377  1.00  0.00    -0.349 OA
BRANCH  29  30
HETATM   30  C   UNL     1      44.203 -16.660   7.099  1.00  0.00     0.171 C 
HETATM   31  C   UNL     1      43.135 -15.957   7.917  1.00  0.00     0.034 C 
ENDBRANCH  29  30
ENDBRANCH  25  29
ENDBRANCH  20  21
ENDBRANCH   1  19
TORSDOF 7
ENDMDL
MODEL 9
REMARK VINA RESULT:      -8.0      2.712     11.102
REMARK  7 active torsions:
REMARK  status: ('A' for Active; 'I' for Inactive)
REMARK    1  A    between atoms: C_2  and  O_3 
REMARK    2  A    between atoms: O_3  and  C_4 
REMARK    3  A    between atoms: C_5  and  O_6 
REMARK    4  A    between atoms: C_10  and  C_11 
REMARK    5  A    between atoms: C_12  and  C_13 
REMARK       I    between atoms: C_13  and  N_14 
REMARK    6  A    between atoms: N_14  and  N_15 
REMARK       I    between atoms: N_15  and  C_16 
REMARK    7  A    between atoms: C_16  and  C_17 
ROOT
HETATM    1  C   UNL     1      44.122 -11.365   7.915  1.00  0.00     0.259 C 
HETATM    2  N   UNL     1      42.957 -10.656   8.084  1.00  0.00    -0.264 N 
HETATM    3  O   UNL     1      45.113 -11.205   8.621  1.00  0.00    -0.267 OA
HETATM    4  H   UNL     1      42.089 -10.829   7.581  1.00  0.00     0.190 HD
ENDROOT
BRANCH   2   5
HETATM    5  N   UNL     1      42.889  -9.764   9.162  1.00  0.00    -0.263 N 
HETATM    6  C   UNL     1      43.105  -8.417   8.931  1.00  0.00     0.272 C 
HETATM    7  O   UNL     1      43.483  -8.009   7.834  1.00  0.00    -0.266 OA
HETATM    8  H   UNL     1      42.415 -10.105   9.993  1.00  0.00     0.190 HD
BRANCH   6   9
HETATM    9  C   UNL     1      42.842  -7.541  10.073  1.00  0.00     0.061 A 
HETATM   10  C   UNL     1      42.719  -7.932  11.452  1.00  0.00     0.008 A 
HETATM   11  C   UNL     1      42.472  -6.780  12.210  1.00  0.00     0.045 A 
HETATM   12  C   UNL     1      42.800  -9.172  12.125  1.00  0.00     0.015 A 
HETATM   13  C   UNL     1      42.310  -6.829  13.605  1.00  0.00     0.030 A 
HETATM   14  N   UNL     1      42.437  -5.725  11.328  1.00  0.00    -0.359 N 
HETATM   15  C   UNL     1      42.395  -8.071  14.240  1.00  0.00     0.002 A 
HETATM   16  C   UNL     1      42.636  -9.229  13.512  1.00  0.00     0.001 A 
HETATM   17  C   UNL     1      42.206  -4.335  11.655  1.00  0.00     0.156 C 
HETATM   18  C   UNL     1      42.655  -6.167  10.047  1.00  0.00     0.108 A 
ENDBRANCH   6   9
ENDBRANCH   2   5
BRANCH   1  19
HETATM   19  C   UNL     1      44.065 -12.343   6.800  1.00  0.00     0.076 C 
HETATM   20  C   UNL     1      43.661 -13.597   7.054  1.00  0.00     0.017 C 
BRANCH  20  21
HETATM   21  C   UNL     1      43.588 -14.681   6.064  1.00  0.00    -0.033 A 
HETATM   22  C   UNL     1      44.251 -15.879   6.347  1.00  0.00     0.014 A 
HETATM   23  C   UNL     1      44.187 -16.960   5.465  1.00  0.00     0.040 A 
HETATM   24  C   UNL     1      43.447 -16.864   4.284  1.00  0.00     0.101 A 
HETATM   25  C   UNL     1      42.769 -15.664   3.988  1.00  0.00     0.102 A 
HETATM   26  C   UNL     1      42.838 -14.586   4.883  1.00  0.00     0.051 A 
BRANCH  24  27
HETATM   27  O   UNL     1      43.327 -17.873   3.361  1.00  0.00    -0.353 OA
HETATM   28  C   UNL     1      44.177 -19.001   3.508  1.00  0.00     0.210 C 
ENDBRANCH  24  27
BRANCH  25  29
HETATM   29  O   UNL     1      42.062 -15.654   2.812  1.00  0.00    -0.349 OA
BRANCH  29  30
HETATM   30  C   UNL     1      40.672 -15.349   2.865  1.00  0.00     0.171 C 
HETATM   31  C   UNL     1      40.046 -15.797   1.556  1.00  0.00     0.034 C 
ENDBRANCH  29  30
ENDBRANCH  25  29
ENDBRANCH  20  21
ENDBRANCH   1  19
TORSDOF 7
ENDMDL
MODEL 10
REMARK VINA RESULT:      -8.0      2.715     11.035
REMARK  7 active torsions:
REMARK  status: ('A' for Active; 'I' for Inactive)
REMARK    1  A    between atoms: C_2  and  O_3 
REMARK    2  A    between atoms: O_3  and  C_4 
REMARK    3  A    between atoms: C_5  and  O_6 
REMARK    4  A    between atoms: C_10  and  C_11 
REMARK    5  A    between atoms: C_12  and  C_13 
REMARK       I    between atoms: C_13  and  N_14 
REMARK    6  A    between atoms: N_14  and  N_15 
REMARK       I    between atoms: N_15  and  C_16 
REMARK    7  A    between atoms: C_16  and  C_17 
ROOT
HETATM    1  C   UNL     1      44.435 -11.502   7.867  1.00  0.00     0.259 C 
HETATM    2  N   UNL     1      43.219 -11.051   8.321  1.00  0.00    -0.264 N 
HETATM    3  O   UNL     1      45.506 -11.144   8.348  1.00  0.00    -0.267 OA
HETATM    4  H   UNL     1      42.314 -11.397   8.011  1.00  0.00     0.190 HD
ENDROOT
BRANCH   2   5
HETATM    5  N   UNL     1      43.216 -10.199   9.433  1.00  0.00    -0.263 N 
HETATM    6  C   UNL     1      42.216  -9.250   9.547  1.00  0.00     0.272 C 
HETATM    7  O   UNL     1      41.414  -9.053   8.634  1.00  0.00    -0.266 OA
HETATM    8  H   UNL     1      43.773 -10.502  10.227  1.00  0.00     0.190 HD
BRANCH   6   9
HETATM    9  C   UNL     1      42.187  -8.526  10.818  1.00  0.00     0.061 A 
HETATM   10  C   UNL     1      42.297  -7.103  11.004  1.00  0.00     0.008 A 
HETATM   11  C   UNL     1      42.218  -6.838  12.378  1.00  0.00     0.045 A 
HETATM   12  C   UNL     1      42.454  -6.013  10.119  1.00  0.00     0.015 A 
HETATM   13  C   UNL     1      42.284  -5.530  12.887  1.00  0.00     0.030 A 
HETATM   14  N   UNL     1      42.073  -8.052  13.009  1.00  0.00    -0.359 N 
HETATM   15  C   UNL     1      42.441  -4.473  11.985  1.00  0.00     0.002 A 
HETATM   16  C   UNL     1      42.526  -4.709  10.619  1.00  0.00     0.001 A 
HETATM   17  C   UNL     1      41.954  -8.275  14.433  1.00  0.00     0.156 C 
HETATM   18  C   UNL     1      42.056  -9.068  12.087  1.00  0.00     0.108 A 
ENDBRANCH   6   9
ENDBRANCH   2   5
BRANCH   1  19
HETATM   19  C   UNL     1      44.328 -12.463   6.741  1.00  0.00     0.076 C 
HETATM   20  C   UNL     1      43.811 -13.680   6.972  1.00  0.00     0.017 C 
BRANCH  20  21
HETATM   21  C   UNL     1      43.675 -14.747   5.970  1.00  0.00    -0.033 A 
HETATM   22  C   UNL     1      44.333 -15.959   6.202  1.00  0.00     0.014 A 
HETATM   23  C   UNL     1      44.212 -17.025   5.308  1.00  0.00     0.040 A 
HETATM   24  C   UNL     1      43.418 -16.899   4.166  1.00  0.00     0.101 A 
HETATM   25  C   UNL     1      42.745 -15.685   3.920  1.00  0.00     0.102 A 
HETATM   26  C   UNL     1      42.872 -14.623   4.828  1.00  0.00     0.051 A 
BRANCH  24  27
HETATM   27  O   UNL     1      43.241 -17.891   3.233  1.00  0.00    -0.353 OA
HETATM   28  C   UNL     1      44.039 -19.059   3.358  1.00  0.00     0.210 C 
ENDBRANCH  24  27
BRANCH  25  29
HETATM   29  O   UNL     1      41.983 -15.647   2.779  1.00  0.00    -0.349 OA
BRANCH  29  30
HETATM   30  C   UNL     1      40.566 -15.698   2.914  1.00  0.00     0.171 C 
HETATM   31  C   UNL     1      39.967 -15.767   1.521  1.00  0.00     0.034 C 
ENDBRANCH  29  30
ENDBRANCH  25  29
ENDBRANCH  20  21
ENDBRANCH   1  19
TORSDOF 7
ENDMDL
