MODEL 1
REMARK VINA RESULT:      -8.6      0.000      0.000
REMARK  7 active torsions:
REMARK  status: ('A' for Active; 'I' for Inactive)
REMARK    1  A    between atoms: O_2  and  C_3 
REMARK    2  A    between atoms: C_4  and  O_5 
REMARK    3  A    between atoms: C_13  and  C_14 
REMARK       I    between atoms: C_14  and  N_15 
REMARK    4  A    between atoms: N_15  and  C_16 
REMARK    5  A    between atoms: C_16  and  C_17 
REMARK    6  A    between atoms: C_17  and  C_18 
REMARK    7  A    between atoms: C_18  and  C_19 
ROOT
HETATM    1  C   UNL     1      40.778 -15.215   3.839  1.00  0.00     0.268 C 
HETATM    2  N   UNL     1      41.467 -14.286   4.581  1.00  0.00    -0.356 N 
HETATM    3  O   UNL     1      40.371 -16.272   4.313  1.00  0.00    -0.266 OA
HETATM    4  H   UNL     1      41.908 -13.504   4.115  1.00  0.00     0.162 HD
ENDROOT
BRANCH   1   5
HETATM    5  C   UNL     1      40.607 -14.885   2.442  1.00  0.00     0.102 A 
HETATM    6  N   UNL     1      41.056 -13.684   1.935  1.00  0.00    -0.351 N 
HETATM    7  C   UNL     1      40.730 -13.557   0.607  1.00  0.00     0.045 A 
HETATM    8  H   UNL     1      41.534 -12.987   2.492  1.00  0.00     0.166 HD
HETATM    9  C   UNL     1      40.955 -12.505  -0.285  1.00  0.00     0.070 A 
HETATM   10  C   UNL     1      40.090 -14.731   0.231  1.00  0.00    -0.004 A 
HETATM   11  C   UNL     1      40.511 -12.643  -1.611  1.00  0.00     0.103 A 
HETATM   12  C   UNL     1      39.827 -13.802  -2.010  1.00  0.00     0.102 A 
HETATM   13  C   UNL     1      39.646 -14.862  -1.100  1.00  0.00     0.053 A 
HETATM   14  C   UNL     1      40.031 -15.565   1.383  1.00  0.00     0.049 A 
BRANCH  11  15
HETATM   15  O   UNL     1      40.778 -11.528  -2.367  1.00  0.00    -0.353 OA
HETATM   16  C   UNL     1      39.840 -10.461  -2.316  1.00  0.00     0.210 C 
ENDBRANCH  11  15
BRANCH  12  17
HETATM   17  O   UNL     1      39.366 -13.891  -3.301  1.00  0.00    -0.353 OA
HETATM   18  C   UNL     1      38.134 -14.587  -3.462  1.00  0.00     0.210 C 
ENDBRANCH  12  17
ENDBRANCH   1   5
BRANCH   2  19
HETATM   19  C   UNL     1      41.863 -14.534   5.949  1.00  0.00     0.123 C 
BRANCH  19  20
HETATM   20  C   UNL     1      43.381 -14.478   6.148  1.00  0.00     0.027 C 
BRANCH  20  21
HETATM   21  C   UNL     1      44.006 -15.784   6.647  1.00  0.00     0.080 C 
BRANCH  21  22
HETATM   22  C   UNL     1      43.906 -16.882   5.645  1.00  0.00     0.105 A 
HETATM   23  N   UNL     1      43.705 -16.745   4.350  1.00  0.00    -0.233 NA
HETATM   24  C   UNL     1      43.699 -18.024   3.842  1.00  0.00     0.085 A 
HETATM   25  C   UNL     1      43.903 -18.959   4.850  1.00  0.00     0.062 A 
HETATM   26  C   UNL     1      43.525 -18.466   2.524  1.00  0.00     0.034 A 
HETATM   27  N   UNL     1      44.027 -18.206   5.989  1.00  0.00    -0.343 N 
HETATM   28  C   UNL     1      43.950 -20.335   4.624  1.00  0.00     0.032 A 
HETATM   29  H   UNL     1      44.183 -18.564   6.920  1.00  0.00     0.167 HD
HETATM   30  C   UNL     1      43.776 -20.759   3.301  1.00  0.00     0.002 A 
HETATM   31  C   UNL     1      43.565 -19.843   2.266  1.00  0.00     0.002 A 
ENDBRANCH  21  22
ENDBRANCH  20  21
ENDBRANCH  19  20
ENDBRANCH   2  19
TORSDOF 7
ENDMDL
MODEL 2
REMARK VINA RESULT:      -8.5      0.781      2.194
REMARK  7 active torsions:
REMARK  status: ('A' for Active; 'I' for Inactive)
REMARK    1  A    between atoms: O_2  and  C_3 
REMARK    2  A    between atoms: C_4  and  O_5 
REMARK    3  A    between atoms: C_13  and  C_14 
REMARK       I    between atoms: C_14  and  N_15 
REMARK    4  A    between atoms: N_15  and  C_16 
REMARK    5  A    between atoms: C_16  and  C_17 
REMARK    6  A    between atoms: C_17  and  C_18 
REMARK    7  A    between atoms: C_18  and  C_19 
ROOT
HETATM    1  C   UNL     1      40.464 -15.194   3.609  1.00  0.00     0.268 C 
HETATM    2  N   UNL     1      40.758 -14.380   4.676  1.00  0.00    -0.356 N 
HETATM    3  O   UNL     1      40.267 -16.399   3.729  1.00  0.00    -0.266 OA
HETATM    4  H   UNL     1      41.057 -13.428   4.508  1.00  0.00     0.162 HD
ENDROOT
BRANCH   1   5
HETATM    5  C   UNL     1      40.450 -14.540   2.320  1.00  0.00     0.102 A 
HETATM    6  N   UNL     1      39.832 -15.121   1.233  1.00  0.00    -0.351 N 
HETATM    7  C   UNL     1      39.999 -14.360   0.104  1.00  0.00     0.045 A 
HETATM    8  H   UNL     1      39.347 -16.010   1.276  1.00  0.00     0.166 HD
HETATM    9  C   UNL     1      39.576 -14.580  -1.210  1.00  0.00     0.070 A 
HETATM   10  C   UNL     1      40.711 -13.227   0.478  1.00  0.00    -0.004 A 
HETATM   11  C   UNL     1      39.888 -13.618  -2.186  1.00  0.00     0.103 A 
HETATM   12  C   UNL     1      40.639 -12.482  -1.844  1.00  0.00     0.102 A 
HETATM   13  C   UNL     1      41.021 -12.267  -0.506  1.00  0.00     0.053 A 
HETATM   14  C   UNL     1      40.976 -13.340   1.873  1.00  0.00     0.049 A 
BRANCH  11  15
HETATM   15  O   UNL     1      39.432 -13.974  -3.431  1.00  0.00    -0.353 OA
HETATM   16  C   UNL     1      38.189 -14.660  -3.503  1.00  0.00     0.210 C 
ENDBRANCH  11  15
BRANCH  12  17
HETATM   17  O   UNL     1      40.967 -11.581  -2.828  1.00  0.00    -0.353 OA
HETATM   18  C   UNL     1      40.023 -10.533  -3.033  1.00  0.00     0.210 C 
ENDBRANCH  12  17
ENDBRANCH   1   5
BRANCH   2  19
HETATM   19  C   UNL     1      40.971 -14.902   6.006  1.00  0.00     0.123 C 
BRANCH  19  20
HETATM   20  C   UNL     1      42.427 -14.784   6.467  1.00  0.00     0.027 C 
BRANCH  20  21
HETATM   21  C   UNL     1      43.464 -14.987   5.359  1.00  0.00     0.080 C 
BRANCH  21  22
HETATM   22  C   UNL     1      43.584 -16.414   4.948  1.00  0.00     0.105 A 
HETATM   23  N   UNL     1      43.821 -17.440   5.740  1.00  0.00    -0.233 NA
HETATM   24  C   UNL     1      43.832 -18.544   4.918  1.00  0.00     0.085 A 
HETATM   25  C   UNL     1      43.594 -18.181   3.598  1.00  0.00     0.062 A 
HETATM   26  C   UNL     1      44.039 -19.894   5.230  1.00  0.00     0.034 A 
HETATM   27  N   UNL     1      43.444 -16.820   3.643  1.00  0.00    -0.343 N 
HETATM   28  C   UNL     1      43.543 -19.098   2.546  1.00  0.00     0.032 A 
HETATM   29  H   UNL     1      43.260 -16.219   2.853  1.00  0.00     0.167 HD
HETATM   30  C   UNL     1      43.751 -20.443   2.876  1.00  0.00     0.002 A 
HETATM   31  C   UNL     1      43.996 -20.838   4.195  1.00  0.00     0.002 A 
ENDBRANCH  21  22
ENDBRANCH  20  21
ENDBRANCH  19  20
ENDBRANCH   2  19
TORSDOF 7
ENDMDL
MODEL 3
REMARK VINA RESULT:      -8.2      6.687     10.245
REMARK  7 active torsions:
REMARK  status: ('A' for Active; 'I' for Inactive)
REMARK    1  A    between atoms: O_2  and  C_3 
REMARK    2  A    between atoms: C_4  and  O_5 
REMARK    3  A    between atoms: C_13  and  C_14 
REMARK       I    between atoms: C_14  and  N_15 
REMARK    4  A    between atoms: N_15  and  C_16 
REMARK    5  A    between atoms: C_16  and  C_17 
REMARK    6  A    between atoms: C_17  and  C_18 
REMARK    7  A    between atoms: C_18  and  C_19 
ROOT
HETATM    1  C   UNL     1      44.542 -10.890   8.713  1.00  0.00     0.268 C 
HETATM    2  N   UNL     1      43.735 -11.572   7.835  1.00  0.00    -0.356 N 
HETATM    3  O   UNL     1      45.764 -10.864   8.607  1.00  0.00    -0.266 OA
HETATM    4  H   UNL     1      42.753 -11.687   8.047  1.00  0.00     0.162 HD
ENDROOT
BRANCH   1   5
HETATM    5  C   UNL     1      43.853 -10.242   9.807  1.00  0.00     0.102 A 
HETATM    6  N   UNL     1      42.478 -10.154   9.829  1.00  0.00    -0.351 N 
HETATM    7  C   UNL     1      42.046  -9.445  10.923  1.00  0.00     0.045 A 
HETATM    8  H   UNL     1      41.882 -10.543   9.109  1.00  0.00     0.166 HD
HETATM    9  C   UNL     1      40.755  -9.088  11.320  1.00  0.00     0.070 A 
HETATM   10  C   UNL     1      43.175  -9.100  11.655  1.00  0.00    -0.004 A 
HETATM   11  C   UNL     1      40.598  -8.348  12.505  1.00  0.00     0.103 A 
HETATM   12  C   UNL     1      41.723  -7.953  13.246  1.00  0.00     0.102 A 
HETATM   13  C   UNL     1      43.010  -8.358  12.842  1.00  0.00     0.053 A 
HETATM   14  C   UNL     1      44.303  -9.618  10.958  1.00  0.00     0.049 A 
BRANCH  11  15
HETATM   15  O   UNL     1      39.282  -8.049  12.760  1.00  0.00    -0.353 OA
HETATM   16  C   UNL     1      38.597  -7.241  11.813  1.00  0.00     0.210 C 
ENDBRANCH  11  15
BRANCH  12  17
HETATM   17  O   UNL     1      41.542  -7.194  14.377  1.00  0.00    -0.353 OA
HETATM   18  C   UNL     1      41.583  -7.912  15.606  1.00  0.00     0.210 C 
ENDBRANCH  12  17
ENDBRANCH   1   5
BRANCH   2  19
HETATM   19  C   UNL     1      44.274 -12.406   6.784  1.00  0.00     0.123 C 
BRANCH  19  20
HETATM   20  C   UNL     1      43.314 -13.520   6.357  1.00  0.00     0.027 C 
BRANCH  20  21
HETATM   21  C   UNL     1      43.670 -14.908   6.896  1.00  0.00     0.080 C 
BRANCH  21  22
HETATM   22  C   UNL     1      43.660 -15.951   5.832  1.00  0.00     0.105 A 
HETATM   23  N   UNL     1      44.297 -17.104   5.859  1.00  0.00    -0.233 NA
HETATM   24  C   UNL     1      43.980 -17.727   4.674  1.00  0.00     0.085 A 
HETATM   25  C   UNL     1      43.128 -16.937   3.911  1.00  0.00     0.062 A 
HETATM   26  C   UNL     1      44.382 -18.975   4.179  1.00  0.00     0.034 A 
HETATM   27  N   UNL     1      42.943 -15.810   4.669  1.00  0.00    -0.343 N 
HETATM   28  C   UNL     1      42.638 -17.320   2.662  1.00  0.00     0.032 A 
HETATM   29  H   UNL     1      42.376 -15.014   4.416  1.00  0.00     0.167 HD
HETATM   30  C   UNL     1      43.048 -18.570   2.183  1.00  0.00     0.002 A 
HETATM   31  C   UNL     1      43.907 -19.386   2.926  1.00  0.00     0.002 A 
ENDBRANCH  21  22
ENDBRANCH  20  21
ENDBRANCH  19  20
ENDBRANCH   2  19
TORSDOF 7
ENDMDL
MODEL 4
REMARK VINA RESULT:      -8.2      1.311      1.430
REMARK  7 active torsions:
REMARK  status: ('A' for Active; 'I' for Inactive)
REMARK    1  A    between atoms: O_2  and  C_3 
REMARK    2  A    between atoms: C_4  and  O_5 
REMARK    3  A    between atoms: C_13  and  C_14 
REMARK       I    between atoms: C_14  and  N_15 
REMARK    4  A    between atoms: N_15  and  C_16 
REMARK    5  A    between atoms: C_16  and  C_17 
REMARK    6  A    between atoms: C_17  and  C_18 
REMARK    7  A    between atoms: C_18  and  C_19 
ROOT
HETATM    1  C   UNL     1      40.741 -12.966   3.912  1.00  0.00     0.268 C 
HETATM    2  N   UNL     1      41.989 -12.579   4.337  1.00  0.00    -0.356 N 
HETATM    3  O   UNL     1      39.808 -13.157   4.686  1.00  0.00    -0.266 OA
HETATM    4  H   UNL     1      42.760 -12.579   3.681  1.00  0.00     0.162 HD
ENDROOT
BRANCH   1   5
HETATM    5  C   UNL     1      40.612 -13.182   2.489  1.00  0.00     0.102 A 
HETATM    6  N   UNL     1      41.089 -12.258   1.583  1.00  0.00    -0.351 N 
HETATM    7  C   UNL     1      40.802 -12.636   0.295  1.00  0.00     0.045 A 
HETATM    8  H   UNL     1      41.560 -11.403   1.853  1.00  0.00     0.166 HD
HETATM    9  C   UNL     1      41.063 -11.994  -0.919  1.00  0.00     0.070 A 
HETATM   10  C   UNL     1      40.158 -13.865   0.366  1.00  0.00    -0.004 A 
HETATM   11  C   UNL     1      40.654 -12.617  -2.109  1.00  0.00     0.103 A 
HETATM   12  C   UNL     1      39.967 -13.841  -2.067  1.00  0.00     0.102 A 
HETATM   13  C   UNL     1      39.750 -14.484  -0.833  1.00  0.00     0.053 A 
HETATM   14  C   UNL     1      40.058 -14.208   1.744  1.00  0.00     0.049 A 
BRANCH  11  15
HETATM   15  O   UNL     1      40.955 -11.866  -3.219  1.00  0.00    -0.353 OA
HETATM   16  C   UNL     1      40.494 -10.522  -3.245  1.00  0.00     0.210 C 
ENDBRANCH  11  15
BRANCH  12  17
HETATM   17  O   UNL     1      39.541 -14.406  -3.244  1.00  0.00    -0.353 OA
HETATM   18  C   UNL     1      38.128 -14.485  -3.406  1.00  0.00     0.210 C 
ENDBRANCH  12  17
ENDBRANCH   1   5
BRANCH   2  19
HETATM   19  C   UNL     1      42.329 -12.479   5.738  1.00  0.00     0.123 C 
BRANCH  19  20
HETATM   20  C   UNL     1      43.642 -13.187   6.084  1.00  0.00     0.027 C 
BRANCH  20  21
HETATM   21  C   UNL     1      43.473 -14.583   6.689  1.00  0.00     0.080 C 
BRANCH  21  22
HETATM   22  C   UNL     1      43.454 -15.653   5.654  1.00  0.00     0.105 A 
HETATM   23  N   UNL     1      42.774 -15.639   4.525  1.00  0.00    -0.233 NA
HETATM   24  C   UNL     1      43.078 -16.826   3.898  1.00  0.00     0.085 A 
HETATM   25  C   UNL     1      43.964 -17.577   4.661  1.00  0.00     0.062 A 
HETATM   26  C   UNL     1      42.634 -17.332   2.668  1.00  0.00     0.034 A 
HETATM   27  N   UNL     1      44.184 -16.811   5.775  1.00  0.00    -0.343 N 
HETATM   28  C   UNL     1      44.450 -18.825   4.268  1.00  0.00     0.032 A 
HETATM   29  H   UNL     1      44.782 -17.054   6.552  1.00  0.00     0.167 HD
HETATM   30  C   UNL     1      43.997 -19.315   3.037  1.00  0.00     0.002 A 
HETATM   31  C   UNL     1      43.104 -18.584   2.248  1.00  0.00     0.002 A 
ENDBRANCH  21  22
ENDBRANCH  20  21
ENDBRANCH  19  20
ENDBRANCH   2  19
TORSDOF 7
ENDMDL
MODEL 5
REMARK VINA RESULT:      -7.9      5.223      9.277
REMARK  7 active torsions:
REMARK  status: ('A' for Active; 'I' for Inactive)
REMARK    1  A    between atoms: O_2  and  C_3 
REMARK    2  A    between atoms: C_4  and  O_5 
REMARK    3  A    between atoms: C_13  and  C_14 
REMARK       I    between atoms: C_14  and  N_15 
REMARK    4  A    between atoms: N_15  and  C_16 
REMARK    5  A    between atoms: C_16  and  C_17 
REMARK    6  A    between atoms: C_17  and  C_18 
REMARK    7  A    between atoms: C_18  and  C_19 
ROOT
HETATM    1  C   UNL     1      42.235 -13.045   5.619  1.00  0.00     0.268 C 
HETATM    2  N   UNL     1      43.111 -12.178   6.226  1.00  0.00    -0.356 N 
HETATM    3  O   UNL     1      41.077 -12.739   5.352  1.00  0.00    -0.266 OA
HETATM    4  H   UNL     1      44.002 -12.521   6.559  1.00  0.00     0.162 HD
ENDROOT
BRANCH   1   5
HETATM    5  C   UNL     1      42.757 -14.368   5.361  1.00  0.00     0.102 A 
HETATM    6  N   UNL     1      42.732 -14.908   4.093  1.00  0.00    -0.351 N 
HETATM    7  C   UNL     1      43.216 -16.192   4.093  1.00  0.00     0.045 A 
HETATM    8  H   UNL     1      42.372 -14.416   3.284  1.00  0.00     0.166 HD
HETATM    9  C   UNL     1      43.341 -17.115   3.050  1.00  0.00     0.070 A 
HETATM   10  C   UNL     1      43.608 -16.479   5.394  1.00  0.00    -0.004 A 
HETATM   11  C   UNL     1      43.881 -18.380   3.336  1.00  0.00     0.103 A 
HETATM   12  C   UNL     1      44.251 -18.712   4.649  1.00  0.00     0.102 A 
HETATM   13  C   UNL     1      44.148 -17.751   5.673  1.00  0.00     0.053 A 
HETATM   14  C   UNL     1      43.332 -15.324   6.180  1.00  0.00     0.049 A 
BRANCH  11  15
HETATM   15  O   UNL     1      43.924 -19.189   2.226  1.00  0.00    -0.353 OA
HETATM   16  C   UNL     1      42.833 -20.076   2.019  1.00  0.00     0.210 C 
ENDBRANCH  11  15
BRANCH  12  17
HETATM   17  O   UNL     1      44.736 -19.971   4.906  1.00  0.00    -0.353 OA
HETATM   18  C   UNL     1      43.801 -20.878   5.484  1.00  0.00     0.210 C 
ENDBRANCH  12  17
ENDBRANCH   1   5
BRANCH   2  19
HETATM   19  C   UNL     1      42.701 -10.875   6.699  1.00  0.00     0.123 C 
BRANCH  19  20
HETATM   20  C   UNL     1      43.809 -10.142   7.461  1.00  0.00     0.027 C 
BRANCH  20  21
HETATM   21  C   UNL     1      44.335 -10.887   8.691  1.00  0.00     0.080 C 
BRANCH  21  22
HETATM   22  C   UNL     1      43.891 -10.261   9.967  1.00  0.00     0.105 A 
HETATM   23  N   UNL     1      44.238  -9.074  10.421  1.00  0.00    -0.233 NA
HETATM   24  C   UNL     1      43.575  -8.929  11.618  1.00  0.00     0.085 A 
HETATM   25  C   UNL     1      42.805 -10.052  11.897  1.00  0.00     0.062 A 
HETATM   26  C   UNL     1      43.580  -7.860  12.524  1.00  0.00     0.034 A 
HETATM   27  N   UNL     1      43.027 -10.887  10.834  1.00  0.00    -0.343 N 
HETATM   28  C   UNL     1      42.021 -10.180  13.045  1.00  0.00     0.032 A 
HETATM   29  H   UNL     1      42.624 -11.804  10.707  1.00  0.00     0.167 HD
HETATM   30  C   UNL     1      42.037  -9.103  13.939  1.00  0.00     0.002 A 
HETATM   31  C   UNL     1      42.803  -7.962  13.687  1.00  0.00     0.002 A 
ENDBRANCH  21  22
ENDBRANCH  20  21
ENDBRANCH  19  20
ENDBRANCH   2  19
TORSDOF 7
ENDMDL
MODEL 6
REMARK VINA RESULT:      -7.9      2.271      3.090
REMARK  7 active torsions:
REMARK  status: ('A' for Active; 'I' for Inactive)
REMARK    1  A    between atoms: O_2  and  C_3 
REMARK    2  A    between atoms: C_4  and  O_5 
REMARK    3  A    between atoms: C_13  and  C_14 
REMARK       I    between atoms: C_14  and  N_15 
REMARK    4  A    between atoms: N_15  and  C_16 
REMARK    5  A    between atoms: C_16  and  C_17 
REMARK    6  A    between atoms: C_17  and  C_18 
REMARK    7  A    between atoms: C_18  and  C_19 
ROOT
HETATM    1  C   UNL     1      43.447 -11.621   3.723  1.00  0.00     0.268 C 
HETATM    2  N   UNL     1      42.947 -11.789   4.992  1.00  0.00    -0.356 N 
HETATM    3  O   UNL     1      44.635 -11.408   3.502  1.00  0.00    -0.266 OA
HETATM    4  H   UNL     1      41.946 -11.814   5.134  1.00  0.00     0.162 HD
ENDROOT
BRANCH   1   5
HETATM    5  C   UNL     1      42.465 -11.661   2.664  1.00  0.00     0.102 A 
HETATM    6  N   UNL     1      41.954 -12.859   2.211  1.00  0.00    -0.351 N 
HETATM    7  C   UNL     1      41.091 -12.663   1.162  1.00  0.00     0.045 A 
HETATM    8  H   UNL     1      42.217 -13.758   2.596  1.00  0.00     0.166 HD
HETATM    9  C   UNL     1      40.381 -13.585   0.387  1.00  0.00     0.070 A 
HETATM   10  C   UNL     1      41.005 -11.292   0.956  1.00  0.00    -0.004 A 
HETATM   11  C   UNL     1      39.553 -13.101  -0.640  1.00  0.00     0.103 A 
HETATM   12  C   UNL     1      39.475 -11.723  -0.896  1.00  0.00     0.102 A 
HETATM   13  C   UNL     1      40.173 -10.814  -0.076  1.00  0.00     0.053 A 
HETATM   14  C   UNL     1      41.856 -10.670   1.913  1.00  0.00     0.049 A 
BRANCH  11  15
HETATM   15  O   UNL     1      38.937 -14.115  -1.331  1.00  0.00    -0.353 OA
HETATM   16  C   UNL     1      39.494 -14.488  -2.584  1.00  0.00     0.210 C 
ENDBRANCH  11  15
BRANCH  12  17
HETATM   17  O   UNL     1      38.692 -11.282  -1.934  1.00  0.00    -0.353 OA
HETATM   18  C   UNL     1      37.358 -10.928  -1.583  1.00  0.00     0.210 C 
ENDBRANCH  12  17
ENDBRANCH   1   5
BRANCH   2  19
HETATM   19  C   UNL     1      43.765 -11.616   6.171  1.00  0.00     0.123 C 
BRANCH  19  20
HETATM   20  C   UNL     1      44.279 -12.942   6.740  1.00  0.00     0.027 C 
BRANCH  20  21
HETATM   21  C   UNL     1      43.208 -14.023   6.902  1.00  0.00     0.080 C 
BRANCH  21  22
HETATM   22  C   UNL     1      43.269 -15.050   5.826  1.00  0.00     0.105 A 
HETATM   23  N   UNL     1      42.727 -14.964   4.628  1.00  0.00    -0.233 NA
HETATM   24  C   UNL     1      43.058 -16.136   3.989  1.00  0.00     0.085 A 
HETATM   25  C   UNL     1      43.820 -16.954   4.815  1.00  0.00     0.062 A 
HETATM   26  C   UNL     1      42.742 -16.575   2.696  1.00  0.00     0.034 A 
HETATM   27  N   UNL     1      43.937 -16.241   5.980  1.00  0.00    -0.343 N 
HETATM   28  C   UNL     1      44.302 -18.205   4.426  1.00  0.00     0.032 A 
HETATM   29  H   UNL     1      44.431 -16.540   6.809  1.00  0.00     0.167 HD
HETATM   30  C   UNL     1      43.978 -18.627   3.132  1.00  0.00     0.002 A 
HETATM   31  C   UNL     1      43.210 -17.829   2.278  1.00  0.00     0.002 A 
ENDBRANCH  21  22
ENDBRANCH  20  21
ENDBRANCH  19  20
ENDBRANCH   2  19
TORSDOF 7
ENDMDL
MODEL 7
REMARK VINA RESULT:      -7.7      6.147      9.549
REMARK  7 active torsions:
REMARK  status: ('A' for Active; 'I' for Inactive)
REMARK    1  A    between atoms: O_2  and  C_3 
REMARK    2  A    between atoms: C_4  and  O_5 
REMARK    3  A    between atoms: C_13  and  C_14 
REMARK       I    between atoms: C_14  and  N_15 
REMARK    4  A    between atoms: N_15  and  C_16 
REMARK    5  A    between atoms: C_16  and  C_17 
REMARK    6  A    between atoms: C_17  and  C_18 
REMARK    7  A    between atoms: C_18  and  C_19 
ROOT
HETATM    1  C   UNL     1      43.654 -11.305   7.023  1.00  0.00     0.268 C 
HETATM    2  N   UNL     1      42.569 -12.098   6.737  1.00  0.00    -0.356 N 
HETATM    3  O   UNL     1      44.718 -11.393   6.417  1.00  0.00    -0.266 OA
HETATM    4  H   UNL     1      41.770 -12.091   7.358  1.00  0.00     0.162 HD
ENDROOT
BRANCH   1   5
HETATM    5  C   UNL     1      43.475 -10.388   8.126  1.00  0.00     0.102 A 
HETATM    6  N   UNL     1      43.452 -10.837   9.429  1.00  0.00    -0.351 N 
HETATM    7  C   UNL     1      43.205  -9.808  10.302  1.00  0.00     0.045 A 
HETATM    8  H   UNL     1      43.574 -11.809   9.686  1.00  0.00     0.166 HD
HETATM    9  C   UNL     1      43.065  -9.812  11.693  1.00  0.00     0.070 A 
HETATM   10  C   UNL     1      43.109  -8.646   9.546  1.00  0.00    -0.004 A 
HETATM   11  C   UNL     1      42.813  -8.593  12.345  1.00  0.00     0.103 A 
HETATM   12  C   UNL     1      42.673  -7.409  11.603  1.00  0.00     0.102 A 
HETATM   13  C   UNL     1      42.855  -7.428  10.207  1.00  0.00     0.053 A 
HETATM   14  C   UNL     1      43.296  -9.016   8.184  1.00  0.00     0.049 A 
BRANCH  11  15
HETATM   15  O   UNL     1      42.677  -8.749  13.703  1.00  0.00    -0.353 OA
HETATM   16  C   UNL     1      41.371  -8.991  14.207  1.00  0.00     0.210 C 
ENDBRANCH  11  15
BRANCH  12  17
HETATM   17  O   UNL     1      42.385  -6.240  12.264  1.00  0.00    -0.353 OA
HETATM   18  C   UNL     1      41.459  -5.380  11.605  1.00  0.00     0.210 C 
ENDBRANCH  12  17
ENDBRANCH   1   5
BRANCH   2  19
HETATM   19  C   UNL     1      42.635 -13.175   5.776  1.00  0.00     0.123 C 
BRANCH  19  20
HETATM   20  C   UNL     1      42.627 -14.560   6.432  1.00  0.00     0.027 C 
BRANCH  20  21
HETATM   21  C   UNL     1      43.969 -15.294   6.386  1.00  0.00     0.080 C 
BRANCH  21  22
HETATM   22  C   UNL     1      43.906 -16.544   5.579  1.00  0.00     0.105 A 
HETATM   23  N   UNL     1      43.778 -16.626   4.270  1.00  0.00    -0.233 NA
HETATM   24  C   UNL     1      43.780 -17.972   3.984  1.00  0.00     0.085 A 
HETATM   25  C   UNL     1      43.915 -18.725   5.145  1.00  0.00     0.062 A 
HETATM   26  C   UNL     1      43.670 -18.629   2.751  1.00  0.00     0.034 A 
HETATM   27  N   UNL     1      43.989 -17.793   6.146  1.00  0.00    -0.343 N 
HETATM   28  C   UNL     1      43.954 -20.121   5.155  1.00  0.00     0.032 A 
HETATM   29  H   UNL     1      44.090 -17.990   7.131  1.00  0.00     0.167 HD
HETATM   30  C   UNL     1      43.844 -20.760   3.914  1.00  0.00     0.002 A 
HETATM   31  C   UNL     1      43.704 -20.030   2.730  1.00  0.00     0.002 A 
ENDBRANCH  21  22
ENDBRANCH  20  21
ENDBRANCH  19  20
ENDBRANCH   2  19
TORSDOF 7
ENDMDL
MODEL 8
REMARK VINA RESULT:      -7.5      3.036      7.781
REMARK  7 active torsions:
REMARK  status: ('A' for Active; 'I' for Inactive)
REMARK    1  A    between atoms: O_2  and  C_3 
REMARK    2  A    between atoms: C_4  and  O_5 
REMARK    3  A    between atoms: C_13  and  C_14 
REMARK       I    between atoms: C_14  and  N_15 
REMARK    4  A    between atoms: N_15  and  C_16 
REMARK    5  A    between atoms: C_16  and  C_17 
REMARK    6  A    between atoms: C_17  and  C_18 
REMARK    7  A    between atoms: C_18  and  C_19 
ROOT
HETATM    1  C   UNL     1      41.945 -13.311   5.174  1.00  0.00     0.268 C 
HETATM    2  N   UNL     1      41.104 -12.630   4.327  1.00  0.00    -0.356 N 
HETATM    3  O   UNL     1      42.339 -12.839   6.236  1.00  0.00    -0.266 OA
HETATM    4  H   UNL     1      40.926 -12.996   3.401  1.00  0.00     0.162 HD
ENDROOT
BRANCH   1   5
HETATM    5  C   UNL     1      42.376 -14.608   4.704  1.00  0.00     0.102 A 
HETATM    6  N   UNL     1      42.828 -15.569   5.583  1.00  0.00    -0.351 N 
HETATM    7  C   UNL     1      43.245 -16.693   4.914  1.00  0.00     0.045 A 
HETATM    8  H   UNL     1      42.869 -15.434   6.586  1.00  0.00     0.166 HD
HETATM    9  C   UNL     1      43.800 -17.882   5.395  1.00  0.00     0.070 A 
HETATM   10  C   UNL     1      43.014 -16.471   3.562  1.00  0.00    -0.004 A 
HETATM   11  C   UNL     1      44.138 -18.886   4.472  1.00  0.00     0.103 A 
HETATM   12  C   UNL     1      43.951 -18.675   3.097  1.00  0.00     0.102 A 
HETATM   13  C   UNL     1      43.357 -17.482   2.642  1.00  0.00     0.053 A 
HETATM   14  C   UNL     1      42.453 -15.168   3.440  1.00  0.00     0.049 A 
BRANCH  11  15
HETATM   15  O   UNL     1      44.692 -19.986   5.081  1.00  0.00    -0.353 OA
HETATM   16  C   UNL     1      43.833 -21.083   5.359  1.00  0.00     0.210 C 
ENDBRANCH  11  15
BRANCH  12  17
HETATM   17  O   UNL     1      44.332 -19.657   2.215  1.00  0.00    -0.353 OA
HETATM   18  C   UNL     1      43.266 -20.408   1.642  1.00  0.00     0.210 C 
ENDBRANCH  12  17
ENDBRANCH   1   5
BRANCH   2  19
HETATM   19  C   UNL     1      40.711 -11.260   4.569  1.00  0.00     0.123 C 
BRANCH  19  20
HETATM   20  C   UNL     1      40.227 -10.547   3.303  1.00  0.00     0.027 C 
BRANCH  20  21
HETATM   21  C   UNL     1      39.059 -11.234   2.592  1.00  0.00     0.080 C 
BRANCH  21  22
HETATM   22  C   UNL     1      39.435 -11.741   1.242  1.00  0.00     0.105 A 
HETATM   23  N   UNL     1      40.158 -11.109   0.341  1.00  0.00    -0.233 NA
HETATM   24  C   UNL     1      40.247 -11.969  -0.729  1.00  0.00     0.085 A 
HETATM   25  C   UNL     1      39.565 -13.153  -0.472  1.00  0.00     0.062 A 
HETATM   26  C   UNL     1      40.898 -11.808  -1.960  1.00  0.00     0.034 A 
HETATM   27  N   UNL     1      39.053 -12.980   0.788  1.00  0.00    -0.343 N 
HETATM   28  C   UNL     1      39.491 -14.210  -1.380  1.00  0.00     0.032 A 
HETATM   29  H   UNL     1      38.493 -13.650   1.295  1.00  0.00     0.167 HD
HETATM   30  C   UNL     1      40.148 -14.033  -2.603  1.00  0.00     0.002 A 
HETATM   31  C   UNL     1      40.839 -12.853  -2.892  1.00  0.00     0.002 A 
ENDBRANCH  21  22
ENDBRANCH  20  21
ENDBRANCH  19  20
ENDBRANCH   2  19
TORSDOF 7
ENDMDL
MODEL 9
REMARK VINA RESULT:      -7.5      3.792      7.929
REMARK  7 active torsions:
REMARK  status: ('A' for Active; 'I' for Inactive)
REMARK    1  A    between atoms: O_2  and  C_3 
REMARK    2  A    between atoms: C_4  and  O_5 
REMARK    3  A    between atoms: C_13  and  C_14 
REMARK       I    between atoms: C_14  and  N_15 
REMARK    4  A    between atoms: N_15  and  C_16 
REMARK    5  A    between atoms: C_16  and  C_17 
REMARK    6  A    between atoms: C_17  and  C_18 
REMARK    7  A    between atoms: C_18  and  C_19 
ROOT
HETATM    1  C   UNL     1      40.024 -13.264   3.789  1.00  0.00     0.268 C 
HETATM    2  N   UNL     1      40.262 -12.201   4.627  1.00  0.00    -0.356 N 
HETATM    3  O   UNL     1      39.084 -13.289   3.001  1.00  0.00    -0.266 OA
HETATM    4  H   UNL     1      40.955 -12.289   5.359  1.00  0.00     0.162 HD
ENDROOT
BRANCH   1   5
HETATM    5  C   UNL     1      40.932 -14.379   3.935  1.00  0.00     0.102 A 
HETATM    6  N   UNL     1      41.311 -15.136   2.846  1.00  0.00    -0.351 N 
HETATM    7  C   UNL     1      42.121 -16.177   3.226  1.00  0.00     0.045 A 
HETATM    8  H   UNL     1      40.997 -14.950   1.901  1.00  0.00     0.166 HD
HETATM    9  C   UNL     1      42.701 -17.198   2.468  1.00  0.00     0.070 A 
HETATM   10  C   UNL     1      42.309 -16.066   4.598  1.00  0.00    -0.004 A 
HETATM   11  C   UNL     1      43.501 -18.148   3.125  1.00  0.00     0.103 A 
HETATM   12  C   UNL     1      43.679 -18.084   4.516  1.00  0.00     0.102 A 
HETATM   13  C   UNL     1      43.113 -17.024   5.249  1.00  0.00     0.053 A 
HETATM   14  C   UNL     1      41.574 -14.927   5.032  1.00  0.00     0.049 A 
BRANCH  11  15
HETATM   15  O   UNL     1      43.986 -19.102   2.263  1.00  0.00    -0.353 OA
HETATM   16  C   UNL     1      43.195 -20.265   2.059  1.00  0.00     0.210 C 
ENDBRANCH  11  15
BRANCH  12  17
HETATM   17  O   UNL     1      44.432 -19.051   5.136  1.00  0.00    -0.353 OA
HETATM   18  C   UNL     1      43.689 -20.047   5.834  1.00  0.00     0.210 C 
ENDBRANCH  12  17
ENDBRANCH   1   5
BRANCH   2  19
HETATM   19  C   UNL     1      39.356 -11.080   4.724  1.00  0.00     0.123 C 
BRANCH  19  20
HETATM   20  C   UNL     1      40.011  -9.836   5.332  1.00  0.00     0.027 C 
BRANCH  20  21
HETATM   21  C   UNL     1      40.324  -9.946   6.826  1.00  0.00     0.080 C 
BRANCH  21  22
HETATM   22  C   UNL     1      41.787 -10.003   7.098  1.00  0.00     0.105 A 
HETATM   23  N   UNL     1      42.620 -10.948   6.711  1.00  0.00    -0.233 NA
HETATM   24  C   UNL     1      43.855 -10.564   7.181  1.00  0.00     0.085 A 
HETATM   25  C   UNL     1      43.773  -9.357   7.866  1.00  0.00     0.062 A 
HETATM   26  C   UNL     1      45.099 -11.198   7.060  1.00  0.00     0.034 A 
HETATM   27  N   UNL     1      42.445  -9.024   7.802  1.00  0.00    -0.343 N 
HETATM   28  C   UNL     1      44.874  -8.726   8.447  1.00  0.00     0.032 A 
HETATM   29  H   UNL     1      42.023  -8.198   8.203  1.00  0.00     0.167 HD
HETATM   30  C   UNL     1      46.108  -9.373   8.315  1.00  0.00     0.002 A 
HETATM   31  C   UNL     1      46.223 -10.589   7.635  1.00  0.00     0.002 A 
ENDBRANCH  21  22
ENDBRANCH  20  21
ENDBRANCH  19  20
ENDBRANCH   2  19
TORSDOF 7
ENDMDL
MODEL 10
REMARK VINA RESULT:      -7.4      3.069      7.614
REMARK  7 active torsions:
REMARK  status: ('A' for Active; 'I' for Inactive)
REMARK    1  A    between atoms: O_2  and  C_3 
REMARK    2  A    between atoms: C_4  and  O_5 
REMARK    3  A    between atoms: C_13  and  C_14 
REMARK       I    between atoms: C_14  and  N_15 
REMARK    4  A    between atoms: N_15  and  C_16 
REMARK    5  A    between atoms: C_16  and  C_17 
REMARK    6  A    between atoms: C_17  and  C_18 
REMARK    7  A    between atoms: C_18  and  C_19 
ROOT
HETATM    1  C   UNL     1      40.882 -13.519   6.064  1.00  0.00     0.268 C 
HETATM    2  N   UNL     1      41.603 -12.350   6.076  1.00  0.00    -0.356 N 
HETATM    3  O   UNL     1      39.679 -13.558   6.306  1.00  0.00    -0.266 OA
HETATM    4  H   UNL     1      42.612 -12.387   6.018  1.00  0.00     0.162 HD
ENDROOT
BRANCH   1   5
HETATM    5  C   UNL     1      41.649 -14.715   5.795  1.00  0.00     0.102 A 
HETATM    6  N   UNL     1      41.946 -15.093   4.503  1.00  0.00    -0.351 N 
HETATM    7  C   UNL     1      42.623 -16.287   4.482  1.00  0.00     0.045 A 
HETATM    8  H   UNL     1      41.668 -14.561   3.687  1.00  0.00     0.166 HD
HETATM    9  C   UNL     1      43.086 -17.049   3.405  1.00  0.00     0.070 A 
HETATM   10  C   UNL     1      42.808 -16.673   5.803  1.00  0.00    -0.004 A 
HETATM   11  C   UNL     1      43.760 -18.251   3.675  1.00  0.00     0.103 A 
HETATM   12  C   UNL     1      43.929 -18.686   4.999  1.00  0.00     0.102 A 
HETATM   13  C   UNL     1      43.485 -17.881   6.066  1.00  0.00     0.053 A 
HETATM   14  C   UNL     1      42.209 -15.674   6.620  1.00  0.00     0.049 A 
BRANCH  11  15
HETATM   15  O   UNL     1      44.138 -18.904   2.526  1.00  0.00    -0.353 OA
HETATM   16  C   UNL     1      43.221 -19.838   1.971  1.00  0.00     0.210 C 
ENDBRANCH  11  15
BRANCH  12  17
HETATM   17  O   UNL     1      44.555 -19.887   5.230  1.00  0.00    -0.353 OA
HETATM   18  C   UNL     1      43.687 -21.004   5.398  1.00  0.00     0.210 C 
ENDBRANCH  12  17
ENDBRANCH   1   5
BRANCH   2  19
HETATM   19  C   UNL     1      41.023 -11.092   6.487  1.00  0.00     0.123 C 
BRANCH  19  20
HETATM   20  C   UNL     1      40.966 -10.064   5.353  1.00  0.00     0.027 C 
BRANCH  20  21
HETATM   21  C   UNL     1      42.151 -10.117   4.385  1.00  0.00     0.080 C 
BRANCH  21  22
HETATM   22  C   UNL     1      41.798 -10.764   3.090  1.00  0.00     0.105 A 
HETATM   23  N   UNL     1      41.497 -12.033   2.905  1.00  0.00    -0.233 NA
HETATM   24  C   UNL     1      41.235 -12.156   1.559  1.00  0.00     0.085 A 
HETATM   25  C   UNL     1      41.378 -10.934   0.913  1.00  0.00     0.062 A 
HETATM   26  C   UNL     1      40.867 -13.285   0.815  1.00  0.00     0.034 A 
HETATM   27  N   UNL     1      41.741 -10.065   1.909  1.00  0.00    -0.343 N 
HETATM   28  C   UNL     1      41.169 -10.760  -0.456  1.00  0.00     0.032 A 
HETATM   29  H   UNL     1      41.932  -9.080   1.793  1.00  0.00     0.167 HD
HETATM   30  C   UNL     1      40.801 -11.897  -1.184  1.00  0.00     0.002 A 
HETATM   31  C   UNL     1      40.652 -13.141  -0.563  1.00  0.00     0.002 A 
ENDBRANCH  21  22
ENDBRANCH  20  21
ENDBRANCH  19  20
ENDBRANCH   2  19
TORSDOF 7
ENDMDL
