MODEL 1
REMARK VINA RESULT:      -9.7      0.000      0.000
REMARK  6 active torsions:
REMARK  status: ('A' for Active; 'I' for Inactive)
REMARK    1  A    between atoms: C_4  and  C_5 
REMARK    2  A    between atoms: C_5  and  O_6 
REMARK    3  A    between atoms: O_6  and  C_7 
REMARK    4  A    between atoms: C_10  and  C_11 
REMARK    5  A    between atoms: C_17  and  C_18 
REMARK    6  A    between atoms: C_27  and  N_28 
ROOT
HETATM    1  C   UNL     1      40.150 -14.308   0.087  1.00  0.00     0.072 A 
HETATM    2  N   UNL     1      39.236 -14.955  -0.722  1.00  0.00    -0.274 N 
HETATM    3  H   UNL     1      38.865 -15.891  -0.605  1.00  0.00     0.189 HD
HETATM    4  N   UNL     1      38.835 -14.237  -1.790  1.00  0.00    -0.148 NA
HETATM    5  C   UNL     1      39.527 -13.115  -1.652  1.00  0.00     0.199 A 
HETATM    6  C   UNL     1      40.333 -13.071  -0.512  1.00  0.00     0.040 A 
HETATM    7  C   UNL     1      41.145 -11.860  -0.210  1.00  0.00     0.106 A 
HETATM    8  C   UNL     1      41.057 -10.847  -1.346  1.00  0.00     0.081 A 
HETATM    9  C   UNL     1      41.915  -9.712  -1.253  1.00  0.00     0.100 C 
HETATM   10  N   UNL     1      42.614  -8.789  -1.168  1.00  0.00    -0.191 NA
HETATM   11  C   UNL     1      40.247 -11.014  -2.424  1.00  0.00     0.140 A 
HETATM   12  O   UNL     1      39.422 -12.138  -2.570  1.00  0.00    -0.277 OA
ENDROOT
BRANCH   7  13
HETATM   13  C   UNL     1      40.618 -11.316   1.110  1.00  0.00    -0.041 A 
HETATM   14  C   UNL     1      41.473 -11.227   2.217  1.00  0.00     0.027 A 
HETATM   15  C   UNL     1      40.982 -10.710   3.406  1.00  0.00     0.116 A 
HETATM   16  N   UNL     1      39.716 -10.273   3.569  1.00  0.00    -0.273 NA
HETATM   17  C   UNL     1      38.904 -10.359   2.496  1.00  0.00     0.116 A 
HETATM   18  C   UNL     1      39.300 -10.862   1.266  1.00  0.00     0.027 A 
ENDBRANCH   7  13
BRANCH  11  19
HETATM   19  N   UNL     1      40.133 -10.132  -3.477  1.00  0.00    -0.282 NA
HETATM   20  H   UNL     1      39.189  -9.943  -3.803  1.00  0.00     0.126 HD
HETATM   21  H   UNL     1      40.785 -10.346  -4.230  1.00  0.00     0.126 HD
ENDBRANCH  11  19
BRANCH   1  22
HETATM   22  C   UNL     1      40.719 -14.919   1.282  1.00  0.00    -0.007 A 
HETATM   23  C   UNL     1      42.103 -14.960   1.471  1.00  0.00     0.016 A 
HETATM   24  C   UNL     1      42.644 -15.528   2.629  1.00  0.00     0.037 A 
HETATM   25  C   UNL     1      41.814 -16.067   3.614  1.00  0.00     0.069 A 
HETATM   26  C   UNL     1      40.434 -16.051   3.421  1.00  0.00     0.037 A 
HETATM   27  C   UNL     1      39.890 -15.475   2.265  1.00  0.00     0.016 A 
BRANCH  25  28
HETATM   28  O   UNL     1      42.471 -16.568   4.702  1.00  0.00    -0.347 OA
BRANCH  28  29
HETATM   29  C   UNL     1      43.825 -16.984   4.511  1.00  0.00     0.214 C 
BRANCH  29  30
HETATM   30  C   UNL     1      43.873 -18.470   4.235  1.00  0.00    -0.034 A 
HETATM   31  C   UNL     1      43.969 -19.378   5.301  1.00  0.00     0.009 A 
HETATM   32  C   UNL     1      43.991 -20.754   5.063  1.00  0.00     0.001 A 
HETATM   33  C   UNL     1      43.909 -21.239   3.759  1.00  0.00     0.000 A 
HETATM   34  C   UNL     1      43.797 -20.348   2.693  1.00  0.00     0.001 A 
HETATM   35  C   UNL     1      43.773 -18.972   2.929  1.00  0.00     0.009 A 
ENDBRANCH  29  30
ENDBRANCH  28  29
ENDBRANCH  25  28
ENDBRANCH   1  22
TORSDOF 6
ENDMDL
MODEL 2
REMARK VINA RESULT:      -8.7      4.419      7.330
REMARK  6 active torsions:
REMARK  status: ('A' for Active; 'I' for Inactive)
REMARK    1  A    between atoms: C_4  and  C_5 
REMARK    2  A    between atoms: C_5  and  O_6 
REMARK    3  A    between atoms: O_6  and  C_7 
REMARK    4  A    between atoms: C_10  and  C_11 
REMARK    5  A    between atoms: C_17  and  C_18 
REMARK    6  A    between atoms: C_27  and  N_28 
ROOT
HETATM    1  C   UNL     1      44.220 -11.577   6.804  1.00  0.00     0.072 A 
HETATM    2  N   UNL     1      45.564 -11.265   6.863  1.00  0.00    -0.274 N 
HETATM    3  H   UNL     1      46.336 -11.789   6.467  1.00  0.00     0.189 HD
HETATM    4  N   UNL     1      45.842 -10.143   7.557  1.00  0.00    -0.148 NA
HETATM    5  C   UNL     1      44.640  -9.750   7.953  1.00  0.00     0.199 A 
HETATM    6  C   UNL     1      43.593 -10.561   7.507  1.00  0.00     0.040 A 
HETATM    7  C   UNL     1      42.183 -10.225   7.850  1.00  0.00     0.106 A 
HETATM    8  C   UNL     1      42.121  -9.041   8.808  1.00  0.00     0.081 A 
HETATM    9  C   UNL     1      40.837  -8.719   9.337  1.00  0.00     0.100 C 
HETATM   10  N   UNL     1      39.788  -8.461   9.761  1.00  0.00    -0.191 NA
HETATM   11  C   UNL     1      43.221  -8.339   9.189  1.00  0.00     0.140 A 
HETATM   12  O   UNL     1      44.504  -8.654   8.721  1.00  0.00    -0.277 OA
ENDROOT
BRANCH   7  13
HETATM   13  C   UNL     1      41.480  -9.954   6.527  1.00  0.00    -0.041 A 
HETATM   14  C   UNL     1      40.446 -10.798   6.103  1.00  0.00     0.027 A 
HETATM   15  C   UNL     1      39.802 -10.525   4.905  1.00  0.00     0.116 A 
HETATM   16  N   UNL     1      40.107  -9.478   4.111  1.00  0.00    -0.273 NA
HETATM   17  C   UNL     1      41.101  -8.669   4.532  1.00  0.00     0.116 A 
HETATM   18  C   UNL     1      41.805  -8.859   5.711  1.00  0.00     0.027 A 
ENDBRANCH   7  13
BRANCH  11  19
HETATM   19  N   UNL     1      43.220  -7.266  10.052  1.00  0.00    -0.282 NA
HETATM   20  H   UNL     1      43.883  -7.309  10.821  1.00  0.00     0.126 HD
HETATM   21  H   UNL     1      42.279  -7.008  10.344  1.00  0.00     0.126 HD
ENDBRANCH  11  19
BRANCH   1  22
HETATM   22  C   UNL     1      43.713 -12.759   6.117  1.00  0.00    -0.007 A 
HETATM   23  C   UNL     1      43.313 -12.689   4.779  1.00  0.00     0.016 A 
HETATM   24  C   UNL     1      42.848 -13.830   4.118  1.00  0.00     0.037 A 
HETATM   25  C   UNL     1      42.771 -15.057   4.780  1.00  0.00     0.069 A 
HETATM   26  C   UNL     1      43.145 -15.128   6.121  1.00  0.00     0.037 A 
HETATM   27  C   UNL     1      43.618 -13.988   6.783  1.00  0.00     0.016 A 
BRANCH  25  28
HETATM   28  O   UNL     1      42.321 -16.093   4.011  1.00  0.00    -0.347 OA
BRANCH  28  29
HETATM   29  C   UNL     1      43.209 -16.597   3.011  1.00  0.00     0.214 C 
BRANCH  29  30
HETATM   30  C   UNL     1      43.431 -18.078   3.220  1.00  0.00    -0.034 A 
HETATM   31  C   UNL     1      43.187 -18.977   2.170  1.00  0.00     0.009 A 
HETATM   32  C   UNL     1      43.409 -20.345   2.340  1.00  0.00     0.001 A 
HETATM   33  C   UNL     1      43.886 -20.830   3.556  1.00  0.00     0.000 A 
HETATM   34  C   UNL     1      44.148 -19.946   4.601  1.00  0.00     0.001 A 
HETATM   35  C   UNL     1      43.928 -18.577   4.433  1.00  0.00     0.009 A 
ENDBRANCH  29  30
ENDBRANCH  28  29
ENDBRANCH  25  28
ENDBRANCH   1  22
TORSDOF 6
ENDMDL
MODEL 3
REMARK VINA RESULT:      -8.6      1.928      3.168
REMARK  6 active torsions:
REMARK  status: ('A' for Active; 'I' for Inactive)
REMARK    1  A    between atoms: C_4  and  C_5 
REMARK    2  A    between atoms: C_5  and  O_6 
REMARK    3  A    between atoms: O_6  and  C_7 
REMARK    4  A    between atoms: C_10  and  C_11 
REMARK    5  A    between atoms: C_17  and  C_18 
REMARK    6  A    between atoms: C_27  and  N_28 
ROOT
HETATM    1  C   UNL     1      40.109 -14.499  -0.020  1.00  0.00     0.072 A 
HETATM    2  N   UNL     1      39.234 -15.143  -0.871  1.00  0.00    -0.274 N 
HETATM    3  H   UNL     1      38.868 -16.085  -0.781  1.00  0.00     0.189 HD
HETATM    4  N   UNL     1      38.867 -14.415  -1.944  1.00  0.00    -0.148 NA
HETATM    5  C   UNL     1      39.542 -13.288  -1.765  1.00  0.00     0.199 A 
HETATM    6  C   UNL     1      40.303 -13.253  -0.594  1.00  0.00     0.040 A 
HETATM    7  C   UNL     1      41.092 -12.039  -0.246  1.00  0.00     0.106 A 
HETATM    8  C   UNL     1      41.037 -11.011  -1.371  1.00  0.00     0.081 A 
HETATM    9  C   UNL     1      41.880  -9.869  -1.229  1.00  0.00     0.100 C 
HETATM   10  N   UNL     1      42.566  -8.941  -1.106  1.00  0.00    -0.191 NA
HETATM   11  C   UNL     1      40.270 -11.170  -2.481  1.00  0.00     0.140 A 
HETATM   12  O   UNL     1      39.463 -12.300  -2.673  1.00  0.00    -0.277 OA
ENDROOT
BRANCH   7  13
HETATM   13  C   UNL     1      40.509 -11.517   1.061  1.00  0.00    -0.041 A 
HETATM   14  C   UNL     1      41.339 -11.360   2.178  1.00  0.00     0.027 A 
HETATM   15  C   UNL     1      40.796 -10.864   3.354  1.00  0.00     0.116 A 
HETATM   16  N   UNL     1      39.502 -10.512   3.494  1.00  0.00    -0.273 NA
HETATM   17  C   UNL     1      38.714 -10.662   2.410  1.00  0.00     0.116 A 
HETATM   18  C   UNL     1      39.161 -11.150   1.192  1.00  0.00     0.027 A 
ENDBRANCH   7  13
BRANCH  11  19
HETATM   19  N   UNL     1      40.189 -10.275  -3.526  1.00  0.00    -0.282 NA
HETATM   20  H   UNL     1      39.253 -10.063  -3.861  1.00  0.00     0.126 HD
HETATM   21  H   UNL     1      40.845 -10.495  -4.273  1.00  0.00     0.126 HD
ENDBRANCH  11  19
BRANCH   1  22
HETATM   22  C   UNL     1      40.639 -15.121   1.188  1.00  0.00    -0.007 A 
HETATM   23  C   UNL     1      42.014 -15.312   1.348  1.00  0.00     0.016 A 
HETATM   24  C   UNL     1      42.519 -15.890   2.517  1.00  0.00     0.037 A 
HETATM   25  C   UNL     1      41.660 -16.288   3.544  1.00  0.00     0.069 A 
HETATM   26  C   UNL     1      40.286 -16.122   3.381  1.00  0.00     0.037 A 
HETATM   27  C   UNL     1      39.779 -15.537   2.213  1.00  0.00     0.016 A 
BRANCH  25  28
HETATM   28  O   UNL     1      42.286 -16.816   4.638  1.00  0.00    -0.347 OA
BRANCH  28  29
HETATM   29  C   UNL     1      41.882 -16.329   5.919  1.00  0.00     0.214 C 
BRANCH  29  30
HETATM   30  C   UNL     1      42.375 -14.912   6.110  1.00  0.00    -0.034 A 
HETATM   31  C   UNL     1      41.476 -13.838   6.010  1.00  0.00     0.009 A 
HETATM   32  C   UNL     1      41.912 -12.527   6.206  1.00  0.00     0.001 A 
HETATM   33  C   UNL     1      43.247 -12.272   6.514  1.00  0.00     0.000 A 
HETATM   34  C   UNL     1      44.146 -13.330   6.632  1.00  0.00     0.001 A 
HETATM   35  C   UNL     1      43.712 -14.644   6.438  1.00  0.00     0.009 A 
ENDBRANCH  29  30
ENDBRANCH  28  29
ENDBRANCH  25  28
ENDBRANCH   1  22
TORSDOF 6
ENDMDL
MODEL 4
REMARK VINA RESULT:      -8.3      5.362      8.508
REMARK  6 active torsions:
REMARK  status: ('A' for Active; 'I' for Inactive)
REMARK    1  A    between atoms: C_4  and  C_5 
REMARK    2  A    between atoms: C_5  and  O_6 
REMARK    3  A    between atoms: O_6  and  C_7 
REMARK    4  A    between atoms: C_10  and  C_11 
REMARK    5  A    between atoms: C_17  and  C_18 
REMARK    6  A    between atoms: C_27  and  N_28 
ROOT
HETATM    1  C   UNL     1      44.322 -10.832   8.002  1.00  0.00     0.072 A 
HETATM    2  N   UNL     1      45.633 -10.663   8.400  1.00  0.00    -0.274 N 
HETATM    3  H   UNL     1      46.458 -11.105   8.008  1.00  0.00     0.189 HD
HETATM    4  N   UNL     1      45.792  -9.829   9.446  1.00  0.00    -0.148 NA
HETATM    5  C   UNL     1      44.544  -9.476   9.718  1.00  0.00     0.199 A 
HETATM    6  C   UNL     1      43.589 -10.027   8.859  1.00  0.00     0.040 A 
HETATM    7  C   UNL     1      42.147  -9.696   9.026  1.00  0.00     0.106 A 
HETATM    8  C   UNL     1      41.920  -8.853  10.276  1.00  0.00     0.081 A 
HETATM    9  C   UNL     1      40.563  -8.602  10.635  1.00  0.00     0.100 C 
HETATM   10  N   UNL     1      39.457  -8.399  10.920  1.00  0.00    -0.191 NA
HETATM   11  C   UNL     1      42.937  -8.392  11.050  1.00  0.00     0.140 A 
HETATM   12  O   UNL     1      44.281  -8.655  10.751  1.00  0.00    -0.277 OA
ENDROOT
BRANCH   7  13
HETATM   13  C   UNL     1      41.727  -8.983   7.748  1.00  0.00    -0.041 A 
HETATM   14  C   UNL     1      40.787  -9.577   6.896  1.00  0.00     0.027 A 
HETATM   15  C   UNL     1      40.400  -8.905   5.747  1.00  0.00     0.116 A 
HETATM   16  N   UNL     1      40.873  -7.692   5.391  1.00  0.00    -0.273 NA
HETATM   17  C   UNL     1      41.774  -7.128   6.221  1.00  0.00     0.116 A 
HETATM   18  C   UNL     1      42.224  -7.720   7.391  1.00  0.00     0.027 A 
ENDBRANCH   7  13
BRANCH  11  19
HETATM   19  N   UNL     1      42.787  -7.631  12.190  1.00  0.00    -0.282 NA
HETATM   20  H   UNL     1      43.642  -7.270  12.603  1.00  0.00     0.126 HD
HETATM   21  H   UNL     1      42.166  -8.071  12.866  1.00  0.00     0.126 HD
ENDBRANCH  11  19
BRANCH   1  22
HETATM   22  C   UNL     1      43.937 -11.707   6.901  1.00  0.00    -0.007 A 
HETATM   23  C   UNL     1      43.623 -13.049   7.133  1.00  0.00     0.016 A 
HETATM   24  C   UNL     1      43.233 -13.879   6.077  1.00  0.00     0.037 A 
HETATM   25  C   UNL     1      43.154 -13.385   4.773  1.00  0.00     0.069 A 
HETATM   26  C   UNL     1      43.489 -12.054   4.531  1.00  0.00     0.037 A 
HETATM   27  C   UNL     1      43.873 -11.219   5.589  1.00  0.00     0.016 A 
BRANCH  25  28
HETATM   28  O   UNL     1      42.740 -14.295   3.842  1.00  0.00    -0.347 OA
BRANCH  28  29
HETATM   29  C   UNL     1      42.052 -15.452   4.322  1.00  0.00     0.214 C 
BRANCH  29  30
HETATM   30  C   UNL     1      42.754 -16.703   3.845  1.00  0.00    -0.034 A 
HETATM   31  C   UNL     1      43.739 -17.303   4.646  1.00  0.00     0.009 A 
HETATM   32  C   UNL     1      44.380 -18.471   4.229  1.00  0.00     0.001 A 
HETATM   33  C   UNL     1      44.038 -19.059   3.013  1.00  0.00     0.000 A 
HETATM   34  C   UNL     1      43.051 -18.484   2.217  1.00  0.00     0.001 A 
HETATM   35  C   UNL     1      42.407 -17.316   2.632  1.00  0.00     0.009 A 
ENDBRANCH  29  30
ENDBRANCH  28  29
ENDBRANCH  25  28
ENDBRANCH   1  22
TORSDOF 6
ENDMDL
MODEL 5
REMARK VINA RESULT:      -8.1      5.005      7.468
REMARK  6 active torsions:
REMARK  status: ('A' for Active; 'I' for Inactive)
REMARK    1  A    between atoms: C_4  and  C_5 
REMARK    2  A    between atoms: C_5  and  O_6 
REMARK    3  A    between atoms: O_6  and  C_7 
REMARK    4  A    between atoms: C_10  and  C_11 
REMARK    5  A    between atoms: C_17  and  C_18 
REMARK    6  A    between atoms: C_27  and  N_28 
ROOT
HETATM    1  C   UNL     1      41.890 -13.550   5.441  1.00  0.00     0.072 A 
HETATM    2  N   UNL     1      41.479 -14.717   6.053  1.00  0.00    -0.274 N 
HETATM    3  H   UNL     1      41.660 -15.009   7.007  1.00  0.00     0.189 HD
HETATM    4  N   UNL     1      40.782 -15.547   5.252  1.00  0.00    -0.148 NA
HETATM    5  C   UNL     1      40.768 -14.887   4.103  1.00  0.00     0.199 A 
HETATM    6  C   UNL     1      41.402 -13.642   4.147  1.00  0.00     0.040 A 
HETATM    7  C   UNL     1      41.440 -12.774   2.938  1.00  0.00     0.106 A 
HETATM    8  C   UNL     1      40.853 -13.495   1.730  1.00  0.00     0.081 A 
HETATM    9  C   UNL     1      40.974 -12.831   0.473  1.00  0.00     0.100 C 
HETATM   10  N   UNL     1      41.073 -12.283  -0.545  1.00  0.00    -0.191 NA
HETATM   11  C   UNL     1      40.279 -14.724   1.809  1.00  0.00     0.140 A 
HETATM   12  O   UNL     1      40.181 -15.424   3.020  1.00  0.00    -0.277 OA
ENDROOT
BRANCH   7  13
HETATM   13  C   UNL     1      40.675 -11.509   3.302  1.00  0.00    -0.041 A 
HETATM   14  C   UNL     1      41.277 -10.257   3.125  1.00  0.00     0.027 A 
HETATM   15  C   UNL     1      40.558  -9.114   3.442  1.00  0.00     0.116 A 
HETATM   16  N   UNL     1      39.294  -9.128   3.912  1.00  0.00    -0.273 NA
HETATM   17  C   UNL     1      38.723 -10.339   4.074  1.00  0.00     0.116 A 
HETATM   18  C   UNL     1      39.358 -11.537   3.787  1.00  0.00     0.027 A 
ENDBRANCH   7  13
BRANCH  11  19
HETATM   19  N   UNL     1      39.738 -15.419   0.749  1.00  0.00    -0.282 NA
HETATM   20  H   UNL     1      39.414 -16.361   0.950  1.00  0.00     0.126 HD
HETATM   21  H   UNL     1      40.318 -15.360  -0.085  1.00  0.00     0.126 HD
ENDBRANCH  11  19
BRANCH   1  22
HETATM   22  C   UNL     1      42.671 -12.529   6.130  1.00  0.00    -0.007 A 
HETATM   23  C   UNL     1      43.999 -12.770   6.491  1.00  0.00     0.016 A 
HETATM   24  C   UNL     1      44.750 -11.780   7.132  1.00  0.00     0.037 A 
HETATM   25  C   UNL     1      44.188 -10.536   7.427  1.00  0.00     0.069 A 
HETATM   26  C   UNL     1      42.857 -10.298   7.091  1.00  0.00     0.037 A 
HETATM   27  C   UNL     1      42.105 -11.286   6.442  1.00  0.00     0.016 A 
BRANCH  25  28
HETATM   28  O   UNL     1      45.038  -9.655   8.033  1.00  0.00    -0.347 OA
BRANCH  28  29
HETATM   29  C   UNL     1      45.528 -10.009   9.328  1.00  0.00     0.214 C 
BRANCH  29  30
HETATM   30  C   UNL     1      44.477  -9.714  10.375  1.00  0.00    -0.034 A 
HETATM   31  C   UNL     1      44.017 -10.741  11.214  1.00  0.00     0.009 A 
HETATM   32  C   UNL     1      43.064 -10.481  12.199  1.00  0.00     0.001 A 
HETATM   33  C   UNL     1      42.565  -9.190  12.365  1.00  0.00     0.000 A 
HETATM   34  C   UNL     1      43.025  -8.158  11.550  1.00  0.00     0.001 A 
HETATM   35  C   UNL     1      43.980  -8.416  10.564  1.00  0.00     0.009 A 
ENDBRANCH  29  30
ENDBRANCH  28  29
ENDBRANCH  25  28
ENDBRANCH   1  22
TORSDOF 6
ENDMDL
MODEL 6
REMARK VINA RESULT:      -8.1      3.440      5.477
REMARK  6 active torsions:
REMARK  status: ('A' for Active; 'I' for Inactive)
REMARK    1  A    between atoms: C_4  and  C_5 
REMARK    2  A    between atoms: C_5  and  O_6 
REMARK    3  A    between atoms: O_6  and  C_7 
REMARK    4  A    between atoms: C_10  and  C_11 
REMARK    5  A    between atoms: C_17  and  C_18 
REMARK    6  A    between atoms: C_27  and  N_28 
ROOT
HETATM    1  C   UNL     1      40.648 -14.333   1.776  1.00  0.00     0.072 A 
HETATM    2  N   UNL     1      40.195 -15.632   1.653  1.00  0.00    -0.274 N 
HETATM    3  H   UNL     1      40.228 -16.365   2.353  1.00  0.00     0.189 HD
HETATM    4  N   UNL     1      39.681 -15.927   0.442  1.00  0.00    -0.148 NA
HETATM    5  C   UNL     1      39.828 -14.785  -0.214  1.00  0.00     0.199 A 
HETATM    6  C   UNL     1      40.386 -13.753   0.545  1.00  0.00     0.040 A 
HETATM    7  C   UNL     1      40.585 -12.403  -0.051  1.00  0.00     0.106 A 
HETATM    8  C   UNL     1      40.241 -12.406  -1.536  1.00  0.00     0.081 A 
HETATM    9  C   UNL     1      40.539 -11.214  -2.260  1.00  0.00     0.100 C 
HETATM   10  N   UNL     1      40.781 -10.239  -2.841  1.00  0.00    -0.191 NA
HETATM   11  C   UNL     1      39.721 -13.489  -2.173  1.00  0.00     0.140 A 
HETATM   12  O   UNL     1      39.455 -14.691  -1.502  1.00  0.00    -0.277 OA
ENDROOT
BRANCH   7  13
HETATM   13  C   UNL     1      39.711 -11.453   0.756  1.00  0.00    -0.041 A 
HETATM   14  C   UNL     1      38.316 -11.562   0.688  1.00  0.00     0.027 A 
HETATM   15  C   UNL     1      37.537 -10.701   1.447  1.00  0.00     0.116 A 
HETATM   16  N   UNL     1      38.041  -9.755   2.264  1.00  0.00    -0.273 NA
HETATM   17  C   UNL     1      39.385  -9.662   2.325  1.00  0.00     0.116 A 
HETATM   18  C   UNL     1      40.248 -10.474   1.606  1.00  0.00     0.027 A 
ENDBRANCH   7  13
BRANCH  11  19
HETATM   19  N   UNL     1      39.397 -13.545  -3.511  1.00  0.00    -0.282 NA
HETATM   20  H   UNL     1      40.036 -14.065  -4.105  1.00  0.00     0.126 HD
HETATM   21  H   UNL     1      39.152 -12.631  -3.886  1.00  0.00     0.126 HD
ENDBRANCH  11  19
BRANCH   1  22
HETATM   22  C   UNL     1      41.253 -13.821   2.999  1.00  0.00    -0.007 A 
HETATM   23  C   UNL     1      40.525 -13.776   4.191  1.00  0.00     0.016 A 
HETATM   24  C   UNL     1      41.117 -13.304   5.367  1.00  0.00     0.037 A 
HETATM   25  C   UNL     1      42.442 -12.866   5.372  1.00  0.00     0.069 A 
HETATM   26  C   UNL     1      43.167 -12.885   4.182  1.00  0.00     0.037 A 
HETATM   27  C   UNL     1      42.578 -13.365   3.005  1.00  0.00     0.016 A 
BRANCH  25  28
HETATM   28  O   UNL     1      42.902 -12.452   6.590  1.00  0.00    -0.347 OA
BRANCH  28  29
HETATM   29  C   UNL     1      44.318 -12.425   6.779  1.00  0.00     0.214 C 
BRANCH  29  30
HETATM   30  C   UNL     1      44.731 -11.104   7.388  1.00  0.00    -0.034 A 
HETATM   31  C   UNL     1      43.774 -10.295   8.022  1.00  0.00     0.009 A 
HETATM   32  C   UNL     1      44.144  -9.084   8.609  1.00  0.00     0.001 A 
HETATM   33  C   UNL     1      45.474  -8.670   8.578  1.00  0.00     0.000 A 
HETATM   34  C   UNL     1      46.437  -9.471   7.967  1.00  0.00     0.001 A 
HETATM   35  C   UNL     1      46.069 -10.685   7.381  1.00  0.00     0.009 A 
ENDBRANCH  29  30
ENDBRANCH  28  29
ENDBRANCH  25  28
ENDBRANCH   1  22
TORSDOF 6
ENDMDL
MODEL 7
REMARK VINA RESULT:      -8.0      2.199      4.075
REMARK  6 active torsions:
REMARK  status: ('A' for Active; 'I' for Inactive)
REMARK    1  A    between atoms: C_4  and  C_5 
REMARK    2  A    between atoms: C_5  and  O_6 
REMARK    3  A    between atoms: O_6  and  C_7 
REMARK    4  A    between atoms: C_10  and  C_11 
REMARK    5  A    between atoms: C_17  and  C_18 
REMARK    6  A    between atoms: C_27  and  N_28 
ROOT
HETATM    1  C   UNL     1      40.511 -10.548   1.143  1.00  0.00     0.072 A 
HETATM    2  N   UNL     1      41.231  -9.412   1.459  1.00  0.00    -0.274 N 
HETATM    3  H   UNL     1      41.949  -9.316   2.168  1.00  0.00     0.189 HD
HETATM    4  N   UNL     1      40.893  -8.324   0.739  1.00  0.00    -0.148 NA
HETATM    5  C   UNL     1      39.927  -8.789  -0.040  1.00  0.00     0.199 A 
HETATM    6  C   UNL     1      39.656 -10.150   0.128  1.00  0.00     0.040 A 
HETATM    7  C   UNL     1      38.615 -10.817  -0.701  1.00  0.00     0.106 A 
HETATM    8  C   UNL     1      37.873  -9.805  -1.567  1.00  0.00     0.081 A 
HETATM    9  C   UNL     1      36.746 -10.293  -2.290  1.00  0.00     0.100 C 
HETATM   10  N   UNL     1      35.831 -10.698  -2.879  1.00  0.00    -0.191 NA
HETATM   11  C   UNL     1      38.219  -8.492  -1.629  1.00  0.00     0.140 A 
HETATM   12  O   UNL     1      39.296  -7.969  -0.899  1.00  0.00    -0.277 OA
ENDROOT
BRANCH   7  13
HETATM   13  C   UNL     1      39.341 -11.876  -1.518  1.00  0.00    -0.041 A 
HETATM   14  C   UNL     1      38.943 -13.217  -1.431  1.00  0.00     0.027 A 
HETATM   15  C   UNL     1      39.602 -14.165  -2.199  1.00  0.00     0.116 A 
HETATM   16  N   UNL     1      40.614 -13.877  -3.043  1.00  0.00    -0.273 NA
HETATM   17  C   UNL     1      40.985 -12.583  -3.122  1.00  0.00     0.116 A 
HETATM   18  C   UNL     1      40.390 -11.563  -2.396  1.00  0.00     0.027 A 
ENDBRANCH   7  13
BRANCH  11  19
HETATM   19  N   UNL     1      37.582  -7.538  -2.392  1.00  0.00    -0.282 NA
HETATM   20  H   UNL     1      36.846  -7.012  -1.928  1.00  0.00     0.126 HD
HETATM   21  H   UNL     1      37.308  -7.895  -3.305  1.00  0.00     0.126 HD
ENDBRANCH  11  19
BRANCH   1  22
HETATM   22  C   UNL     1      40.713 -11.824   1.818  1.00  0.00    -0.007 A 
HETATM   23  C   UNL     1      41.679 -12.727   1.365  1.00  0.00     0.016 A 
HETATM   24  C   UNL     1      41.884 -13.940   2.029  1.00  0.00     0.037 A 
HETATM   25  C   UNL     1      41.127 -14.274   3.153  1.00  0.00     0.069 A 
HETATM   26  C   UNL     1      40.145 -13.390   3.597  1.00  0.00     0.037 A 
HETATM   27  C   UNL     1      39.944 -12.170   2.937  1.00  0.00     0.016 A 
BRANCH  25  28
HETATM   28  O   UNL     1      41.444 -15.477   3.718  1.00  0.00    -0.347 OA
BRANCH  28  29
HETATM   29  C   UNL     1      42.819 -15.708   4.031  1.00  0.00     0.214 C 
BRANCH  29  30
HETATM   30  C   UNL     1      43.198 -17.127   3.670  1.00  0.00    -0.034 A 
HETATM   31  C   UNL     1      43.971 -17.893   4.557  1.00  0.00     0.009 A 
HETATM   32  C   UNL     1      44.309 -19.212   4.248  1.00  0.00     0.001 A 
HETATM   33  C   UNL     1      43.872 -19.784   3.055  1.00  0.00     0.000 A 
HETATM   34  C   UNL     1      43.090 -19.041   2.174  1.00  0.00     0.001 A 
HETATM   35  C   UNL     1      42.749 -17.721   2.481  1.00  0.00     0.009 A 
ENDBRANCH  29  30
ENDBRANCH  28  29
ENDBRANCH  25  28
ENDBRANCH   1  22
TORSDOF 6
ENDMDL
MODEL 8
REMARK VINA RESULT:      -7.8      5.259      8.792
REMARK  6 active torsions:
REMARK  status: ('A' for Active; 'I' for Inactive)
REMARK    1  A    between atoms: C_4  and  C_5 
REMARK    2  A    between atoms: C_5  and  O_6 
REMARK    3  A    between atoms: O_6  and  C_7 
REMARK    4  A    between atoms: C_10  and  C_11 
REMARK    5  A    between atoms: C_17  and  C_18 
REMARK    6  A    between atoms: C_27  and  N_28 
ROOT
HETATM    1  C   UNL     1      40.144 -11.055   5.145  1.00  0.00     0.072 A 
HETATM    2  N   UNL     1      39.207 -10.932   4.138  1.00  0.00    -0.274 N 
HETATM    3  H   UNL     1      38.639 -10.121   3.921  1.00  0.00     0.189 HD
HETATM    4  N   UNL     1      39.041 -12.046   3.397  1.00  0.00    -0.148 NA
HETATM    5  C   UNL     1      39.888 -12.893   3.965  1.00  0.00     0.199 A 
HETATM    6  C   UNL     1      40.621 -12.350   5.024  1.00  0.00     0.040 A 
HETATM    7  C   UNL     1      41.632 -13.176   5.740  1.00  0.00     0.106 A 
HETATM    8  C   UNL     1      41.606 -14.619   5.248  1.00  0.00     0.081 A 
HETATM    9  C   UNL     1      42.418 -15.548   5.963  1.00  0.00     0.100 C 
HETATM   10  N   UNL     1      43.083 -16.298   6.547  1.00  0.00    -0.191 NA
HETATM   11  C   UNL     1      40.827 -15.034   4.214  1.00  0.00     0.140 A 
HETATM   12  O   UNL     1      39.986 -14.156   3.516  1.00  0.00    -0.277 OA
ENDROOT
BRANCH   7  13
HETATM   13  C   UNL     1      42.974 -12.495   5.508  1.00  0.00    -0.041 A 
HETATM   14  C   UNL     1      43.808 -12.211   6.597  1.00  0.00     0.027 A 
HETATM   15  C   UNL     1      45.035 -11.609   6.365  1.00  0.00     0.116 A 
HETATM   16  N   UNL     1      45.490 -11.279   5.138  1.00  0.00    -0.273 NA
HETATM   17  C   UNL     1      44.681 -11.562   4.097  1.00  0.00     0.116 A 
HETATM   18  C   UNL     1      43.437 -12.161   4.226  1.00  0.00     0.027 A 
ENDBRANCH   7  13
BRANCH  11  19
HETATM   19  N   UNL     1      40.765 -16.324   3.734  1.00  0.00    -0.282 NA
HETATM   20  H   UNL     1      39.919 -16.842   3.952  1.00  0.00     0.126 HD
HETATM   21  H   UNL     1      41.618 -16.846   3.923  1.00  0.00     0.126 HD
ENDBRANCH  11  19
BRANCH   1  22
HETATM   22  C   UNL     1      40.458  -9.971   6.068  1.00  0.00    -0.007 A 
HETATM   23  C   UNL     1      39.999 -10.002   7.388  1.00  0.00     0.016 A 
HETATM   24  C   UNL     1      40.321  -8.970   8.275  1.00  0.00     0.037 A 
HETATM   25  C   UNL     1      41.102  -7.890   7.860  1.00  0.00     0.069 A 
HETATM   26  C   UNL     1      41.542  -7.840   6.539  1.00  0.00     0.037 A 
HETATM   27  C   UNL     1      41.227  -8.877   5.650  1.00  0.00     0.016 A 
BRANCH  25  28
HETATM   28  O   UNL     1      41.359  -6.965   8.832  1.00  0.00    -0.347 OA
BRANCH  28  29
HETATM   29  C   UNL     1      42.714  -6.535   8.981  1.00  0.00     0.214 C 
BRANCH  29  30
HETATM   30  C   UNL     1      43.569  -7.684   9.466  1.00  0.00    -0.034 A 
HETATM   31  C   UNL     1      44.639  -8.141   8.681  1.00  0.00     0.009 A 
HETATM   32  C   UNL     1      45.451  -9.186   9.125  1.00  0.00     0.001 A 
HETATM   33  C   UNL     1      45.211  -9.780  10.363  1.00  0.00     0.000 A 
HETATM   34  C   UNL     1      44.162  -9.324  11.160  1.00  0.00     0.001 A 
HETATM   35  C   UNL     1      43.349  -8.278  10.717  1.00  0.00     0.009 A 
ENDBRANCH  29  30
ENDBRANCH  28  29
ENDBRANCH  25  28
ENDBRANCH   1  22
TORSDOF 6
ENDMDL
MODEL 9
REMARK VINA RESULT:      -7.7      6.543      9.814
REMARK  6 active torsions:
REMARK  status: ('A' for Active; 'I' for Inactive)
REMARK    1  A    between atoms: C_4  and  C_5 
REMARK    2  A    between atoms: C_5  and  O_6 
REMARK    3  A    between atoms: O_6  and  C_7 
REMARK    4  A    between atoms: C_10  and  C_11 
REMARK    5  A    between atoms: C_17  and  C_18 
REMARK    6  A    between atoms: C_27  and  N_28 
ROOT
HETATM    1  C   UNL     1      40.346  -9.312   6.053  1.00  0.00     0.072 A 
HETATM    2  N   UNL     1      39.525  -8.498   5.296  1.00  0.00    -0.274 N 
HETATM    3  H   UNL     1      39.327  -7.515   5.445  1.00  0.00     0.189 HD
HETATM    4  N   UNL     1      38.919  -9.124   4.269  1.00  0.00    -0.148 NA
HETATM    5  C   UNL     1      39.363 -10.367   4.392  1.00  0.00     0.199 A 
HETATM    6  C   UNL     1      40.263 -10.555   5.445  1.00  0.00     0.040 A 
HETATM    7  C   UNL     1      40.867 -11.893   5.688  1.00  0.00     0.106 A 
HETATM    8  C   UNL     1      40.261 -12.943   4.763  1.00  0.00     0.081 A 
HETATM    9  C   UNL     1      40.640 -14.296   5.002  1.00  0.00     0.100 C 
HETATM   10  N   UNL     1      40.956 -15.395   5.201  1.00  0.00    -0.191 NA
HETATM   11  C   UNL     1      39.369 -12.638   3.783  1.00  0.00     0.140 A 
HETATM   12  O   UNL     1      38.942 -11.324   3.547  1.00  0.00    -0.277 OA
ENDROOT
BRANCH   7  13
HETATM   13  C   UNL     1      42.367 -11.723   5.487  1.00  0.00    -0.041 A 
HETATM   14  C   UNL     1      42.889 -11.632   4.190  1.00  0.00     0.027 A 
HETATM   15  C   UNL     1      44.255 -11.456   4.026  1.00  0.00     0.116 A 
HETATM   16  N   UNL     1      45.128 -11.357   5.050  1.00  0.00    -0.273 NA
HETATM   17  C   UNL     1      44.613 -11.440   6.293  1.00  0.00     0.116 A 
HETATM   18  C   UNL     1      43.264 -11.618   6.560  1.00  0.00     0.027 A 
ENDBRANCH   7  13
BRANCH  11  19
HETATM   19  N   UNL     1      38.790 -13.547   2.924  1.00  0.00    -0.282 NA
HETATM   20  H   UNL     1      38.493 -13.185   2.023  1.00  0.00     0.126 HD
HETATM   21  H   UNL     1      38.082 -14.114   3.386  1.00  0.00     0.126 HD
ENDBRANCH  11  19
BRANCH   1  22
HETATM   22  C   UNL     1      41.078  -8.832   7.218  1.00  0.00    -0.007 A 
HETATM   23  C   UNL     1      40.871  -9.404   8.476  1.00  0.00     0.016 A 
HETATM   24  C   UNL     1      41.592  -8.955   9.587  1.00  0.00     0.037 A 
HETATM   25  C   UNL     1      42.526  -7.925   9.462  1.00  0.00     0.069 A 
HETATM   26  C   UNL     1      42.720  -7.333   8.216  1.00  0.00     0.037 A 
HETATM   27  C   UNL     1      42.004  -7.787   7.100  1.00  0.00     0.016 A 
BRANCH  25  28
HETATM   28  O   UNL     1      43.174  -7.600  10.620  1.00  0.00    -0.347 OA
BRANCH  28  29
HETATM   29  C   UNL     1      43.440  -8.661  11.539  1.00  0.00     0.214 C 
BRANCH  29  30
HETATM   30  C   UNL     1      42.826  -8.343  12.884  1.00  0.00    -0.034 A 
HETATM   31  C   UNL     1      41.754  -9.112  13.364  1.00  0.00     0.009 A 
HETATM   32  C   UNL     1      41.191  -8.845  14.614  1.00  0.00     0.001 A 
HETATM   33  C   UNL     1      41.698  -7.814  15.402  1.00  0.00     0.000 A 
HETATM   34  C   UNL     1      42.772  -7.054  14.945  1.00  0.00     0.001 A 
HETATM   35  C   UNL     1      43.338  -7.320  13.696  1.00  0.00     0.009 A 
ENDBRANCH  29  30
ENDBRANCH  28  29
ENDBRANCH  25  28
ENDBRANCH   1  22
TORSDOF 6
ENDMDL
MODEL 10
REMARK VINA RESULT:      -7.7      2.198      4.330
REMARK  6 active torsions:
REMARK  status: ('A' for Active; 'I' for Inactive)
REMARK    1  A    between atoms: C_4  and  C_5 
REMARK    2  A    between atoms: C_5  and  O_6 
REMARK    3  A    between atoms: O_6  and  C_7 
REMARK    4  A    between atoms: C_10  and  C_11 
REMARK    5  A    between atoms: C_17  and  C_18 
REMARK    6  A    between atoms: C_27  and  N_28 
ROOT
HETATM    1  C   UNL     1      41.125 -10.928   3.730  1.00  0.00     0.072 A 
HETATM    2  N   UNL     1      41.835  -9.919   4.350  1.00  0.00    -0.274 N 
HETATM    3  H   UNL     1      42.643 -10.016   4.956  1.00  0.00     0.189 HD
HETATM    4  N   UNL     1      41.354  -8.681   4.121  1.00  0.00    -0.148 NA
HETATM    5  C   UNL     1      40.307  -8.924   3.345  1.00  0.00     0.199 A 
HETATM    6  C   UNL     1      40.118 -10.274   3.038  1.00  0.00     0.040 A 
HETATM    7  C   UNL     1      38.998 -10.695   2.153  1.00  0.00     0.106 A 
HETATM    8  C   UNL     1      38.100  -9.512   1.808  1.00  0.00     0.081 A 
HETATM    9  C   UNL     1      36.902  -9.810   1.095  1.00  0.00     0.100 C 
HETATM   10  N   UNL     1      35.931 -10.061   0.511  1.00  0.00    -0.191 NA
HETATM   11  C   UNL     1      38.380  -8.237   2.186  1.00  0.00     0.140 A 
HETATM   12  O   UNL     1      39.527  -7.913   2.924  1.00  0.00    -0.277 OA
ENDROOT
BRANCH   7  13
HETATM   13  C   UNL     1      39.643 -11.325   0.926  1.00  0.00    -0.041 A 
HETATM   14  C   UNL     1      40.365 -10.526   0.031  1.00  0.00     0.027 A 
HETATM   15  C   UNL     1      40.964 -11.120  -1.070  1.00  0.00     0.116 A 
HETATM   16  N   UNL     1      40.902 -12.441  -1.336  1.00  0.00    -0.273 NA
HETATM   17  C   UNL     1      40.209 -13.201  -0.465  1.00  0.00     0.116 A 
HETATM   18  C   UNL     1      39.575 -12.702   0.662  1.00  0.00     0.027 A 
ENDBRANCH   7  13
BRANCH  11  19
HETATM   19  N   UNL     1      37.601  -7.135   1.904  1.00  0.00    -0.282 NA
HETATM   20  H   UNL     1      37.719  -6.728   0.980  1.00  0.00     0.126 HD
HETATM   21  H   UNL     1      37.623  -6.447   2.654  1.00  0.00     0.126 HD
ENDBRANCH  11  19
BRANCH   1  22
HETATM   22  C   UNL     1      41.473 -12.337   3.867  1.00  0.00    -0.007 A 
HETATM   23  C   UNL     1      40.775 -13.161   4.754  1.00  0.00     0.016 A 
HETATM   24  C   UNL     1      41.098 -14.517   4.866  1.00  0.00     0.037 A 
HETATM   25  C   UNL     1      42.123 -15.072   4.098  1.00  0.00     0.069 A 
HETATM   26  C   UNL     1      42.840 -14.251   3.228  1.00  0.00     0.037 A 
HETATM   27  C   UNL     1      42.512 -12.894   3.109  1.00  0.00     0.016 A 
BRANCH  25  28
HETATM   28  O   UNL     1      42.319 -16.411   4.289  1.00  0.00    -0.347 OA
BRANCH  28  29
HETATM   29  C   UNL     1      43.668 -16.859   4.435  1.00  0.00     0.214 C 
BRANCH  29  30
HETATM   30  C   UNL     1      43.769 -18.319   4.055  1.00  0.00    -0.034 A 
HETATM   31  C   UNL     1      44.074 -19.278   5.034  1.00  0.00     0.009 A 
HETATM   32  C   UNL     1      44.149 -20.632   4.704  1.00  0.00     0.001 A 
HETATM   33  C   UNL     1      43.911 -21.046   3.395  1.00  0.00     0.000 A 
HETATM   34  C   UNL     1      43.591 -20.106   2.417  1.00  0.00     0.001 A 
HETATM   35  C   UNL     1      43.514 -18.751   2.746  1.00  0.00     0.009 A 
ENDBRANCH  29  30
ENDBRANCH  28  29
ENDBRANCH  25  28
ENDBRANCH   1  22
TORSDOF 6
ENDMDL
