MODEL 1
REMARK VINA RESULT:      -7.8      0.000      0.000
REMARK  6 active torsions:
REMARK  status: ('A' for Active; 'I' for Inactive)
REMARK    1  A    between atoms: C_2  and  C_3 
REMARK    2  A    between atoms: C_3  and  O_4 
REMARK    3  A    between atoms: C_3  and  C_12 
REMARK    4  A    between atoms: O_4  and  C_5 
REMARK    5  A    between atoms: C_12  and  N_13 
REMARK       I    between atoms: N_13  and  C_14 
REMARK       I    between atoms: C_14  and  N_15 
REMARK    6  A    between atoms: N_15  and  C_16 
ROOT
HETATM    1  N   UNL     1      42.045 -14.358   0.820  1.00  0.00    -0.340 N 
HETATM    2  C   UNL     1      40.741 -14.003   0.574  1.00  0.00     0.320 C 
HETATM    3  N   UNL     1      40.514 -13.832  -0.773  1.00  0.00    -0.307 N 
HETATM    4  O   UNL     1      39.895 -13.862   1.446  1.00  0.00    -0.247 OA
HETATM    5  H   UNL     1      42.682 -14.355   0.038  1.00  0.00     0.164 HD
HETATM    6  H   UNL     1      41.050 -14.430  -1.380  1.00  0.00     0.170 HD
ENDROOT
BRANCH   1   7
HETATM    7  C   UNL     1      42.563 -14.867   2.085  1.00  0.00     0.156 C 
BRANCH   7   8
HETATM    8  C   UNL     1      42.243 -16.319   2.499  1.00  0.00     0.146 C 
BRANCH   8   9
HETATM    9  C   UNL     1      41.114 -16.442   3.536  1.00  0.00     0.029 C 
HETATM   10  C   UNL     1      41.091 -15.333   4.580  1.00  0.00     0.007 C 
ENDBRANCH   8   9
BRANCH   8  11
HETATM   11  O   UNL     1      43.457 -16.858   3.054  1.00  0.00    -0.343 OA
BRANCH  11  12
HETATM   12  C   UNL     1      43.590 -18.206   3.247  1.00  0.00     0.091 A 
HETATM   13  C   UNL     1      43.963 -18.619   4.538  1.00  0.00     0.067 A 
HETATM   14 CL   UNL     1      44.217 -17.472   5.810  1.00  0.00    -0.081 Cl
HETATM   15  C   UNL     1      44.141 -19.973   4.836  1.00  0.00     0.026 A 
HETATM   16  C   UNL     1      43.950 -20.936   3.849  1.00  0.00     0.002 A 
HETATM   17  C   UNL     1      43.570 -20.541   2.568  1.00  0.00     0.003 A 
HETATM   18  C   UNL     1      43.384 -19.186   2.270  1.00  0.00     0.038 A 
ENDBRANCH  11  12
ENDBRANCH   8  11
ENDBRANCH   7   8
ENDBRANCH   1   7
BRANCH   3  19
HETATM   19  C   UNL     1      39.371 -13.205  -1.322  1.00  0.00     0.059 A 
HETATM   20  C   UNL     1      38.518 -13.913  -2.185  1.00  0.00    -0.032 A 
HETATM   21  C   UNL     1      38.700 -15.373  -2.482  1.00  0.00     0.050 C 
HETATM   22  C   UNL     1      37.430 -13.235  -2.752  1.00  0.00     0.028 A 
HETATM   23  C   UNL     1      37.233 -11.895  -2.454  1.00  0.00     0.117 A 
HETATM   24  N   UNL     1      38.032 -11.189  -1.634  1.00  0.00    -0.271 NA
HETATM   25  C   UNL     1      39.075 -11.859  -1.083  1.00  0.00     0.146 A 
ENDBRANCH   3  19
TORSDOF 6
ENDMDL
MODEL 2
REMARK VINA RESULT:      -7.3      5.076      7.669
REMARK  6 active torsions:
REMARK  status: ('A' for Active; 'I' for Inactive)
REMARK    1  A    between atoms: C_2  and  C_3 
REMARK    2  A    between atoms: C_3  and  O_4 
REMARK    3  A    between atoms: C_3  and  C_12 
REMARK    4  A    between atoms: O_4  and  C_5 
REMARK    5  A    between atoms: C_12  and  N_13 
REMARK       I    between atoms: N_13  and  C_14 
REMARK       I    between atoms: C_14  and  N_15 
REMARK    6  A    between atoms: N_15  and  C_16 
ROOT
HETATM    1  N   UNL     1      41.691 -13.090   6.248  1.00  0.00    -0.340 N 
HETATM    2  C   UNL     1      42.474 -11.964   6.311  1.00  0.00     0.320 C 
HETATM    3  N   UNL     1      43.369 -12.033   7.355  1.00  0.00    -0.307 N 
HETATM    4  O   UNL     1      42.383 -11.025   5.533  1.00  0.00    -0.247 OA
HETATM    5  H   UNL     1      41.785 -13.763   6.994  1.00  0.00     0.164 HD
HETATM    6  H   UNL     1      43.707 -12.956   7.572  1.00  0.00     0.170 HD
ENDROOT
BRANCH   1   7
HETATM    7  C   UNL     1      40.831 -13.467   5.132  1.00  0.00     0.156 C 
BRANCH   7   8
HETATM    8  C   UNL     1      41.064 -14.821   4.426  1.00  0.00     0.146 C 
BRANCH   8   9
HETATM    9  C   UNL     1      40.351 -16.007   5.098  1.00  0.00     0.029 C 
HETATM   10  C   UNL     1      40.316 -15.945   6.620  1.00  0.00     0.007 C 
ENDBRANCH   8   9
BRANCH   8  11
HETATM   11  O   UNL     1      42.484 -15.048   4.446  1.00  0.00    -0.343 OA
BRANCH  11  12
HETATM   12  C   UNL     1      42.998 -16.248   4.031  1.00  0.00     0.091 A 
HETATM   13  C   UNL     1      43.859 -16.902   4.929  1.00  0.00     0.067 A 
HETATM   14 CL   UNL     1      44.225 -16.226   6.480  1.00  0.00    -0.081 Cl
HETATM   15  C   UNL     1      44.449 -18.125   4.596  1.00  0.00     0.026 A 
HETATM   16  C   UNL     1      44.188 -18.712   3.360  1.00  0.00     0.002 A 
HETATM   17  C   UNL     1      43.328 -18.078   2.466  1.00  0.00     0.003 A 
HETATM   18  C   UNL     1      42.731 -16.858   2.801  1.00  0.00     0.038 A 
ENDBRANCH  11  12
ENDBRANCH   8  11
ENDBRANCH   7   8
ENDBRANCH   1   7
BRANCH   3  19
HETATM   19  C   UNL     1      44.110 -10.935   7.852  1.00  0.00     0.059 A 
HETATM   20  C   UNL     1      45.398 -10.668   7.360  1.00  0.00    -0.032 A 
HETATM   21  C   UNL     1      46.009 -11.441   6.227  1.00  0.00     0.050 C 
HETATM   22  C   UNL     1      46.120  -9.605   7.923  1.00  0.00     0.028 A 
HETATM   23  C   UNL     1      45.548  -8.861   8.945  1.00  0.00     0.117 A 
HETATM   24  N   UNL     1      44.319  -9.094   9.438  1.00  0.00    -0.271 NA
HETATM   25  C   UNL     1      43.627 -10.118   8.879  1.00  0.00     0.146 A 
ENDBRANCH   3  19
TORSDOF 6
ENDMDL
MODEL 3
REMARK VINA RESULT:      -7.3      1.573      2.311
REMARK  6 active torsions:
REMARK  status: ('A' for Active; 'I' for Inactive)
REMARK    1  A    between atoms: C_2  and  C_3 
REMARK    2  A    between atoms: C_3  and  O_4 
REMARK    3  A    between atoms: C_3  and  C_12 
REMARK    4  A    between atoms: O_4  and  C_5 
REMARK    5  A    between atoms: C_12  and  N_13 
REMARK       I    between atoms: N_13  and  C_14 
REMARK       I    between atoms: C_14  and  N_15 
REMARK    6  A    between atoms: N_15  and  C_16 
ROOT
HETATM    1  N   UNL     1      39.871 -15.213   2.683  1.00  0.00    -0.340 N 
HETATM    2  C   UNL     1      40.346 -14.834   1.452  1.00  0.00     0.320 C 
HETATM    3  N   UNL     1      39.611 -13.794   0.929  1.00  0.00    -0.307 N 
HETATM    4  O   UNL     1      41.303 -15.357   0.898  1.00  0.00    -0.247 OA
HETATM    5  H   UNL     1      39.020 -14.778   3.006  1.00  0.00     0.164 HD
HETATM    6  H   UNL     1      39.242 -13.145   1.605  1.00  0.00     0.170 HD
ENDROOT
BRANCH   1   7
HETATM    7  C   UNL     1      40.557 -16.090   3.626  1.00  0.00     0.156 C 
BRANCH   7   8
HETATM    8  C   UNL     1      41.824 -15.578   4.345  1.00  0.00     0.146 C 
BRANCH   8   9
HETATM    9  C   UNL     1      41.874 -14.050   4.515  1.00  0.00     0.029 C 
HETATM   10  C   UNL     1      42.922 -13.352   3.657  1.00  0.00     0.007 C 
ENDBRANCH   8   9
BRANCH   8  11
HETATM   11  O   UNL     1      42.942 -16.002   3.545  1.00  0.00    -0.343 OA
BRANCH  11  12
HETATM   12  C   UNL     1      43.231 -17.334   3.412  1.00  0.00     0.091 A 
HETATM   13  C   UNL     1      43.918 -17.934   4.482  1.00  0.00     0.067 A 
HETATM   14 CL   UNL     1      44.352 -17.029   5.893  1.00  0.00    -0.081 Cl
HETATM   15  C   UNL     1      44.274 -19.285   4.439  1.00  0.00     0.026 A 
HETATM   16  C   UNL     1      43.950 -20.057   3.327  1.00  0.00     0.002 A 
HETATM   17  C   UNL     1      43.260 -19.477   2.264  1.00  0.00     0.003 A 
HETATM   18  C   UNL     1      42.896 -18.127   2.310  1.00  0.00     0.038 A 
ENDBRANCH  11  12
ENDBRANCH   8  11
ENDBRANCH   7   8
ENDBRANCH   1   7
BRANCH   3  19
HETATM   19  C   UNL     1      39.667 -13.368  -0.419  1.00  0.00     0.059 A 
HETATM   20  C   UNL     1      40.293 -12.156  -0.755  1.00  0.00    -0.032 A 
HETATM   21  C   UNL     1      41.021 -11.315   0.254  1.00  0.00     0.050 C 
HETATM   22  C   UNL     1      40.273 -11.744  -2.095  1.00  0.00     0.028 A 
HETATM   23  C   UNL     1      39.636 -12.534  -3.040  1.00  0.00     0.117 A 
HETATM   24  N   UNL     1      39.026 -13.697  -2.749  1.00  0.00    -0.271 NA
HETATM   25  C   UNL     1      39.061 -14.090  -1.451  1.00  0.00     0.146 A 
ENDBRANCH   3  19
TORSDOF 6
ENDMDL
MODEL 4
REMARK VINA RESULT:      -7.2      2.187      2.929
REMARK  6 active torsions:
REMARK  status: ('A' for Active; 'I' for Inactive)
REMARK    1  A    between atoms: C_2  and  C_3 
REMARK    2  A    between atoms: C_3  and  O_4 
REMARK    3  A    between atoms: C_3  and  C_12 
REMARK    4  A    between atoms: O_4  and  C_5 
REMARK    5  A    between atoms: C_12  and  N_13 
REMARK       I    between atoms: N_13  and  C_14 
REMARK       I    between atoms: C_14  and  N_15 
REMARK    6  A    between atoms: N_15  and  C_16 
ROOT
HETATM    1  N   UNL     1      41.869 -14.509   4.223  1.00  0.00    -0.340 N 
HETATM    2  C   UNL     1      41.831 -13.694   3.118  1.00  0.00     0.320 C 
HETATM    3  N   UNL     1      40.537 -13.397   2.757  1.00  0.00    -0.307 N 
HETATM    4  O   UNL     1      42.827 -13.286   2.536  1.00  0.00    -0.247 OA
HETATM    5  H   UNL     1      40.990 -14.863   4.568  1.00  0.00     0.164 HD
HETATM    6  H   UNL     1      39.882 -13.328   3.519  1.00  0.00     0.170 HD
ENDROOT
BRANCH   1   7
HETATM    7  C   UNL     1      43.052 -14.803   5.022  1.00  0.00     0.156 C 
BRANCH   7   8
HETATM    8  C   UNL     1      43.293 -16.249   5.507  1.00  0.00     0.146 C 
BRANCH   8   9
HETATM    9  C   UNL     1      43.850 -16.346   6.938  1.00  0.00     0.029 C 
HETATM   10  C   UNL     1      43.020 -15.620   7.989  1.00  0.00     0.007 C 
ENDBRANCH   8   9
BRANCH   8  11
HETATM   11  O   UNL     1      44.238 -16.830   4.591  1.00  0.00    -0.343 OA
BRANCH  11  12
HETATM   12  C   UNL     1      44.037 -18.092   4.098  1.00  0.00     0.091 A 
HETATM   13  C   UNL     1      43.538 -18.178   2.787  1.00  0.00     0.067 A 
HETATM   14 CL   UNL     1      43.219 -16.757   1.850  1.00  0.00    -0.081 Cl
HETATM   15  C   UNL     1      43.283 -19.420   2.196  1.00  0.00     0.026 A 
HETATM   16  C   UNL     1      43.522 -20.593   2.907  1.00  0.00     0.002 A 
HETATM   17  C   UNL     1      44.026 -20.521   4.204  1.00  0.00     0.003 A 
HETATM   18  C   UNL     1      44.290 -19.279   4.793  1.00  0.00     0.038 A 
ENDBRANCH  11  12
ENDBRANCH   8  11
ENDBRANCH   7   8
ENDBRANCH   1   7
BRANCH   3  19
HETATM   19  C   UNL     1      40.159 -12.823   1.521  1.00  0.00     0.059 A 
HETATM   20  C   UNL     1      39.952 -13.636   0.394  1.00  0.00    -0.032 A 
HETATM   21  C   UNL     1      40.008 -15.135   0.458  1.00  0.00     0.050 C 
HETATM   22  C   UNL     1      39.637 -13.020  -0.825  1.00  0.00     0.028 A 
HETATM   23  C   UNL     1      39.546 -11.637  -0.884  1.00  0.00     0.117 A 
HETATM   24  N   UNL     1      39.740 -10.832   0.175  1.00  0.00    -0.271 NA
HETATM   25  C   UNL     1      40.035 -11.440   1.351  1.00  0.00     0.146 A 
ENDBRANCH   3  19
TORSDOF 6
ENDMDL
MODEL 5
REMARK VINA RESULT:      -7.1      1.224      1.807
REMARK  6 active torsions:
REMARK  status: ('A' for Active; 'I' for Inactive)
REMARK    1  A    between atoms: C_2  and  C_3 
REMARK    2  A    between atoms: C_3  and  O_4 
REMARK    3  A    between atoms: C_3  and  C_12 
REMARK    4  A    between atoms: O_4  and  C_5 
REMARK    5  A    between atoms: C_12  and  N_13 
REMARK       I    between atoms: N_13  and  C_14 
REMARK       I    between atoms: C_14  and  N_15 
REMARK    6  A    between atoms: N_15  and  C_16 
ROOT
HETATM    1  N   UNL     1      42.287 -14.785   1.157  1.00  0.00    -0.340 N 
HETATM    2  C   UNL     1      41.063 -14.556   0.576  1.00  0.00     0.320 C 
HETATM    3  N   UNL     1      41.000 -13.299   0.018  1.00  0.00    -0.307 N 
HETATM    4  O   UNL     1      40.153 -15.373   0.558  1.00  0.00    -0.247 OA
HETATM    5  H   UNL     1      42.933 -14.011   1.197  1.00  0.00     0.164 HD
HETATM    6  H   UNL     1      41.866 -12.950  -0.358  1.00  0.00     0.170 HD
ENDROOT
BRANCH   1   7
HETATM    7  C   UNL     1      42.788 -16.080   1.602  1.00  0.00     0.156 C 
BRANCH   7   8
HETATM    8  C   UNL     1      42.486 -16.549   3.041  1.00  0.00     0.146 C 
BRANCH   8   9
HETATM    9  C   UNL     1      42.027 -15.424   3.984  1.00  0.00     0.029 C 
HETATM   10  C   UNL     1      40.832 -15.781   4.860  1.00  0.00     0.007 C 
ENDBRANCH   8   9
BRANCH   8  11
HETATM   11  O   UNL     1      43.707 -17.121   3.544  1.00  0.00    -0.343 OA
BRANCH  11  12
HETATM   12  C   UNL     1      43.765 -18.449   3.873  1.00  0.00     0.091 A 
HETATM   13  C   UNL     1      43.797 -18.752   5.244  1.00  0.00     0.067 A 
HETATM   14 CL   UNL     1      43.745 -17.504   6.443  1.00  0.00    -0.081 Cl
HETATM   15  C   UNL     1      43.872 -20.077   5.686  1.00  0.00     0.026 A 
HETATM   16  C   UNL     1      43.917 -21.118   4.763  1.00  0.00     0.002 A 
HETATM   17  C   UNL     1      43.876 -20.831   3.400  1.00  0.00     0.003 A 
HETATM   18  C   UNL     1      43.792 -19.506   2.958  1.00  0.00     0.038 A 
ENDBRANCH  11  12
ENDBRANCH   8  11
ENDBRANCH   7   8
ENDBRANCH   1   7
BRANCH   3  19
HETATM   19  C   UNL     1      39.806 -12.665  -0.401  1.00  0.00     0.059 A 
HETATM   20  C   UNL     1      38.969 -12.039   0.537  1.00  0.00    -0.032 A 
HETATM   21  C   UNL     1      39.335 -11.908   1.988  1.00  0.00     0.050 C 
HETATM   22  C   UNL     1      37.767 -11.475   0.087  1.00  0.00     0.028 A 
HETATM   23  C   UNL     1      37.439 -11.558  -1.258  1.00  0.00     0.117 A 
HETATM   24  N   UNL     1      38.217 -12.153  -2.179  1.00  0.00    -0.271 NA
HETATM   25  C   UNL     1      39.382 -12.686  -1.733  1.00  0.00     0.146 A 
ENDBRANCH   3  19
TORSDOF 6
ENDMDL
MODEL 6
REMARK VINA RESULT:      -7.0      1.830      2.492
REMARK  6 active torsions:
REMARK  status: ('A' for Active; 'I' for Inactive)
REMARK    1  A    between atoms: C_2  and  C_3 
REMARK    2  A    between atoms: C_3  and  O_4 
REMARK    3  A    between atoms: C_3  and  C_12 
REMARK    4  A    between atoms: O_4  and  C_5 
REMARK    5  A    between atoms: C_12  and  N_13 
REMARK       I    between atoms: N_13  and  C_14 
REMARK       I    between atoms: C_14  and  N_15 
REMARK    6  A    between atoms: N_15  and  C_16 
ROOT
HETATM    1  N   UNL     1      40.641 -14.647   2.933  1.00  0.00    -0.340 N 
HETATM    2  C   UNL     1      40.837 -14.065   1.705  1.00  0.00     0.320 C 
HETATM    3  N   UNL     1      39.644 -13.866   1.048  1.00  0.00    -0.307 N 
HETATM    4  O   UNL     1      41.935 -13.762   1.260  1.00  0.00    -0.247 OA
HETATM    5  H   UNL     1      39.704 -14.942   3.163  1.00  0.00     0.164 HD
HETATM    6  H   UNL     1      38.855 -13.662   1.639  1.00  0.00     0.170 HD
ENDROOT
BRANCH   1   7
HETATM    7  C   UNL     1      41.640 -14.759   3.990  1.00  0.00     0.156 C 
BRANCH   7   8
HETATM    8  C   UNL     1      41.791 -16.097   4.745  1.00  0.00     0.146 C 
BRANCH   8   9
HETATM    9  C   UNL     1      41.452 -16.012   6.243  1.00  0.00     0.029 C 
HETATM   10  C   UNL     1      40.117 -15.346   6.553  1.00  0.00     0.007 C 
ENDBRANCH   8   9
BRANCH   8  11
HETATM   11  O   UNL     1      43.165 -16.495   4.592  1.00  0.00    -0.343 OA
BRANCH  11  12
HETATM   12  C   UNL     1      43.482 -17.805   4.350  1.00  0.00     0.091 A 
HETATM   13  C   UNL     1      43.479 -18.210   3.005  1.00  0.00     0.067 A 
HETATM   14 CL   UNL     1      43.113 -17.097   1.730  1.00  0.00    -0.081 Cl
HETATM   15  C   UNL     1      43.774 -19.531   2.652  1.00  0.00     0.026 A 
HETATM   16  C   UNL     1      44.074 -20.466   3.639  1.00  0.00     0.002 A 
HETATM   17  C   UNL     1      44.090 -20.075   4.976  1.00  0.00     0.003 A 
HETATM   18  C   UNL     1      43.803 -18.751   5.329  1.00  0.00     0.038 A 
ENDBRANCH  11  12
ENDBRANCH   8  11
ENDBRANCH   7   8
ENDBRANCH   1   7
BRANCH   3  19
HETATM   19  C   UNL     1      39.526 -13.552  -0.326  1.00  0.00     0.059 A 
HETATM   20  C   UNL     1      38.820 -12.407  -0.734  1.00  0.00    -0.032 A 
HETATM   21  C   UNL     1      38.259 -11.413   0.241  1.00  0.00     0.050 C 
HETATM   22  C   UNL     1      38.678 -12.166  -2.108  1.00  0.00     0.028 A 
HETATM   23  C   UNL     1      39.226 -13.060  -3.016  1.00  0.00     0.117 A 
HETATM   24  N   UNL     1      39.904 -14.164  -2.657  1.00  0.00    -0.271 NA
HETATM   25  C   UNL     1      40.044 -14.382  -1.325  1.00  0.00     0.146 A 
ENDBRANCH   3  19
TORSDOF 6
ENDMDL
MODEL 7
REMARK VINA RESULT:      -6.9      5.999      8.341
REMARK  6 active torsions:
REMARK  status: ('A' for Active; 'I' for Inactive)
REMARK    1  A    between atoms: C_2  and  C_3 
REMARK    2  A    between atoms: C_3  and  O_4 
REMARK    3  A    between atoms: C_3  and  C_12 
REMARK    4  A    between atoms: O_4  and  C_5 
REMARK    5  A    between atoms: C_12  and  N_13 
REMARK       I    between atoms: N_13  and  C_14 
REMARK       I    between atoms: C_14  and  N_15 
REMARK    6  A    between atoms: N_15  and  C_16 
ROOT
HETATM    1  N   UNL     1      42.743 -12.149   6.684  1.00  0.00    -0.340 N 
HETATM    2  C   UNL     1      43.364 -11.065   7.254  1.00  0.00     0.320 C 
HETATM    3  N   UNL     1      42.498 -10.354   8.054  1.00  0.00    -0.307 N 
HETATM    4  O   UNL     1      44.538 -10.776   7.072  1.00  0.00    -0.247 OA
HETATM    5  H   UNL     1      41.749 -12.242   6.826  1.00  0.00     0.164 HD
HETATM    6  H   UNL     1      41.797 -10.903   8.524  1.00  0.00     0.170 HD
ENDROOT
BRANCH   1   7
HETATM    7  C   UNL     1      43.413 -13.251   6.002  1.00  0.00     0.156 C 
BRANCH   7   8
HETATM    8  C   UNL     1      42.615 -14.532   5.679  1.00  0.00     0.146 C 
BRANCH   8   9
HETATM    9  C   UNL     1      41.725 -15.024   6.833  1.00  0.00     0.029 C 
HETATM   10  C   UNL     1      40.540 -15.877   6.397  1.00  0.00     0.007 C 
ENDBRANCH   8   9
BRANCH   8  11
HETATM   11  O   UNL     1      43.588 -15.546   5.366  1.00  0.00    -0.343 OA
BRANCH  11  12
HETATM   12  C   UNL     1      43.460 -16.299   4.230  1.00  0.00     0.091 A 
HETATM   13  C   UNL     1      43.550 -17.692   4.391  1.00  0.00     0.067 A 
HETATM   14 CL   UNL     1      43.790 -18.404   5.952  1.00  0.00    -0.081 Cl
HETATM   15  C   UNL     1      43.448 -18.551   3.292  1.00  0.00     0.026 A 
HETATM   16  C   UNL     1      43.256 -18.030   2.016  1.00  0.00     0.002 A 
HETATM   17  C   UNL     1      43.155 -16.651   1.843  1.00  0.00     0.003 A 
HETATM   18  C   UNL     1      43.248 -15.792   2.944  1.00  0.00     0.038 A 
ENDBRANCH  11  12
ENDBRANCH   8  11
ENDBRANCH   7   8
ENDBRANCH   1   7
BRANCH   3  19
HETATM   19  C   UNL     1      42.746  -9.053   8.549  1.00  0.00     0.059 A 
HETATM   20  C   UNL     1      43.008  -8.852   9.915  1.00  0.00    -0.032 A 
HETATM   21  C   UNL     1      43.149  -9.987  10.887  1.00  0.00     0.050 C 
HETATM   22  C   UNL     1      43.191  -7.539  10.373  1.00  0.00     0.028 A 
HETATM   23  C   UNL     1      43.099  -6.486   9.475  1.00  0.00     0.117 A 
HETATM   24  N   UNL     1      42.847  -6.646   8.163  1.00  0.00    -0.271 NA
HETATM   25  C   UNL     1      42.683  -7.921   7.730  1.00  0.00     0.146 A 
ENDBRANCH   3  19
TORSDOF 6
ENDMDL
MODEL 8
REMARK VINA RESULT:      -6.8      4.453      6.846
REMARK  6 active torsions:
REMARK  status: ('A' for Active; 'I' for Inactive)
REMARK    1  A    between atoms: C_2  and  C_3 
REMARK    2  A    between atoms: C_3  and  O_4 
REMARK    3  A    between atoms: C_3  and  C_12 
REMARK    4  A    between atoms: O_4  and  C_5 
REMARK    5  A    between atoms: C_12  and  N_13 
REMARK       I    between atoms: N_13  and  C_14 
REMARK       I    between atoms: C_14  and  N_15 
REMARK    6  A    between atoms: N_15  and  C_16 
ROOT
HETATM    1  N   UNL     1      42.399 -12.891   3.775  1.00  0.00    -0.340 N 
HETATM    2  C   UNL     1      42.977 -11.800   4.377  1.00  0.00     0.320 C 
HETATM    3  N   UNL     1      42.902 -11.885   5.749  1.00  0.00    -0.307 N 
HETATM    4  O   UNL     1      43.493 -10.876   3.764  1.00  0.00    -0.247 OA
HETATM    5  H   UNL     1      41.920 -13.549   4.371  1.00  0.00     0.164 HD
HETATM    6  H   UNL     1      42.951 -12.817   6.126  1.00  0.00     0.170 HD
ENDROOT
BRANCH   1   7
HETATM    7  C   UNL     1      42.530 -13.254   2.369  1.00  0.00     0.156 C 
BRANCH   7   8
HETATM    8  C   UNL     1      42.377 -14.734   1.957  1.00  0.00     0.146 C 
BRANCH   8   9
HETATM    9  C   UNL     1      41.185 -15.005   1.023  1.00  0.00     0.029 C 
HETATM   10  C   UNL     1      39.873 -15.294   1.740  1.00  0.00     0.007 C 
ENDBRANCH   8   9
BRANCH   8  11
HETATM   11  O   UNL     1      42.203 -15.478   3.176  1.00  0.00    -0.343 OA
BRANCH  11  12
HETATM   12  C   UNL     1      42.907 -16.632   3.389  1.00  0.00     0.091 A 
HETATM   13  C   UNL     1      43.584 -16.734   4.616  1.00  0.00     0.067 A 
HETATM   14 CL   UNL     1      43.505 -15.467   5.795  1.00  0.00    -0.081 Cl
HETATM   15  C   UNL     1      44.345 -17.865   4.925  1.00  0.00     0.026 A 
HETATM   16  C   UNL     1      44.443 -18.911   4.012  1.00  0.00     0.002 A 
HETATM   17  C   UNL     1      43.768 -18.828   2.796  1.00  0.00     0.003 A 
HETATM   18  C   UNL     1      42.999 -17.699   2.489  1.00  0.00     0.038 A 
ENDBRANCH  11  12
ENDBRANCH   8  11
ENDBRANCH   7   8
ENDBRANCH   1   7
BRANCH   3  19
HETATM   19  C   UNL     1      43.148 -10.811   6.635  1.00  0.00     0.059 A 
HETATM   20  C   UNL     1      44.429 -10.618   7.179  1.00  0.00    -0.032 A 
HETATM   21  C   UNL     1      45.612 -11.450   6.776  1.00  0.00     0.050 C 
HETATM   22  C   UNL     1      44.614  -9.576   8.098  1.00  0.00     0.028 A 
HETATM   23  C   UNL     1      43.534  -8.778   8.448  1.00  0.00     0.117 A 
HETATM   24  N   UNL     1      42.297  -8.939   7.948  1.00  0.00    -0.271 NA
HETATM   25  C   UNL     1      42.133  -9.943   7.051  1.00  0.00     0.146 A 
ENDBRANCH   3  19
TORSDOF 6
ENDMDL
MODEL 9
REMARK VINA RESULT:      -6.8      3.100      8.240
REMARK  6 active torsions:
REMARK  status: ('A' for Active; 'I' for Inactive)
REMARK    1  A    between atoms: C_2  and  C_3 
REMARK    2  A    between atoms: C_3  and  O_4 
REMARK    3  A    between atoms: C_3  and  C_12 
REMARK    4  A    between atoms: O_4  and  C_5 
REMARK    5  A    between atoms: C_12  and  N_13 
REMARK       I    between atoms: N_13  and  C_14 
REMARK       I    between atoms: C_14  and  N_15 
REMARK    6  A    between atoms: N_15  and  C_16 
ROOT
HETATM    1  N   UNL     1      41.523 -13.401   2.537  1.00  0.00    -0.340 N 
HETATM    2  C   UNL     1      42.395 -14.454   2.405  1.00  0.00     0.320 C 
HETATM    3  N   UNL     1      41.910 -15.587   3.018  1.00  0.00    -0.307 N 
HETATM    4  O   UNL     1      43.463 -14.385   1.813  1.00  0.00    -0.247 OA
HETATM    5  H   UNL     1      40.714 -13.540   3.124  1.00  0.00     0.164 HD
HETATM    6  H   UNL     1      40.909 -15.691   3.002  1.00  0.00     0.170 HD
ENDROOT
BRANCH   1   7
HETATM    7  C   UNL     1      41.589 -12.144   1.801  1.00  0.00     0.156 C 
BRANCH   7   8
HETATM    8  C   UNL     1      41.082 -12.098   0.343  1.00  0.00     0.146 C 
BRANCH   8   9
HETATM    9  C   UNL     1      41.028 -10.683  -0.258  1.00  0.00     0.029 C 
HETATM   10  C   UNL     1      41.469 -10.597  -1.714  1.00  0.00     0.007 C 
ENDBRANCH   8   9
BRANCH   8  11
HETATM   11  O   UNL     1      39.755 -12.657   0.359  1.00  0.00    -0.343 OA
BRANCH  11  12
HETATM   12  C   UNL     1      39.218 -13.194  -0.779  1.00  0.00     0.091 A 
HETATM   13  C   UNL     1      38.076 -12.556  -1.292  1.00  0.00     0.067 A 
HETATM   14 CL   UNL     1      37.408 -11.154  -0.526  1.00  0.00    -0.081 Cl
HETATM   15  C   UNL     1      37.441 -13.036  -2.442  1.00  0.00     0.026 A 
HETATM   16  C   UNL     1      37.937 -14.160  -3.096  1.00  0.00     0.002 A 
HETATM   17  C   UNL     1      39.075 -14.796  -2.603  1.00  0.00     0.003 A 
HETATM   18  C   UNL     1      39.716 -14.312  -1.457  1.00  0.00     0.038 A 
ENDBRANCH  11  12
ENDBRANCH   8  11
ENDBRANCH   7   8
ENDBRANCH   1   7
BRANCH   3  19
HETATM   19  C   UNL     1      42.679 -16.740   3.299  1.00  0.00     0.059 A 
HETATM   20  C   UNL     1      43.430 -16.821   4.484  1.00  0.00    -0.032 A 
HETATM   21  C   UNL     1      43.375 -15.765   5.550  1.00  0.00     0.050 C 
HETATM   22  C   UNL     1      44.225 -17.957   4.694  1.00  0.00     0.028 A 
HETATM   23  C   UNL     1      44.253 -18.955   3.731  1.00  0.00     0.117 A 
HETATM   24  N   UNL     1      43.548 -18.905   2.587  1.00  0.00    -0.271 NA
HETATM   25  C   UNL     1      42.775 -17.806   2.400  1.00  0.00     0.146 A 
ENDBRANCH   3  19
TORSDOF 6
ENDMDL
MODEL 10
REMARK VINA RESULT:      -6.7      7.587     10.317
REMARK  6 active torsions:
REMARK  status: ('A' for Active; 'I' for Inactive)
REMARK    1  A    between atoms: C_2  and  C_3 
REMARK    2  A    between atoms: C_3  and  O_4 
REMARK    3  A    between atoms: C_3  and  C_12 
REMARK    4  A    between atoms: O_4  and  C_5 
REMARK    5  A    between atoms: C_12  and  N_13 
REMARK       I    between atoms: N_13  and  C_14 
REMARK       I    between atoms: C_14  and  N_15 
REMARK    6  A    between atoms: N_15  and  C_16 
ROOT
HETATM    1  N   UNL     1      43.660 -10.968   8.230  1.00  0.00    -0.340 N 
HETATM    2  C   UNL     1      43.837 -10.621   9.547  1.00  0.00     0.320 C 
HETATM    3  N   UNL     1      42.677 -10.119  10.094  1.00  0.00    -0.307 N 
HETATM    4  O   UNL     1      44.893 -10.749  10.151  1.00  0.00    -0.247 OA
HETATM    5  H   UNL     1      42.776 -10.735   7.804  1.00  0.00     0.164 HD
HETATM    6  H   UNL     1      41.825 -10.515   9.734  1.00  0.00     0.170 HD
ENDROOT
BRANCH   1   7
HETATM    7  C   UNL     1      44.584 -11.763   7.429  1.00  0.00     0.156 C 
BRANCH   7   8
HETATM    8  C   UNL     1      44.093 -12.376   6.100  1.00  0.00     0.146 C 
BRANCH   8   9
HETATM    9  C   UNL     1      43.474 -11.355   5.130  1.00  0.00     0.029 C 
HETATM   10  C   UNL     1      43.748 -11.636   3.657  1.00  0.00     0.007 C 
ENDBRANCH   8   9
BRANCH   8  11
HETATM   11  O   UNL     1      43.101 -13.358   6.450  1.00  0.00    -0.343 OA
BRANCH  11  12
HETATM   12  C   UNL     1      43.213 -14.646   5.998  1.00  0.00     0.091 A 
HETATM   13  C   UNL     1      42.266 -15.057   5.045  1.00  0.00     0.067 A 
HETATM   14 CL   UNL     1      41.041 -13.977   4.469  1.00  0.00    -0.081 Cl
HETATM   15  C   UNL     1      42.283 -16.357   4.531  1.00  0.00     0.026 A 
HETATM   16  C   UNL     1      43.246 -17.266   4.962  1.00  0.00     0.002 A 
HETATM   17  C   UNL     1      44.197 -16.867   5.898  1.00  0.00     0.003 A 
HETATM   18  C   UNL     1      44.186 -15.564   6.408  1.00  0.00     0.038 A 
ENDBRANCH  11  12
ENDBRANCH   8  11
ENDBRANCH   7   8
ENDBRANCH   1   7
BRANCH   3  19
HETATM   19  C   UNL     1      42.604  -9.424  11.323  1.00  0.00     0.059 A 
HETATM   20  C   UNL     1      42.851  -8.041  11.373  1.00  0.00    -0.032 A 
HETATM   21  C   UNL     1      43.090  -7.218  10.140  1.00  0.00     0.050 C 
HETATM   22  C   UNL     1      42.826  -7.403  12.621  1.00  0.00     0.028 A 
HETATM   23  C   UNL     1      42.569  -8.150  13.761  1.00  0.00     0.117 A 
HETATM   24  N   UNL     1      42.332  -9.473  13.747  1.00  0.00    -0.271 NA
HETATM   25  C   UNL     1      42.348 -10.078  12.532  1.00  0.00     0.146 A 
ENDBRANCH   3  19
TORSDOF 6
ENDMDL
