MODEL 1
REMARK VINA RESULT:      -9.2      0.000      0.000
REMARK  6 active torsions:
REMARK  status: ('A' for Active; 'I' for Inactive)
REMARK    1  A    between atoms: O_2  and  C_3 
REMARK    2  A    between atoms: C_3  and  C_4 
REMARK    3  A    between atoms: C_7  and  N_8 
REMARK       I    between atoms: N_8  and  C_9 
REMARK    4  A    between atoms: C_9  and  C_10 
REMARK    5  A    between atoms: C_10  and  O_11 
REMARK    6  A    between atoms: O_11  and  C_12 
ROOT
HETATM    1  C   UNL     1      44.559 -11.904   6.765  1.00  0.00     0.278 C 
ENDROOT
BRANCH   1   2
HETATM    2  C   UNL     1      44.821 -11.085   8.033  1.00  0.00     0.246 C 
HETATM    3  N   UNL     1      43.650 -10.665   8.642  1.00  0.00    -0.325 N 
HETATM    4  H   UNL     1      42.805 -10.822   8.101  1.00  0.00     0.169 HD
HETATM    5  O   UNL     1      45.964 -10.936   8.457  1.00  0.00    -0.271 OA
BRANCH   3   6
HETATM    6  C   UNL     1      43.501 -10.077   9.912  1.00  0.00     0.034 A 
HETATM    7  C   UNL     1      43.449 -10.802  11.105  1.00  0.00     0.030 A 
HETATM    8  C   UNL     1      43.237 -10.152  12.328  1.00  0.00     0.020 A 
HETATM    9  C   UNL     1      43.072  -8.764  12.373  1.00  0.00     0.039 A 
HETATM   10  C   UNL     1      43.147  -8.031  11.182  1.00  0.00     0.020 A 
HETATM   11  C   UNL     1      43.361  -8.685   9.963  1.00  0.00     0.030 A 
BRANCH   9  12
HETATM   12  C   UNL     1      42.802  -8.031  13.640  1.00  0.00     0.292 C 
HETATM   13  O   UNL     1      43.082  -6.856  13.811  1.00  0.00    -0.259 OA
BRANCH  12  14
HETATM   14  O   UNL     1      42.184  -8.840  14.537  1.00  0.00    -0.323 OA
HETATM   15  C   UNL     1      41.295  -8.157  15.421  1.00  0.00     0.213 C 
ENDBRANCH  12  14
ENDBRANCH   9  12
ENDBRANCH   3   6
ENDBRANCH   1   2
BRANCH   1  16
HETATM   16  O   UNL     1      43.306 -12.584   6.853  1.00  0.00    -0.342 OA
BRANCH  16  17
HETATM   17  C   UNL     1      43.182 -13.652   6.000  1.00  0.00     0.071 A 
HETATM   18  C   UNL     1      43.703 -14.863   6.468  1.00  0.00     0.067 A 
HETATM   19  C   UNL     1      43.661 -15.971   5.609  1.00  0.00     0.046 A 
HETATM   20  C   UNL     1      43.141 -15.903   4.318  1.00  0.00     0.003 A 
HETATM   21  N   UNL     1      44.085 -17.266   5.803  1.00  0.00    -0.355 N 
HETATM   22  C   UNL     1      42.627 -14.672   3.866  1.00  0.00     0.017 A 
HETATM   23  C   UNL     1      43.290 -17.196   3.724  1.00  0.00     0.003 A 
HETATM   24  C   UNL     1      42.659 -13.554   4.711  1.00  0.00     0.038 A 
HETATM   25  C   UNL     1      43.883 -18.025   4.674  1.00  0.00     0.043 A 
HETATM   26  C   UNL     1      42.981 -17.733   2.457  1.00  0.00     0.014 A 
HETATM   27  C   UNL     1      44.182 -19.371   4.423  1.00  0.00     0.030 A 
HETATM   28  C   UNL     1      43.869 -19.879   3.157  1.00  0.00     0.002 A 
HETATM   29  C   UNL     1      43.278 -19.074   2.187  1.00  0.00     0.001 A 
HETATM   30  H   UNL     1      44.504 -17.611   6.654  1.00  0.00     0.166 HD
ENDBRANCH  16  17
ENDBRANCH   1  16
TORSDOF 6
ENDMDL
MODEL 2
REMARK VINA RESULT:      -8.6      5.538      9.493
REMARK  6 active torsions:
REMARK  status: ('A' for Active; 'I' for Inactive)
REMARK    1  A    between atoms: O_2  and  C_3 
REMARK    2  A    between atoms: C_3  and  C_4 
REMARK    3  A    between atoms: C_7  and  N_8 
REMARK       I    between atoms: N_8  and  C_9 
REMARK    4  A    between atoms: C_9  and  C_10 
REMARK    5  A    between atoms: C_10  and  O_11 
REMARK    6  A    between atoms: O_11  and  C_12 
ROOT
HETATM    1  C   UNL     1      41.540 -12.677   5.325  1.00  0.00     0.278 C 
ENDROOT
BRANCH   1   2
HETATM    2  C   UNL     1      40.656 -12.788   4.080  1.00  0.00     0.246 C 
HETATM    3  N   UNL     1      41.396 -12.900   2.914  1.00  0.00    -0.325 N 
HETATM    4  H   UNL     1      42.394 -12.744   3.023  1.00  0.00     0.169 HD
HETATM    5  O   UNL     1      39.434 -12.859   4.183  1.00  0.00    -0.271 OA
BRANCH   3   6
HETATM    6  C   UNL     1      40.932 -13.220   1.624  1.00  0.00     0.034 A 
HETATM    7  C   UNL     1      40.382 -14.455   1.278  1.00  0.00     0.030 A 
HETATM    8  C   UNL     1      39.998 -14.724  -0.042  1.00  0.00     0.020 A 
HETATM    9  C   UNL     1      40.162 -13.755  -1.037  1.00  0.00     0.039 A 
HETATM   10  C   UNL     1      40.691 -12.506  -0.690  1.00  0.00     0.020 A 
HETATM   11  C   UNL     1      41.071 -12.242   0.631  1.00  0.00     0.030 A 
BRANCH   9  12
HETATM   12  C   UNL     1      39.809 -14.004  -2.462  1.00  0.00     0.292 C 
HETATM   13  O   UNL     1      40.424 -13.525  -3.401  1.00  0.00    -0.259 OA
BRANCH  12  14
HETATM   14  O   UNL     1      38.752 -14.849  -2.551  1.00  0.00    -0.323 OA
HETATM   15  C   UNL     1      38.054 -14.780  -3.795  1.00  0.00     0.213 C 
ENDBRANCH  12  14
ENDBRANCH   9  12
ENDBRANCH   3   6
ENDBRANCH   1   2
BRANCH   1  16
HETATM   16  O   UNL     1      42.885 -13.052   5.025  1.00  0.00    -0.342 OA
BRANCH  16  17
HETATM   17  C   UNL     1      43.142 -14.393   5.166  1.00  0.00     0.071 A 
HETATM   18  C   UNL     1      43.230 -15.121   3.973  1.00  0.00     0.067 A 
HETATM   19  C   UNL     1      43.426 -16.506   4.063  1.00  0.00     0.046 A 
HETATM   20  C   UNL     1      43.517 -17.176   5.281  1.00  0.00     0.003 A 
HETATM   21  N   UNL     1      43.556 -17.454   3.074  1.00  0.00    -0.355 N 
HETATM   22  C   UNL     1      43.418 -16.425   6.469  1.00  0.00     0.017 A 
HETATM   23  C   UNL     1      43.679 -18.569   4.997  1.00  0.00     0.003 A 
HETATM   24  C   UNL     1      43.225 -15.038   6.399  1.00  0.00     0.038 A 
HETATM   25  C   UNL     1      43.699 -18.712   3.611  1.00  0.00     0.043 A 
HETATM   26  C   UNL     1      43.801 -19.724   5.797  1.00  0.00     0.014 A 
HETATM   27  C   UNL     1      43.839 -19.955   2.981  1.00  0.00     0.030 A 
HETATM   28  C   UNL     1      43.955 -21.086   3.797  1.00  0.00     0.002 A 
HETATM   29  C   UNL     1      43.935 -20.975   5.184  1.00  0.00     0.001 A 
HETATM   30  H   UNL     1      43.535 -17.256   2.084  1.00  0.00     0.166 HD
ENDBRANCH  16  17
ENDBRANCH   1  16
TORSDOF 6
ENDMDL
MODEL 3
REMARK VINA RESULT:      -8.4      1.384      1.939
REMARK  6 active torsions:
REMARK  status: ('A' for Active; 'I' for Inactive)
REMARK    1  A    between atoms: O_2  and  C_3 
REMARK    2  A    between atoms: C_3  and  C_4 
REMARK    3  A    between atoms: C_7  and  N_8 
REMARK       I    between atoms: N_8  and  C_9 
REMARK    4  A    between atoms: C_9  and  C_10 
REMARK    5  A    between atoms: C_10  and  O_11 
REMARK    6  A    between atoms: O_11  and  C_12 
ROOT
HETATM    1  C   UNL     1      43.864 -11.362   7.227  1.00  0.00     0.278 C 
ENDROOT
BRANCH   1   2
HETATM    2  C   UNL     1      43.269 -10.205   8.035  1.00  0.00     0.246 C 
HETATM    3  N   UNL     1      43.202 -10.486   9.390  1.00  0.00    -0.325 N 
HETATM    4  H   UNL     1      43.408 -11.450   9.638  1.00  0.00     0.169 HD
HETATM    5  O   UNL     1      42.990  -9.139   7.492  1.00  0.00    -0.271 OA
BRANCH   3   6
HETATM    6  C   UNL     1      42.906  -9.600  10.442  1.00  0.00     0.034 A 
HETATM    7  C   UNL     1      43.869  -9.054  11.294  1.00  0.00     0.030 A 
HETATM    8  C   UNL     1      43.494  -8.225  12.360  1.00  0.00     0.020 A 
HETATM    9  C   UNL     1      42.146  -7.932  12.588  1.00  0.00     0.039 A 
HETATM   10  C   UNL     1      41.179  -8.458  11.722  1.00  0.00     0.020 A 
HETATM   11  C   UNL     1      41.559  -9.284  10.657  1.00  0.00     0.030 A 
BRANCH   9  12
HETATM   12  C   UNL     1      41.692  -7.093  13.730  1.00  0.00     0.292 C 
HETATM   13  O   UNL     1      42.109  -5.967  13.946  1.00  0.00    -0.259 OA
BRANCH  12  14
HETATM   14  O   UNL     1      40.743  -7.741  14.452  1.00  0.00    -0.323 OA
HETATM   15  C   UNL     1      41.159  -8.101  15.770  1.00  0.00     0.213 C 
ENDBRANCH  12  14
ENDBRANCH   9  12
ENDBRANCH   3   6
ENDBRANCH   1   2
BRANCH   1  16
HETATM   16  O   UNL     1      42.857 -11.999   6.440  1.00  0.00    -0.342 OA
BRANCH  16  17
HETATM   17  C   UNL     1      43.159 -13.286   6.070  1.00  0.00     0.071 A 
HETATM   18  C   UNL     1      42.829 -13.630   4.754  1.00  0.00     0.067 A 
HETATM   19  C   UNL     1      43.057 -14.952   4.345  1.00  0.00     0.046 A 
HETATM   20  C   UNL     1      43.577 -15.924   5.197  1.00  0.00     0.003 A 
HETATM   21  N   UNL     1      42.840 -15.559   3.129  1.00  0.00    -0.355 N 
HETATM   22  C   UNL     1      43.896 -15.557   6.519  1.00  0.00     0.017 A 
HETATM   23  C   UNL     1      43.642 -17.151   4.464  1.00  0.00     0.003 A 
HETATM   24  C   UNL     1      43.677 -14.239   6.945  1.00  0.00     0.038 A 
HETATM   25  C   UNL     1      43.175 -16.892   3.177  1.00  0.00     0.043 A 
HETATM   26  C   UNL     1      44.048 -18.463   4.784  1.00  0.00     0.014 A 
HETATM   27  C   UNL     1      43.096 -17.881   2.188  1.00  0.00     0.030 A 
HETATM   28  C   UNL     1      43.502 -19.175   2.531  1.00  0.00     0.002 A 
HETATM   29  C   UNL     1      43.970 -19.465   3.810  1.00  0.00     0.001 A 
HETATM   30  H   UNL     1      42.470 -15.093   2.314  1.00  0.00     0.166 HD
ENDBRANCH  16  17
ENDBRANCH   1  16
TORSDOF 6
ENDMDL
MODEL 4
REMARK VINA RESULT:      -8.3      2.576     11.018
REMARK  6 active torsions:
REMARK  status: ('A' for Active; 'I' for Inactive)
REMARK    1  A    between atoms: O_2  and  C_3 
REMARK    2  A    between atoms: C_3  and  C_4 
REMARK    3  A    between atoms: C_7  and  N_8 
REMARK       I    between atoms: N_8  and  C_9 
REMARK    4  A    between atoms: C_9  and  C_10 
REMARK    5  A    between atoms: C_10  and  O_11 
REMARK    6  A    between atoms: O_11  and  C_12 
ROOT
HETATM    1  C   UNL     1      43.014 -11.245   6.869  1.00  0.00     0.278 C 
ENDROOT
BRANCH   1   2
HETATM    2  C   UNL     1      43.754 -12.551   6.567  1.00  0.00     0.246 C 
HETATM    3  N   UNL     1      42.899 -13.560   6.153  1.00  0.00    -0.325 N 
HETATM    4  H   UNL     1      41.910 -13.349   6.249  1.00  0.00     0.169 HD
HETATM    5  O   UNL     1      44.980 -12.602   6.616  1.00  0.00    -0.271 OA
BRANCH   3   6
HETATM    6  C   UNL     1      43.240 -14.810   5.605  1.00  0.00     0.034 A 
HETATM    7  C   UNL     1      43.018 -15.164   4.272  1.00  0.00     0.030 A 
HETATM    8  C   UNL     1      43.328 -16.450   3.811  1.00  0.00     0.020 A 
HETATM    9  C   UNL     1      43.866 -17.403   4.683  1.00  0.00     0.039 A 
HETATM   10  C   UNL     1      44.113 -17.045   6.013  1.00  0.00     0.020 A 
HETATM   11  C   UNL     1      43.803 -15.758   6.469  1.00  0.00     0.030 A 
BRANCH   9  12
HETATM   12  C   UNL     1      44.174 -18.795   4.254  1.00  0.00     0.292 C 
HETATM   13  O   UNL     1      44.331 -19.720   5.034  1.00  0.00    -0.259 OA
BRANCH  12  14
HETATM   14  O   UNL     1      44.216 -18.879   2.901  1.00  0.00    -0.323 OA
HETATM   15  C   UNL     1      43.639 -20.074   2.373  1.00  0.00     0.213 C 
ENDBRANCH  12  14
ENDBRANCH   9  12
ENDBRANCH   3   6
ENDBRANCH   1   2
BRANCH   1  16
HETATM   16  O   UNL     1      43.933 -10.219   7.246  1.00  0.00    -0.342 OA
BRANCH  16  17
HETATM   17  C   UNL     1      43.797  -9.786   8.541  1.00  0.00     0.071 A 
HETATM   18  C   UNL     1      42.513  -9.365   8.907  1.00  0.00     0.067 A 
HETATM   19  C   UNL     1      42.335  -8.853  10.200  1.00  0.00     0.046 A 
HETATM   20  C   UNL     1      43.380  -8.733  11.113  1.00  0.00     0.003 A 
HETATM   21  N   UNL     1      41.202  -8.380  10.823  1.00  0.00    -0.355 N 
HETATM   22  C   UNL     1      44.665  -9.157  10.721  1.00  0.00     0.017 A 
HETATM   23  C   UNL     1      42.848  -8.146  12.304  1.00  0.00     0.003 A 
HETATM   24  C   UNL     1      44.863  -9.675   9.433  1.00  0.00     0.038 A 
HETATM   25  C   UNL     1      41.487  -7.936  12.093  1.00  0.00     0.043 A 
HETATM   26  C   UNL     1      43.406  -7.764  13.542  1.00  0.00     0.014 A 
HETATM   27  C   UNL     1      40.650  -7.365  13.061  1.00  0.00     0.030 A 
HETATM   28  C   UNL     1      41.229  -6.992  14.279  1.00  0.00     0.002 A 
HETATM   29  C   UNL     1      42.587  -7.187  14.518  1.00  0.00     0.001 A 
HETATM   30  H   UNL     1      40.286  -8.349  10.400  1.00  0.00     0.166 HD
ENDBRANCH  16  17
ENDBRANCH   1  16
TORSDOF 6
ENDMDL
MODEL 5
REMARK VINA RESULT:      -8.2      6.730     10.121
REMARK  6 active torsions:
REMARK  status: ('A' for Active; 'I' for Inactive)
REMARK    1  A    between atoms: O_2  and  C_3 
REMARK    2  A    between atoms: C_3  and  C_4 
REMARK    3  A    between atoms: C_7  and  N_8 
REMARK       I    between atoms: N_8  and  C_9 
REMARK    4  A    between atoms: C_9  and  C_10 
REMARK    5  A    between atoms: C_10  and  O_11 
REMARK    6  A    between atoms: O_11  and  C_12 
ROOT
HETATM    1  C   UNL     1      41.507 -12.483   3.111  1.00  0.00     0.278 C 
ENDROOT
BRANCH   1   2
HETATM    2  C   UNL     1      40.998 -11.870   1.804  1.00  0.00     0.246 C 
HETATM    3  N   UNL     1      39.843 -12.483   1.346  1.00  0.00    -0.325 N 
HETATM    4  H   UNL     1      39.583 -13.331   1.842  1.00  0.00     0.169 HD
HETATM    5  O   UNL     1      41.547 -10.883   1.319  1.00  0.00    -0.271 OA
BRANCH   3   6
HETATM    6  C   UNL     1      38.996 -12.060   0.305  1.00  0.00     0.034 A 
HETATM    7  C   UNL     1      38.130 -10.969   0.400  1.00  0.00     0.030 A 
HETATM    8  C   UNL     1      37.269 -10.644  -0.657  1.00  0.00     0.020 A 
HETATM    9  C   UNL     1      37.264 -11.411  -1.826  1.00  0.00     0.039 A 
HETATM   10  C   UNL     1      38.147 -12.492  -1.935  1.00  0.00     0.020 A 
HETATM   11  C   UNL     1      39.006 -12.812  -0.877  1.00  0.00     0.030 A 
BRANCH   9  12
HETATM   12  C   UNL     1      36.341 -11.134  -2.960  1.00  0.00     0.292 C 
HETATM   13  O   UNL     1      36.109 -10.012  -3.382  1.00  0.00    -0.259 OA
BRANCH  12  14
HETATM   14  O   UNL     1      35.839 -12.291  -3.461  1.00  0.00    -0.323 OA
HETATM   15  C   UNL     1      34.574 -12.146  -4.108  1.00  0.00     0.213 C 
ENDBRANCH  12  14
ENDBRANCH   9  12
ENDBRANCH   3   6
ENDBRANCH   1   2
BRANCH   1  16
HETATM   16  O   UNL     1      42.840 -12.971   2.955  1.00  0.00    -0.342 OA
BRANCH  16  17
HETATM   17  C   UNL     1      42.937 -14.338   2.881  1.00  0.00     0.071 A 
HETATM   18  C   UNL     1      43.186 -14.993   4.093  1.00  0.00     0.067 A 
HETATM   19  C   UNL     1      43.358 -16.384   4.063  1.00  0.00     0.046 A 
HETATM   20  C   UNL     1      43.308 -17.124   2.883  1.00  0.00     0.003 A 
HETATM   21  N   UNL     1      43.603 -17.275   5.083  1.00  0.00    -0.355 N 
HETATM   22  C   UNL     1      43.063 -16.443   1.674  1.00  0.00     0.017 A 
HETATM   23  C   UNL     1      43.559 -18.491   3.219  1.00  0.00     0.003 A 
HETATM   24  C   UNL     1      42.886 -15.052   1.685  1.00  0.00     0.038 A 
HETATM   25  C   UNL     1      43.739 -18.555   4.599  1.00  0.00     0.043 A 
HETATM   26  C   UNL     1      43.658 -19.682   2.470  1.00  0.00     0.014 A 
HETATM   27  C   UNL     1      44.012 -19.753   5.272  1.00  0.00     0.030 A 
HETATM   28  C   UNL     1      44.108 -20.919   4.506  1.00  0.00     0.002 A 
HETATM   29  C   UNL     1      43.935 -20.887   3.125  1.00  0.00     0.001 A 
HETATM   30  H   UNL     1      43.686 -17.022   6.057  1.00  0.00     0.166 HD
ENDBRANCH  16  17
ENDBRANCH   1  16
TORSDOF 6
ENDMDL
MODEL 6
REMARK VINA RESULT:      -8.0      3.000      4.140
REMARK  6 active torsions:
REMARK  status: ('A' for Active; 'I' for Inactive)
REMARK    1  A    between atoms: O_2  and  C_3 
REMARK    2  A    between atoms: C_3  and  C_4 
REMARK    3  A    between atoms: C_7  and  N_8 
REMARK       I    between atoms: N_8  and  C_9 
REMARK    4  A    between atoms: C_9  and  C_10 
REMARK    5  A    between atoms: C_10  and  O_11 
REMARK    6  A    between atoms: O_11  and  C_12 
ROOT
HETATM    1  C   UNL     1      41.496 -12.550   2.431  1.00  0.00     0.278 C 
ENDROOT
BRANCH   1   2
HETATM    2  C   UNL     1      41.066 -11.414   3.363  1.00  0.00     0.246 C 
HETATM    3  N   UNL     1      41.085 -11.789   4.697  1.00  0.00    -0.325 N 
HETATM    4  H   UNL     1      41.229 -12.781   4.861  1.00  0.00     0.169 HD
HETATM    5  O   UNL     1      40.835 -10.292   2.919  1.00  0.00    -0.271 OA
BRANCH   3   6
HETATM    6  C   UNL     1      40.950 -10.962   5.828  1.00  0.00     0.034 A 
HETATM    7  C   UNL     1      42.027 -10.384   6.502  1.00  0.00     0.030 A 
HETATM    8  C   UNL     1      41.821  -9.621   7.660  1.00  0.00     0.020 A 
HETATM    9  C   UNL     1      40.528  -9.429   8.158  1.00  0.00     0.039 A 
HETATM   10  C   UNL     1      39.444  -9.987   7.472  1.00  0.00     0.020 A 
HETATM   11  C   UNL     1      39.655 -10.747   6.315  1.00  0.00     0.030 A 
BRANCH   9  12
HETATM   12  C   UNL     1      40.259  -8.663   9.406  1.00  0.00     0.292 C 
HETATM   13  O   UNL     1      39.240  -8.018   9.594  1.00  0.00    -0.259 OA
BRANCH  12  14
HETATM   14  O   UNL     1      41.276  -8.818  10.290  1.00  0.00    -0.323 OA
HETATM   15  C   UNL     1      40.985  -9.716  11.362  1.00  0.00     0.213 C 
ENDBRANCH  12  14
ENDBRANCH   9  12
ENDBRANCH   3   6
ENDBRANCH   1   2
BRANCH   1  16
HETATM   16  O   UNL     1      42.801 -13.018   2.772  1.00  0.00    -0.342 OA
BRANCH  16  17
HETATM   17  C   UNL     1      42.926 -14.385   2.784  1.00  0.00     0.071 A 
HETATM   18  C   UNL     1      43.093 -14.966   4.046  1.00  0.00     0.067 A 
HETATM   19  C   UNL     1      43.290 -16.352   4.109  1.00  0.00     0.046 A 
HETATM   20  C   UNL     1      43.343 -17.158   2.973  1.00  0.00     0.003 A 
HETATM   21  N   UNL     1      43.471 -17.179   5.194  1.00  0.00    -0.355 N 
HETATM   22  C   UNL     1      43.179 -16.550   1.712  1.00  0.00     0.017 A 
HETATM   23  C   UNL     1      43.590 -18.499   3.404  1.00  0.00     0.003 A 
HETATM   24  C   UNL     1      42.978 -15.165   1.630  1.00  0.00     0.038 A 
HETATM   25  C   UNL     1      43.666 -18.481   4.796  1.00  0.00     0.043 A 
HETATM   26  C   UNL     1      43.765 -19.727   2.734  1.00  0.00     0.014 A 
HETATM   27  C   UNL     1      43.906 -19.634   5.555  1.00  0.00     0.030 A 
HETATM   28  C   UNL     1      44.080 -20.839   4.866  1.00  0.00     0.002 A 
HETATM   29  C   UNL     1      44.012 -20.888   3.476  1.00  0.00     0.001 A 
HETATM   30  H   UNL     1      43.476 -16.871   6.155  1.00  0.00     0.166 HD
ENDBRANCH  16  17
ENDBRANCH   1  16
TORSDOF 6
ENDMDL
MODEL 7
REMARK VINA RESULT:      -8.0      2.455      3.880
REMARK  6 active torsions:
REMARK  status: ('A' for Active; 'I' for Inactive)
REMARK    1  A    between atoms: O_2  and  C_3 
REMARK    2  A    between atoms: C_3  and  C_4 
REMARK    3  A    between atoms: C_7  and  N_8 
REMARK       I    between atoms: N_8  and  C_9 
REMARK    4  A    between atoms: C_9  and  C_10 
REMARK    5  A    between atoms: C_10  and  O_11 
REMARK    6  A    between atoms: O_11  and  C_12 
ROOT
HETATM    1  C   UNL     1      39.891 -12.986   4.247  1.00  0.00     0.278 C 
ENDROOT
BRANCH   1   2
HETATM    2  C   UNL     1      40.211 -12.183   5.511  1.00  0.00     0.246 C 
HETATM    3  N   UNL     1      41.441 -11.550   5.438  1.00  0.00    -0.325 N 
HETATM    4  H   UNL     1      42.015 -11.819   4.643  1.00  0.00     0.169 HD
HETATM    5  O   UNL     1      39.383 -12.078   6.413  1.00  0.00    -0.271 OA
BRANCH   3   6
HETATM    6  C   UNL     1      41.966 -10.579   6.311  1.00  0.00     0.034 A 
HETATM    7  C   UNL     1      41.375  -9.335   6.538  1.00  0.00     0.030 A 
HETATM    8  C   UNL     1      41.988  -8.393   7.375  1.00  0.00     0.020 A 
HETATM    9  C   UNL     1      43.205  -8.688   7.998  1.00  0.00     0.039 A 
HETATM   10  C   UNL     1      43.789  -9.943   7.793  1.00  0.00     0.020 A 
HETATM   11  C   UNL     1      43.172 -10.881   6.956  1.00  0.00     0.030 A 
BRANCH   9  12
HETATM   12  C   UNL     1      43.918  -7.708   8.863  1.00  0.00     0.292 C 
HETATM   13  O   UNL     1      45.044  -7.299   8.631  1.00  0.00    -0.259 OA
BRANCH  12  14
HETATM   14  O   UNL     1      43.131  -7.326   9.900  1.00  0.00    -0.323 OA
HETATM   15  C   UNL     1      43.227  -8.171  11.047  1.00  0.00     0.213 C 
ENDBRANCH  12  14
ENDBRANCH   9  12
ENDBRANCH   3   6
ENDBRANCH   1   2
BRANCH   1  16
HETATM   16  O   UNL     1      41.057 -13.140   3.436  1.00  0.00    -0.342 OA
BRANCH  16  17
HETATM   17  C   UNL     1      41.417 -14.444   3.206  1.00  0.00     0.071 A 
HETATM   18  C   UNL     1      42.123 -15.068   4.241  1.00  0.00     0.067 A 
HETATM   19  C   UNL     1      42.572 -16.380   4.030  1.00  0.00     0.046 A 
HETATM   20  C   UNL     1      42.357 -17.066   2.837  1.00  0.00     0.003 A 
HETATM   21  N   UNL     1      43.271 -17.227   4.859  1.00  0.00    -0.355 N 
HETATM   22  C   UNL     1      41.650 -16.416   1.806  1.00  0.00     0.017 A 
HETATM   23  C   UNL     1      42.975 -18.350   2.960  1.00  0.00     0.003 A 
HETATM   24  C   UNL     1      41.191 -15.105   1.999  1.00  0.00     0.038 A 
HETATM   25  C   UNL     1      43.538 -18.422   4.233  1.00  0.00     0.043 A 
HETATM   26  C   UNL     1      43.114 -19.457   2.097  1.00  0.00     0.014 A 
HETATM   27  C   UNL     1      44.233 -19.549   4.691  1.00  0.00     0.030 A 
HETATM   28  C   UNL     1      44.360 -20.632   3.815  1.00  0.00     0.002 A 
HETATM   29  C   UNL     1      43.811 -20.589   2.536  1.00  0.00     0.001 A 
HETATM   30  H   UNL     1      43.563 -16.998   5.798  1.00  0.00     0.166 HD
ENDBRANCH  16  17
ENDBRANCH   1  16
TORSDOF 6
ENDMDL
MODEL 8
REMARK VINA RESULT:      -7.9      1.829      2.293
REMARK  6 active torsions:
REMARK  status: ('A' for Active; 'I' for Inactive)
REMARK    1  A    between atoms: O_2  and  C_3 
REMARK    2  A    between atoms: C_3  and  C_4 
REMARK    3  A    between atoms: C_7  and  N_8 
REMARK       I    between atoms: N_8  and  C_9 
REMARK    4  A    between atoms: C_9  and  C_10 
REMARK    5  A    between atoms: C_10  and  O_11 
REMARK    6  A    between atoms: O_11  and  C_12 
ROOT
HETATM    1  C   UNL     1      42.392 -12.009   5.377  1.00  0.00     0.278 C 
ENDROOT
BRANCH   1   2
HETATM    2  C   UNL     1      41.868 -11.030   6.431  1.00  0.00     0.246 C 
HETATM    3  N   UNL     1      42.863 -10.598   7.293  1.00  0.00    -0.325 N 
HETATM    4  H   UNL     1      43.748 -11.091   7.208  1.00  0.00     0.169 HD
HETATM    5  O   UNL     1      40.703 -10.641   6.400  1.00  0.00    -0.271 OA
BRANCH   3   6
HETATM    6  C   UNL     1      42.794  -9.559   8.240  1.00  0.00     0.034 A 
HETATM    7  C   UNL     1      42.580  -9.762   9.604  1.00  0.00     0.030 A 
HETATM    8  C   UNL     1      42.461  -8.675  10.480  1.00  0.00     0.020 A 
HETATM    9  C   UNL     1      42.556  -7.365   9.998  1.00  0.00     0.039 A 
HETATM   10  C   UNL     1      42.794  -7.158   8.634  1.00  0.00     0.020 A 
HETATM   11  C   UNL     1      42.914  -8.248   7.764  1.00  0.00     0.030 A 
BRANCH   9  12
HETATM   12  C   UNL     1      42.396  -6.176  10.878  1.00  0.00     0.292 C 
HETATM   13  O   UNL     1      42.714  -5.045  10.547  1.00  0.00    -0.259 OA
BRANCH  12  14
HETATM   14  O   UNL     1      41.825  -6.528  12.058  1.00  0.00    -0.323 OA
HETATM   15  C   UNL     1      42.385  -5.871  13.195  1.00  0.00     0.213 C 
ENDBRANCH  12  14
ENDBRANCH   9  12
ENDBRANCH   3   6
ENDBRANCH   1   2
BRANCH   1  16
HETATM   16  O   UNL     1      43.116 -13.076   5.993  1.00  0.00    -0.342 OA
BRANCH  16  17
HETATM   17  C   UNL     1      43.085 -14.257   5.294  1.00  0.00     0.071 A 
HETATM   18  C   UNL     1      43.511 -15.388   5.999  1.00  0.00     0.067 A 
HETATM   19  C   UNL     1      43.561 -16.609   5.312  1.00  0.00     0.046 A 
HETATM   20  C   UNL     1      43.223 -16.729   3.965  1.00  0.00     0.003 A 
HETATM   21  N   UNL     1      43.927 -17.863   5.746  1.00  0.00    -0.355 N 
HETATM   22  C   UNL     1      42.804 -15.575   3.273  1.00  0.00     0.017 A 
HETATM   23  C   UNL     1      43.423 -18.095   3.589  1.00  0.00     0.003 A 
HETATM   24  C   UNL     1      42.745 -14.346   3.945  1.00  0.00     0.038 A 
HETATM   25  C   UNL     1      43.863 -18.778   4.721  1.00  0.00     0.043 A 
HETATM   26  C   UNL     1      43.278 -18.810   2.383  1.00  0.00     0.014 A 
HETATM   27  C   UNL     1      44.163 -20.147   4.710  1.00  0.00     0.030 A 
HETATM   28  C   UNL     1      44.014 -20.833   3.500  1.00  0.00     0.002 A 
HETATM   29  C   UNL     1      43.579 -20.176   2.352  1.00  0.00     0.001 A 
HETATM   30  H   UNL     1      44.217 -18.081   6.688  1.00  0.00     0.166 HD
ENDBRANCH  16  17
ENDBRANCH   1  16
TORSDOF 6
ENDMDL
MODEL 9
REMARK VINA RESULT:      -7.9      5.662      9.590
REMARK  6 active torsions:
REMARK  status: ('A' for Active; 'I' for Inactive)
REMARK    1  A    between atoms: O_2  and  C_3 
REMARK    2  A    between atoms: C_3  and  C_4 
REMARK    3  A    between atoms: C_7  and  N_8 
REMARK       I    between atoms: N_8  and  C_9 
REMARK    4  A    between atoms: C_9  and  C_10 
REMARK    5  A    between atoms: C_10  and  O_11 
REMARK    6  A    between atoms: O_11  and  C_12 
ROOT
HETATM    1  C   UNL     1      39.442 -12.007   5.464  1.00  0.00     0.278 C 
ENDROOT
BRANCH   1   2
HETATM    2  C   UNL     1      40.566 -13.045   5.533  1.00  0.00     0.246 C 
HETATM    3  N   UNL     1      40.229 -14.230   4.900  1.00  0.00    -0.325 N 
HETATM    4  H   UNL     1      39.256 -14.304   4.618  1.00  0.00     0.169 HD
HETATM    5  O   UNL     1      41.654 -12.759   6.027  1.00  0.00    -0.271 OA
BRANCH   3   6
HETATM    6  C   UNL     1      41.073 -15.314   4.592  1.00  0.00     0.034 A 
HETATM    7  C   UNL     1      41.790 -16.039   5.546  1.00  0.00     0.030 A 
HETATM    8  C   UNL     1      42.659 -17.068   5.160  1.00  0.00     0.020 A 
HETATM    9  C   UNL     1      42.822 -17.385   3.807  1.00  0.00     0.039 A 
HETATM   10  C   UNL     1      42.086 -16.677   2.849  1.00  0.00     0.020 A 
HETATM   11  C   UNL     1      41.218 -15.651   3.241  1.00  0.00     0.030 A 
BRANCH   9  12
HETATM   12  C   UNL     1      43.763 -18.439   3.341  1.00  0.00     0.292 C 
HETATM   13  O   UNL     1      44.740 -18.799   3.977  1.00  0.00    -0.259 OA
BRANCH  12  14
HETATM   14  O   UNL     1      43.357 -18.948   2.149  1.00  0.00    -0.323 OA
HETATM   15  C   UNL     1      43.568 -20.354   2.014  1.00  0.00     0.213 C 
ENDBRANCH  12  14
ENDBRANCH   9  12
ENDBRANCH   3   6
ENDBRANCH   1   2
BRANCH   1  16
HETATM   16  O   UNL     1      39.877 -10.836   4.771  1.00  0.00    -0.342 OA
BRANCH  16  17
HETATM   17  C   UNL     1      40.076 -11.018   3.425  1.00  0.00     0.071 A 
HETATM   18  C   UNL     1      39.021 -11.625   2.734  1.00  0.00     0.067 A 
HETATM   19  C   UNL     1      39.199 -11.893   1.369  1.00  0.00     0.046 A 
HETATM   20  C   UNL     1      40.379 -11.596   0.692  1.00  0.00     0.003 A 
HETATM   21  N   UNL     1      38.344 -12.464   0.454  1.00  0.00    -0.355 N 
HETATM   22  C   UNL     1      41.431 -10.991   1.409  1.00  0.00     0.017 A 
HETATM   23  C   UNL     1      40.223 -12.033  -0.661  1.00  0.00     0.003 A 
HETATM   24  C   UNL     1      41.270 -10.714   2.773  1.00  0.00     0.038 A 
HETATM   25  C   UNL     1      38.943 -12.571  -0.780  1.00  0.00     0.043 A 
HETATM   26  C   UNL     1      41.060 -12.027  -1.796  1.00  0.00     0.014 A 
HETATM   27  C   UNL     1      38.453 -13.103  -1.980  1.00  0.00     0.030 A 
HETATM   28  C   UNL     1      39.305 -13.089  -3.090  1.00  0.00     0.002 A 
HETATM   29  C   UNL     1      40.590 -12.560  -3.002  1.00  0.00     0.001 A 
HETATM   30  H   UNL     1      37.408 -12.778   0.662  1.00  0.00     0.166 HD
ENDBRANCH  16  17
ENDBRANCH   1  16
TORSDOF 6
ENDMDL
MODEL 10
REMARK VINA RESULT:      -7.8      1.940      2.666
REMARK  6 active torsions:
REMARK  status: ('A' for Active; 'I' for Inactive)
REMARK    1  A    between atoms: O_2  and  C_3 
REMARK    2  A    between atoms: C_3  and  C_4 
REMARK    3  A    between atoms: C_7  and  N_8 
REMARK       I    between atoms: N_8  and  C_9 
REMARK    4  A    between atoms: C_9  and  C_10 
REMARK    5  A    between atoms: C_10  and  O_11 
REMARK    6  A    between atoms: O_11  and  C_12 
ROOT
HETATM    1  C   UNL     1      43.455 -10.206   7.509  1.00  0.00     0.278 C 
ENDROOT
BRANCH   1   2
HETATM    2  C   UNL     1      43.112  -9.226   8.634  1.00  0.00     0.246 C 
HETATM    3  N   UNL     1      42.470  -9.843   9.695  1.00  0.00    -0.325 N 
HETATM    4  H   UNL     1      42.186 -10.803   9.524  1.00  0.00     0.169 HD
HETATM    5  O   UNL     1      43.478  -8.055   8.578  1.00  0.00    -0.271 OA
BRANCH   3   6
HETATM    6  C   UNL     1      42.192  -9.306  10.966  1.00  0.00     0.034 A 
HETATM    7  C   UNL     1      43.173  -8.964  11.899  1.00  0.00     0.030 A 
HETATM    8  C   UNL     1      42.820  -8.492  13.170  1.00  0.00     0.020 A 
HETATM    9  C   UNL     1      41.473  -8.356  13.524  1.00  0.00     0.039 A 
HETATM   10  C   UNL     1      40.486  -8.675  12.584  1.00  0.00     0.020 A 
HETATM   11  C   UNL     1      40.845  -9.145  11.314  1.00  0.00     0.030 A 
BRANCH   9  12
HETATM   12  C   UNL     1      41.044  -7.899  14.874  1.00  0.00     0.292 C 
HETATM   13  O   UNL     1      41.589  -8.248  15.908  1.00  0.00    -0.259 OA
BRANCH  12  14
HETATM   14  O   UNL     1      40.005  -7.031  14.776  1.00  0.00    -0.323 OA
HETATM   15  C   UNL     1      39.835  -6.194  15.921  1.00  0.00     0.213 C 
ENDBRANCH  12  14
ENDBRANCH   9  12
ENDBRANCH   3   6
ENDBRANCH   1   2
BRANCH   1  16
HETATM   16  O   UNL     1      42.517 -10.096   6.438  1.00  0.00    -0.342 OA
BRANCH  16  17
HETATM   17  C   UNL     1      42.611 -11.092   5.499  1.00  0.00     0.071 A 
HETATM   18  C   UNL     1      42.437 -12.395   5.980  1.00  0.00     0.067 A 
HETATM   19  C   UNL     1      42.587 -13.454   5.074  1.00  0.00     0.046 A 
HETATM   20  C   UNL     1      42.918 -13.258   3.735  1.00  0.00     0.003 A 
HETATM   21  N   UNL     1      42.468 -14.812   5.262  1.00  0.00    -0.355 N 
HETATM   22  C   UNL     1      43.096 -11.939   3.273  1.00  0.00     0.017 A 
HETATM   23  C   UNL     1      43.022 -14.547   3.122  1.00  0.00     0.003 A 
HETATM   24  C   UNL     1      42.947 -10.866   4.164  1.00  0.00     0.038 A 
HETATM   25  C   UNL     1      42.736 -15.497   4.100  1.00  0.00     0.043 A 
HETATM   26  C   UNL     1      43.344 -14.991   1.823  1.00  0.00     0.014 A 
HETATM   27  C   UNL     1      42.753 -16.875   3.844  1.00  0.00     0.030 A 
HETATM   28  C   UNL     1      43.078 -17.289   2.548  1.00  0.00     0.002 A 
HETATM   29  C   UNL     1      43.371 -16.363   1.551  1.00  0.00     0.001 A 
HETATM   30  H   UNL     1      42.229 -15.251   6.140  1.00  0.00     0.166 HD
ENDBRANCH  16  17
ENDBRANCH   1  16
TORSDOF 6
ENDMDL
