MODEL 1
REMARK VINA RESULT:      -7.4      0.000      0.000
REMARK  6 active torsions:
REMARK  status: ('A' for Active; 'I' for Inactive)
REMARK    1  A    between atoms: N_4  and  C_5 
REMARK    2  A    between atoms: C_5  and  C_6 
REMARK    3  A    between atoms: C_6  and  C_7 
REMARK    4  A    between atoms: C_7  and  N_8 
REMARK       I    between atoms: N_8  and  C_9 
REMARK       I    between atoms: C_9  and  N_10 
REMARK    5  A    between atoms: N_10  and  C_11 
REMARK    6  A    between atoms: C_12  and  O_13 
ROOT
HETATM    1  N   UNL     1      40.036 -15.136   3.111  1.00  0.00    -0.343 N 
HETATM    2  C   UNL     1      40.369 -15.021   1.778  1.00  0.00     0.320 C 
HETATM    3  N   UNL     1      39.580 -14.068   1.163  1.00  0.00    -0.306 N 
HETATM    4  O   UNL     1      41.206 -15.730   1.234  1.00  0.00    -0.247 OA
HETATM    5  H   UNL     1      39.733 -14.277   3.558  1.00  0.00     0.164 HD
HETATM    6  H   UNL     1      38.618 -14.122   1.465  1.00  0.00     0.171 HD
ENDROOT
BRANCH   1   7
HETATM    7  C   UNL     1      40.693 -16.099   3.970  1.00  0.00     0.126 C 
BRANCH   7   8
HETATM    8  C   UNL     1      41.925 -15.559   4.700  1.00  0.00     0.041 C 
BRANCH   8   9
HETATM    9  C   UNL     1      43.252 -15.851   4.007  1.00  0.00     0.152 C 
BRANCH   9  10
HETATM   10  N   UNL     1      43.484 -17.265   3.793  1.00  0.00    -0.279 N 
HETATM   11  N   UNL     1      43.809 -18.060   4.834  1.00  0.00    -0.176 NA
HETATM   12  C   UNL     1      43.968 -19.270   4.274  1.00  0.00     0.074 A 
HETATM   13  C   UNL     1      44.360 -20.437   5.100  1.00  0.00     0.074 C 
HETATM   14  C   UNL     1      43.724 -19.233   2.880  1.00  0.00     0.077 A 
HETATM   15  C   UNL     1      43.411 -17.926   2.602  1.00  0.00     0.138 A 
HETATM   16 CL   UNL     1      43.805 -20.528   1.793  1.00  0.00    -0.081 Cl
ENDBRANCH   9  10
ENDBRANCH   8   9
ENDBRANCH   7   8
ENDBRANCH   1   7
BRANCH   3  17
HETATM   17  C   UNL     1      39.823 -13.617  -0.154  1.00  0.00     0.071 A 
HETATM   18  C   UNL     1      40.754 -12.595  -0.447  1.00  0.00     0.095 A 
HETATM   19  C   UNL     1      40.967 -12.228  -1.781  1.00  0.00     0.041 A 
HETATM   20  C   UNL     1      40.251 -12.848  -2.809  1.00  0.00     0.026 A 
HETATM   21  C   UNL     1      39.302 -13.819  -2.505  1.00  0.00     0.036 A 
HETATM   22 CL   UNL     1      38.408 -14.564  -3.773  1.00  0.00    -0.084 Cl
HETATM   23  C   UNL     1      39.073 -14.196  -1.184  1.00  0.00     0.056 A 
BRANCH  18  24
HETATM   24  O   UNL     1      41.319 -11.948   0.622  1.00  0.00    -0.354 OA
HETATM   25  C   UNL     1      40.956 -10.590   0.832  1.00  0.00     0.210 C 
ENDBRANCH  18  24
ENDBRANCH   3  17
TORSDOF 6
ENDMDL
MODEL 2
REMARK VINA RESULT:      -7.4      2.064      7.733
REMARK  6 active torsions:
REMARK  status: ('A' for Active; 'I' for Inactive)
REMARK    1  A    between atoms: N_4  and  C_5 
REMARK    2  A    between atoms: C_5  and  C_6 
REMARK    3  A    between atoms: C_6  and  C_7 
REMARK    4  A    between atoms: C_7  and  N_8 
REMARK       I    between atoms: N_8  and  C_9 
REMARK       I    between atoms: C_9  and  N_10 
REMARK    5  A    between atoms: N_10  and  C_11 
REMARK    6  A    between atoms: C_12  and  O_13 
ROOT
HETATM    1  N   UNL     1      41.569 -14.120   3.663  1.00  0.00    -0.343 N 
HETATM    2  C   UNL     1      41.646 -15.491   3.787  1.00  0.00     0.320 C 
HETATM    3  N   UNL     1      42.928 -15.930   3.524  1.00  0.00    -0.306 N 
HETATM    4  O   UNL     1      40.674 -16.196   4.031  1.00  0.00    -0.247 OA
HETATM    5  H   UNL     1      42.407 -13.614   3.928  1.00  0.00     0.164 HD
HETATM    6  H   UNL     1      43.339 -15.447   2.738  1.00  0.00     0.171 HD
ENDROOT
BRANCH   1   7
HETATM    7  C   UNL     1      40.317 -13.417   3.849  1.00  0.00     0.126 C 
BRANCH   7   8
HETATM    8  C   UNL     1      39.528 -13.178   2.560  1.00  0.00     0.041 C 
BRANCH   8   9
HETATM    9  C   UNL     1      40.381 -13.107   1.297  1.00  0.00     0.152 C 
BRANCH   9  10
HETATM   10  N   UNL     1      39.604 -13.215   0.079  1.00  0.00    -0.279 N 
HETATM   11  N   UNL     1      39.707 -14.319  -0.690  1.00  0.00    -0.176 NA
HETATM   12  C   UNL     1      38.885 -14.067  -1.721  1.00  0.00     0.074 A 
HETATM   13  C   UNL     1      38.732 -15.050  -2.821  1.00  0.00     0.074 C 
HETATM   14  C   UNL     1      38.253 -12.807  -1.586  1.00  0.00     0.077 A 
HETATM   15  C   UNL     1      38.736 -12.285  -0.413  1.00  0.00     0.138 A 
HETATM   16 CL   UNL     1      37.142 -12.101  -2.649  1.00  0.00    -0.081 Cl
ENDBRANCH   9  10
ENDBRANCH   8   9
ENDBRANCH   7   8
ENDBRANCH   1   7
BRANCH   3  17
HETATM   17  C   UNL     1      43.336 -17.265   3.751  1.00  0.00     0.071 A 
HETATM   18  C   UNL     1      43.774 -17.720   5.015  1.00  0.00     0.095 A 
HETATM   19  C   UNL     1      44.126 -19.066   5.170  1.00  0.00     0.041 A 
HETATM   20  C   UNL     1      44.067 -19.943   4.084  1.00  0.00     0.026 A 
HETATM   21  C   UNL     1      43.680 -19.473   2.833  1.00  0.00     0.036 A 
HETATM   22 CL   UNL     1      43.630 -20.553   1.494  1.00  0.00    -0.084 Cl
HETATM   23  C   UNL     1      43.329 -18.137   2.656  1.00  0.00     0.056 A 
BRANCH  18  24
HETATM   24  O   UNL     1      43.929 -16.773   5.994  1.00  0.00    -0.354 OA
HETATM   25  C   UNL     1      42.996 -16.782   7.066  1.00  0.00     0.210 C 
ENDBRANCH  18  24
ENDBRANCH   3  17
TORSDOF 6
ENDMDL
MODEL 3
REMARK VINA RESULT:      -7.2      3.337      7.207
REMARK  6 active torsions:
REMARK  status: ('A' for Active; 'I' for Inactive)
REMARK    1  A    between atoms: N_4  and  C_5 
REMARK    2  A    between atoms: C_5  and  C_6 
REMARK    3  A    between atoms: C_6  and  C_7 
REMARK    4  A    between atoms: C_7  and  N_8 
REMARK       I    between atoms: N_8  and  C_9 
REMARK       I    between atoms: C_9  and  N_10 
REMARK    5  A    between atoms: N_10  and  C_11 
REMARK    6  A    between atoms: C_12  and  O_13 
ROOT
HETATM    1  N   UNL     1      41.326 -14.916   0.409  1.00  0.00    -0.343 N 
HETATM    2  C   UNL     1      41.441 -15.671   1.557  1.00  0.00     0.320 C 
HETATM    3  N   UNL     1      42.760 -16.016   1.779  1.00  0.00    -0.306 N 
HETATM    4  O   UNL     1      40.477 -16.026   2.224  1.00  0.00    -0.247 OA
HETATM    5  H   UNL     1      42.112 -14.307   0.211  1.00  0.00     0.164 HD
HETATM    6  H   UNL     1      43.231 -16.277   0.925  1.00  0.00     0.171 HD
ENDROOT
BRANCH   1   7
HETATM    7  C   UNL     1      40.036 -14.462  -0.065  1.00  0.00     0.126 C 
BRANCH   7   8
HETATM    8  C   UNL     1      39.874 -12.940  -0.100  1.00  0.00     0.041 C 
BRANCH   8   9
HETATM    9  C   UNL     1      39.338 -12.330   1.191  1.00  0.00     0.152 C 
BRANCH   9  10
HETATM   10  N   UNL     1      40.283 -12.396   2.288  1.00  0.00    -0.279 N 
HETATM   11  N   UNL     1      41.578 -12.077   2.081  1.00  0.00    -0.176 NA
HETATM   12  C   UNL     1      42.149 -12.271   3.281  1.00  0.00     0.074 A 
HETATM   13  C   UNL     1      43.602 -12.046   3.468  1.00  0.00     0.074 C 
HETATM   14  C   UNL     1      41.202 -12.695   4.244  1.00  0.00     0.077 A 
HETATM   15  C   UNL     1      40.008 -12.763   3.573  1.00  0.00     0.138 A 
HETATM   16 CL   UNL     1      41.490 -13.045   5.875  1.00  0.00    -0.081 Cl
ENDBRANCH   9  10
ENDBRANCH   8   9
ENDBRANCH   7   8
ENDBRANCH   1   7
BRANCH   3  17
HETATM   17  C   UNL     1      43.192 -16.634   2.975  1.00  0.00     0.071 A 
HETATM   18  C   UNL     1      43.420 -18.025   3.071  1.00  0.00     0.095 A 
HETATM   19  C   UNL     1      43.883 -18.559   4.280  1.00  0.00     0.041 A 
HETATM   20  C   UNL     1      44.095 -17.729   5.385  1.00  0.00     0.026 A 
HETATM   21  C   UNL     1      43.820 -16.368   5.293  1.00  0.00     0.036 A 
HETATM   22 CL   UNL     1      44.061 -15.355   6.663  1.00  0.00    -0.084 Cl
HETATM   23  C   UNL     1      43.355 -15.818   4.101  1.00  0.00     0.056 A 
BRANCH  18  24
HETATM   24  O   UNL     1      43.067 -18.787   1.987  1.00  0.00    -0.354 OA
HETATM   25  C   UNL     1      43.375 -20.173   2.032  1.00  0.00     0.210 C 
ENDBRANCH  18  24
ENDBRANCH   3  17
TORSDOF 6
ENDMDL
MODEL 4
REMARK VINA RESULT:      -7.0      2.525      8.352
REMARK  6 active torsions:
REMARK  status: ('A' for Active; 'I' for Inactive)
REMARK    1  A    between atoms: N_4  and  C_5 
REMARK    2  A    between atoms: C_5  and  C_6 
REMARK    3  A    between atoms: C_6  and  C_7 
REMARK    4  A    between atoms: C_7  and  N_8 
REMARK       I    between atoms: N_8  and  C_9 
REMARK       I    between atoms: C_9  and  N_10 
REMARK    5  A    between atoms: N_10  and  C_11 
REMARK    6  A    between atoms: C_12  and  O_13 
ROOT
HETATM    1  N   UNL     1      41.198 -14.219   0.291  1.00  0.00    -0.343 N 
HETATM    2  C   UNL     1      41.319 -15.255   1.192  1.00  0.00     0.320 C 
HETATM    3  N   UNL     1      42.650 -15.542   1.424  1.00  0.00    -0.306 N 
HETATM    4  O   UNL     1      40.357 -15.859   1.651  1.00  0.00    -0.247 OA
HETATM    5  H   UNL     1      41.930 -13.518   0.337  1.00  0.00     0.164 HD
HETATM    6  H   UNL     1      43.196 -15.514   0.575  1.00  0.00     0.171 HD
ENDROOT
BRANCH   1   7
HETATM    7  C   UNL     1      39.900 -13.753  -0.150  1.00  0.00     0.126 C 
BRANCH   7   8
HETATM    8  C   UNL     1      39.365 -14.460  -1.397  1.00  0.00     0.041 C 
BRANCH   8   9
HETATM    9  C   UNL     1      40.015 -14.018  -2.705  1.00  0.00     0.152 C 
BRANCH   9  10
HETATM   10  N   UNL     1      39.938 -12.587  -2.924  1.00  0.00    -0.279 N 
HETATM   11  N   UNL     1      38.734 -11.978  -2.978  1.00  0.00    -0.176 NA
HETATM   12  C   UNL     1      39.040 -10.692  -3.212  1.00  0.00     0.074 A 
HETATM   13  C   UNL     1      37.967  -9.679  -3.364  1.00  0.00     0.074 C 
HETATM   14  C   UNL     1      40.439 -10.495  -3.286  1.00  0.00     0.077 A 
HETATM   15  C   UNL     1      40.990 -11.737  -3.093  1.00  0.00     0.138 A 
HETATM   16 CL   UNL     1      41.253  -9.036  -3.558  1.00  0.00    -0.081 Cl
ENDBRANCH   9  10
ENDBRANCH   8   9
ENDBRANCH   7   8
ENDBRANCH   1   7
BRANCH   3  17
HETATM   17  C   UNL     1      43.069 -16.436   2.436  1.00  0.00     0.071 A 
HETATM   18  C   UNL     1      43.310 -16.020   3.765  1.00  0.00     0.095 A 
HETATM   19  C   UNL     1      43.687 -16.971   4.720  1.00  0.00     0.041 A 
HETATM   20  C   UNL     1      43.845 -18.312   4.360  1.00  0.00     0.026 A 
HETATM   21  C   UNL     1      43.652 -18.703   3.038  1.00  0.00     0.036 A 
HETATM   22 CL   UNL     1      43.869 -20.352   2.595  1.00  0.00    -0.084 Cl
HETATM   23  C   UNL     1      43.280 -17.771   2.072  1.00  0.00     0.056 A 
BRANCH  18  24
HETATM   24  O   UNL     1      43.261 -14.671   4.009  1.00  0.00    -0.354 OA
HETATM   25  C   UNL     1      42.183 -14.188   4.799  1.00  0.00     0.210 C 
ENDBRANCH  18  24
ENDBRANCH   3  17
TORSDOF 6
ENDMDL
MODEL 5
REMARK VINA RESULT:      -7.0      4.071      7.344
REMARK  6 active torsions:
REMARK  status: ('A' for Active; 'I' for Inactive)
REMARK    1  A    between atoms: N_4  and  C_5 
REMARK    2  A    between atoms: C_5  and  C_6 
REMARK    3  A    between atoms: C_6  and  C_7 
REMARK    4  A    between atoms: C_7  and  N_8 
REMARK       I    between atoms: N_8  and  C_9 
REMARK       I    between atoms: C_9  and  N_10 
REMARK    5  A    between atoms: N_10  and  C_11 
REMARK    6  A    between atoms: C_12  and  O_13 
ROOT
HETATM    1  N   UNL     1      41.095 -14.020   3.021  1.00  0.00    -0.343 N 
HETATM    2  C   UNL     1      41.306 -15.360   3.271  1.00  0.00     0.320 C 
HETATM    3  N   UNL     1      42.625 -15.694   3.034  1.00  0.00    -0.306 N 
HETATM    4  O   UNL     1      40.410 -16.130   3.593  1.00  0.00    -0.247 OA
HETATM    5  H   UNL     1      41.880 -13.412   3.227  1.00  0.00     0.164 HD
HETATM    6  H   UNL     1      42.984 -15.249   2.201  1.00  0.00     0.171 HD
ENDROOT
BRANCH   1   7
HETATM    7  C   UNL     1      39.781 -13.428   3.157  1.00  0.00     0.126 C 
BRANCH   7   8
HETATM    8  C   UNL     1      39.631 -12.488   4.356  1.00  0.00     0.041 C 
BRANCH   8   9
HETATM    9  C   UNL     1      40.426 -11.191   4.248  1.00  0.00     0.152 C 
BRANCH   9  10
HETATM   10  N   UNL     1      41.523 -11.114   5.192  1.00  0.00    -0.279 N 
HETATM   11  N   UNL     1      42.380 -12.150   5.315  1.00  0.00    -0.176 NA
HETATM   12  C   UNL     1      43.230 -11.747   6.273  1.00  0.00     0.074 A 
HETATM   13  C   UNL     1      44.331 -12.633   6.723  1.00  0.00     0.074 C 
HETATM   14  C   UNL     1      42.912 -10.448   6.738  1.00  0.00     0.077 A 
HETATM   15  C   UNL     1      41.808 -10.067   6.018  1.00  0.00     0.138 A 
HETATM   16 CL   UNL     1      43.723  -9.562   7.929  1.00  0.00    -0.081 Cl
ENDBRANCH   9  10
ENDBRANCH   8   9
ENDBRANCH   7   8
ENDBRANCH   1   7
BRANCH   3  17
HETATM   17  C   UNL     1      43.163 -16.955   3.379  1.00  0.00     0.071 A 
HETATM   18  C   UNL     1      43.737 -17.215   4.644  1.00  0.00     0.095 A 
HETATM   19  C   UNL     1      44.215 -18.501   4.924  1.00  0.00     0.041 A 
HETATM   20  C   UNL     1      44.146 -19.508   3.958  1.00  0.00     0.026 A 
HETATM   21  C   UNL     1      43.623 -19.228   2.700  1.00  0.00     0.036 A 
HETATM   22 CL   UNL     1      43.561 -20.466   1.507  1.00  0.00    -0.084 Cl
HETATM   23  C   UNL     1      43.146 -17.955   2.399  1.00  0.00     0.056 A 
BRANCH  18  24
HETATM   24  O   UNL     1      43.885 -16.145   5.488  1.00  0.00    -0.354 OA
HETATM   25  C   UNL     1      44.605 -16.358   6.695  1.00  0.00     0.210 C 
ENDBRANCH  18  24
ENDBRANCH   3  17
TORSDOF 6
ENDMDL
MODEL 6
REMARK VINA RESULT:      -6.9      2.753      3.860
REMARK  6 active torsions:
REMARK  status: ('A' for Active; 'I' for Inactive)
REMARK    1  A    between atoms: N_4  and  C_5 
REMARK    2  A    between atoms: C_5  and  C_6 
REMARK    3  A    between atoms: C_6  and  C_7 
REMARK    4  A    between atoms: C_7  and  N_8 
REMARK       I    between atoms: N_8  and  C_9 
REMARK       I    between atoms: C_9  and  N_10 
REMARK    5  A    between atoms: N_10  and  C_11 
REMARK    6  A    between atoms: C_12  and  O_13 
ROOT
HETATM    1  N   UNL     1      41.662 -15.593   6.687  1.00  0.00    -0.343 N 
HETATM    2  C   UNL     1      41.637 -14.730   5.612  1.00  0.00     0.320 C 
HETATM    3  N   UNL     1      40.448 -14.853   4.920  1.00  0.00    -0.306 N 
HETATM    4  O   UNL     1      42.584 -14.017   5.304  1.00  0.00    -0.247 OA
HETATM    5  H   UNL     1      40.764 -15.762   7.128  1.00  0.00     0.164 HD
HETATM    6  H   UNL     1      40.161 -15.818   4.831  1.00  0.00     0.171 HD
ENDROOT
BRANCH   1   7
HETATM    7  C   UNL     1      42.820 -15.684   7.551  1.00  0.00     0.126 C 
BRANCH   7   8
HETATM    8  C   UNL     1      43.966 -16.526   6.985  1.00  0.00     0.041 C 
BRANCH   8   9
HETATM    9  C   UNL     1      43.578 -17.950   6.600  1.00  0.00     0.152 C 
BRANCH   9  10
HETATM   10  N   UNL     1      43.601 -18.180   5.169  1.00  0.00    -0.279 N 
HETATM   11  N   UNL     1      43.357 -17.159   4.319  1.00  0.00    -0.176 NA
HETATM   12  C   UNL     1      43.437 -17.730   3.106  1.00  0.00     0.074 A 
HETATM   13  C   UNL     1      43.203 -16.929   1.880  1.00  0.00     0.074 C 
HETATM   14  C   UNL     1      43.749 -19.108   3.199  1.00  0.00     0.077 A 
HETATM   15  C   UNL     1      43.852 -19.365   4.543  1.00  0.00     0.138 A 
HETATM   16 CL   UNL     1      43.949 -20.199   1.922  1.00  0.00    -0.081 Cl
ENDBRANCH   9  10
ENDBRANCH   8   9
ENDBRANCH   7   8
ENDBRANCH   1   7
BRANCH   3  17
HETATM   17  C   UNL     1      40.077 -13.966   3.883  1.00  0.00     0.071 A 
HETATM   18  C   UNL     1      39.449 -12.726   4.134  1.00  0.00     0.095 A 
HETATM   19  C   UNL     1      39.145 -11.885   3.057  1.00  0.00     0.041 A 
HETATM   20  C   UNL     1      39.439 -12.277   1.748  1.00  0.00     0.026 A 
HETATM   21  C   UNL     1      40.014 -13.522   1.509  1.00  0.00     0.036 A 
HETATM   22 CL   UNL     1      40.354 -14.009  -0.106  1.00  0.00    -0.084 Cl
HETATM   23  C   UNL     1      40.320 -14.375   2.567  1.00  0.00     0.056 A 
BRANCH  18  24
HETATM   24  O   UNL     1      39.076 -12.471   5.429  1.00  0.00    -0.354 OA
HETATM   25  C   UNL     1      39.787 -11.458   6.127  1.00  0.00     0.210 C 
ENDBRANCH  18  24
ENDBRANCH   3  17
TORSDOF 6
ENDMDL
MODEL 7
REMARK VINA RESULT:      -6.8      7.778      9.874
REMARK  6 active torsions:
REMARK  status: ('A' for Active; 'I' for Inactive)
REMARK    1  A    between atoms: N_4  and  C_5 
REMARK    2  A    between atoms: C_5  and  C_6 
REMARK    3  A    between atoms: C_6  and  C_7 
REMARK    4  A    between atoms: C_7  and  N_8 
REMARK       I    between atoms: N_8  and  C_9 
REMARK       I    between atoms: C_9  and  N_10 
REMARK    5  A    between atoms: N_10  and  C_11 
REMARK    6  A    between atoms: C_12  and  O_13 
ROOT
HETATM    1  N   UNL     1      43.569 -11.353   8.217  1.00  0.00    -0.343 N 
HETATM    2  C   UNL     1      43.982 -12.213   7.222  1.00  0.00     0.320 C 
HETATM    3  N   UNL     1      43.004 -13.152   6.957  1.00  0.00    -0.306 N 
HETATM    4  O   UNL     1      45.096 -12.165   6.715  1.00  0.00    -0.247 OA
HETATM    5  H   UNL     1      42.574 -11.155   8.233  1.00  0.00     0.164 HD
HETATM    6  H   UNL     1      42.566 -13.491   7.802  1.00  0.00     0.171 HD
ENDROOT
BRANCH   1   7
HETATM    7  C   UNL     1      44.433 -10.300   8.707  1.00  0.00     0.126 C 
BRANCH   7   8
HETATM    8  C   UNL     1      44.603 -10.278  10.228  1.00  0.00     0.041 C 
BRANCH   8   9
HETATM    9  C   UNL     1      44.149  -8.985  10.899  1.00  0.00     0.152 C 
BRANCH   9  10
HETATM   10  N   UNL     1      43.061  -9.180  11.835  1.00  0.00    -0.279 N 
HETATM   11  N   UNL     1      43.062  -8.526  13.016  1.00  0.00    -0.176 NA
HETATM   12  C   UNL     1      41.943  -8.956  13.619  1.00  0.00     0.074 A 
HETATM   13  C   UNL     1      41.588  -8.478  14.977  1.00  0.00     0.074 C 
HETATM   14  C   UNL     1      41.231  -9.869  12.805  1.00  0.00     0.077 A 
HETATM   15  C   UNL     1      41.977  -9.989  11.659  1.00  0.00     0.138 A 
HETATM   16 CL   UNL     1      39.773 -10.645  13.172  1.00  0.00    -0.081 Cl
ENDBRANCH   9  10
ENDBRANCH   8   9
ENDBRANCH   7   8
ENDBRANCH   1   7
BRANCH   3  17
HETATM   17  C   UNL     1      43.084 -14.044   5.863  1.00  0.00     0.071 A 
HETATM   18  C   UNL     1      42.815 -13.643   4.535  1.00  0.00     0.095 A 
HETATM   19  C   UNL     1      42.952 -14.576   3.500  1.00  0.00     0.041 A 
HETATM   20  C   UNL     1      43.329 -15.893   3.779  1.00  0.00     0.026 A 
HETATM   21  C   UNL     1      43.545 -16.288   5.096  1.00  0.00     0.036 A 
HETATM   22 CL   UNL     1      43.987 -17.916   5.436  1.00  0.00    -0.084 Cl
HETATM   23  C   UNL     1      43.410 -15.377   6.140  1.00  0.00     0.056 A 
BRANCH  18  24
HETATM   24  O   UNL     1      42.326 -12.374   4.358  1.00  0.00    -0.354 OA
HETATM   25  C   UNL     1      42.957 -11.560   3.380  1.00  0.00     0.210 C 
ENDBRANCH  18  24
ENDBRANCH   3  17
TORSDOF 6
ENDMDL
MODEL 8
REMARK VINA RESULT:      -6.7      2.453      7.863
REMARK  6 active torsions:
REMARK  status: ('A' for Active; 'I' for Inactive)
REMARK    1  A    between atoms: N_4  and  C_5 
REMARK    2  A    between atoms: C_5  and  C_6 
REMARK    3  A    between atoms: C_6  and  C_7 
REMARK    4  A    between atoms: C_7  and  N_8 
REMARK       I    between atoms: N_8  and  C_9 
REMARK       I    between atoms: C_9  and  N_10 
REMARK    5  A    between atoms: N_10  and  C_11 
REMARK    6  A    between atoms: C_12  and  O_13 
ROOT
HETATM    1  N   UNL     1      41.450 -14.077   3.432  1.00  0.00    -0.343 N 
HETATM    2  C   UNL     1      41.565 -15.443   3.580  1.00  0.00     0.320 C 
HETATM    3  N   UNL     1      42.875 -15.841   3.396  1.00  0.00    -0.306 N 
HETATM    4  O   UNL     1      40.606 -16.177   3.780  1.00  0.00    -0.247 OA
HETATM    5  H   UNL     1      42.255 -13.539   3.736  1.00  0.00     0.164 HD
HETATM    6  H   UNL     1      43.313 -15.354   2.627  1.00  0.00     0.171 HD
ENDROOT
BRANCH   1   7
HETATM    7  C   UNL     1      40.167 -13.415   3.538  1.00  0.00     0.126 C 
BRANCH   7   8
HETATM    8  C   UNL     1      40.173 -11.950   3.094  1.00  0.00     0.041 C 
BRANCH   8   9
HETATM    9  C   UNL     1      41.500 -11.467   2.517  1.00  0.00     0.152 C 
BRANCH   9  10
HETATM   10  N   UNL     1      41.434 -11.185   1.097  1.00  0.00    -0.279 N 
HETATM   11  N   UNL     1      41.900 -10.011   0.621  1.00  0.00    -0.176 NA
HETATM   12  C   UNL     1      41.662 -10.087  -0.698  1.00  0.00     0.074 A 
HETATM   13  C   UNL     1      42.017  -8.958  -1.593  1.00  0.00     0.074 C 
HETATM   14  C   UNL     1      41.061 -11.319  -1.049  1.00  0.00     0.077 A 
HETATM   15  C   UNL     1      40.931 -12.007   0.132  1.00  0.00     0.138 A 
HETATM   16 CL   UNL     1      40.601 -11.830  -2.595  1.00  0.00    -0.081 Cl
ENDBRANCH   9  10
ENDBRANCH   8   9
ENDBRANCH   7   8
ENDBRANCH   1   7
BRANCH   3  17
HETATM   17  C   UNL     1      43.313 -17.158   3.665  1.00  0.00     0.071 A 
HETATM   18  C   UNL     1      43.786 -17.556   4.936  1.00  0.00     0.095 A 
HETATM   19  C   UNL     1      44.168 -18.888   5.135  1.00  0.00     0.041 A 
HETATM   20  C   UNL     1      44.104 -19.807   4.085  1.00  0.00     0.026 A 
HETATM   21  C   UNL     1      43.684 -19.393   2.825  1.00  0.00     0.036 A 
HETATM   22 CL   UNL     1      43.628 -20.524   1.529  1.00  0.00    -0.084 Cl
HETATM   23  C   UNL     1      43.303 -18.071   2.605  1.00  0.00     0.056 A 
BRANCH  18  24
HETATM   24  O   UNL     1      43.940 -16.569   5.876  1.00  0.00    -0.354 OA
HETATM   25  C   UNL     1      43.162 -16.665   7.060  1.00  0.00     0.210 C 
ENDBRANCH  18  24
ENDBRANCH   3  17
TORSDOF 6
ENDMDL
MODEL 9
REMARK VINA RESULT:      -6.7      3.239      6.928
REMARK  6 active torsions:
REMARK  status: ('A' for Active; 'I' for Inactive)
REMARK    1  A    between atoms: N_4  and  C_5 
REMARK    2  A    between atoms: C_5  and  C_6 
REMARK    3  A    between atoms: C_6  and  C_7 
REMARK    4  A    between atoms: C_7  and  N_8 
REMARK       I    between atoms: N_8  and  C_9 
REMARK       I    between atoms: C_9  and  N_10 
REMARK    5  A    between atoms: N_10  and  C_11 
REMARK    6  A    between atoms: C_12  and  O_13 
ROOT
HETATM    1  N   UNL     1      40.797 -14.142   1.392  1.00  0.00    -0.343 N 
HETATM    2  C   UNL     1      41.929 -14.770   1.865  1.00  0.00     0.320 C 
HETATM    3  N   UNL     1      41.590 -15.783   2.741  1.00  0.00    -0.306 N 
HETATM    4  O   UNL     1      43.064 -14.408   1.580  1.00  0.00    -0.247 OA
HETATM    5  H   UNL     1      39.984 -14.740   1.281  1.00  0.00     0.164 HD
HETATM    6  H   UNL     1      40.838 -15.513   3.359  1.00  0.00     0.171 HD
ENDROOT
BRANCH   1   7
HETATM    7  C   UNL     1      40.884 -13.016   0.486  1.00  0.00     0.126 C 
BRANCH   7   8
HETATM    8  C   UNL     1      40.630 -11.656   1.141  1.00  0.00     0.041 C 
BRANCH   8   9
HETATM    9  C   UNL     1      41.889 -10.931   1.607  1.00  0.00     0.152 C 
BRANCH   9  10
HETATM   10  N   UNL     1      42.216 -11.192   2.995  1.00  0.00    -0.279 N 
HETATM   11  N   UNL     1      41.244 -11.169   3.931  1.00  0.00    -0.176 NA
HETATM   12  C   UNL     1      41.899 -11.424   5.075  1.00  0.00     0.074 A 
HETATM   13  C   UNL     1      41.171 -11.463   6.367  1.00  0.00     0.074 C 
HETATM   14  C   UNL     1      43.282 -11.624   4.849  1.00  0.00     0.077 A 
HETATM   15  C   UNL     1      43.453 -11.471   3.496  1.00  0.00     0.138 A 
HETATM   16 CL   UNL     1      44.466 -11.975   6.005  1.00  0.00    -0.081 Cl
ENDBRANCH   9  10
ENDBRANCH   8   9
ENDBRANCH   7   8
ENDBRANCH   1   7
BRANCH   3  17
HETATM   17  C   UNL     1      42.539 -16.706   3.237  1.00  0.00     0.071 A 
HETATM   18  C   UNL     1      43.284 -16.470   4.414  1.00  0.00     0.095 A 
HETATM   19  C   UNL     1      44.179 -17.449   4.863  1.00  0.00     0.041 A 
HETATM   20  C   UNL     1      44.350 -18.635   4.144  1.00  0.00     0.026 A 
HETATM   21  C   UNL     1      43.647 -18.836   2.960  1.00  0.00     0.036 A 
HETATM   22 CL   UNL     1      43.877 -20.289   2.067  1.00  0.00    -0.084 Cl
HETATM   23  C   UNL     1      42.755 -17.873   2.494  1.00  0.00     0.056 A 
BRANCH  18  24
HETATM   24  O   UNL     1      43.157 -15.232   4.990  1.00  0.00    -0.354 OA
HETATM   25  C   UNL     1      42.465 -15.154   6.229  1.00  0.00     0.210 C 
ENDBRANCH  18  24
ENDBRANCH   3  17
TORSDOF 6
ENDMDL
MODEL 10
REMARK VINA RESULT:      -6.5      2.157      2.887
REMARK  6 active torsions:
REMARK  status: ('A' for Active; 'I' for Inactive)
REMARK    1  A    between atoms: N_4  and  C_5 
REMARK    2  A    between atoms: C_5  and  C_6 
REMARK    3  A    between atoms: C_6  and  C_7 
REMARK    4  A    between atoms: C_7  and  N_8 
REMARK       I    between atoms: N_8  and  C_9 
REMARK       I    between atoms: C_9  and  N_10 
REMARK    5  A    between atoms: N_10  and  C_11 
REMARK    6  A    between atoms: C_12  and  O_13 
ROOT
HETATM    1  N   UNL     1      39.621 -14.309   2.524  1.00  0.00    -0.343 N 
HETATM    2  C   UNL     1      40.232 -13.704   1.446  1.00  0.00     0.320 C 
HETATM    3  N   UNL     1      39.305 -13.417   0.463  1.00  0.00    -0.306 N 
HETATM    4  O   UNL     1      41.441 -13.524   1.377  1.00  0.00    -0.247 OA
HETATM    5  H   UNL     1      38.671 -14.004   2.711  1.00  0.00     0.164 HD
HETATM    6  H   UNL     1      38.639 -14.167   0.341  1.00  0.00     0.171 HD
ENDROOT
BRANCH   1   7
HETATM    7  C   UNL     1      40.385 -14.746   3.674  1.00  0.00     0.126 C 
BRANCH   7   8
HETATM    8  C   UNL     1      40.988 -16.146   3.537  1.00  0.00     0.041 C 
BRANCH   8   9
HETATM    9  C   UNL     1      42.509 -16.173   3.420  1.00  0.00     0.152 C 
BRANCH   9  10
HETATM   10  N   UNL     1      43.060 -17.512   3.465  1.00  0.00    -0.279 N 
HETATM   11  N   UNL     1      43.065 -18.276   2.352  1.00  0.00    -0.176 NA
HETATM   12  C   UNL     1      43.615 -19.430   2.762  1.00  0.00     0.074 A 
HETATM   13  C   UNL     1      43.780 -20.563   1.818  1.00  0.00     0.074 C 
HETATM   14  C   UNL     1      43.971 -19.380   4.131  1.00  0.00     0.077 A 
HETATM   15  C   UNL     1      43.603 -18.128   4.554  1.00  0.00     0.138 A 
HETATM   16 CL   UNL     1      44.693 -20.607   5.045  1.00  0.00    -0.081 Cl
ENDBRANCH   9  10
ENDBRANCH   8   9
ENDBRANCH   7   8
ENDBRANCH   1   7
BRANCH   3  17
HETATM   17  C   UNL     1      39.621 -12.637  -0.673  1.00  0.00     0.071 A 
HETATM   18  C   UNL     1      39.036 -12.868  -1.939  1.00  0.00     0.095 A 
HETATM   19  C   UNL     1      39.372 -12.030  -3.008  1.00  0.00     0.041 A 
HETATM   20  C   UNL     1      40.290 -10.991  -2.833  1.00  0.00     0.026 A 
HETATM   21  C   UNL     1      40.896 -10.803  -1.594  1.00  0.00     0.036 A 
HETATM   22 CL   UNL     1      42.042  -9.536  -1.389  1.00  0.00    -0.084 Cl
HETATM   23  C   UNL     1      40.579 -11.629  -0.518  1.00  0.00     0.056 A 
BRANCH  18  24
HETATM   24  O   UNL     1      38.247 -13.983  -2.062  1.00  0.00    -0.354 OA
HETATM   25  C   UNL     1      38.713 -15.026  -2.907  1.00  0.00     0.210 C 
ENDBRANCH  18  24
ENDBRANCH   3  17
TORSDOF 6
ENDMDL
