MODEL 1
REMARK VINA RESULT:      -7.9      0.000      0.000
REMARK  7 active torsions:
REMARK  status: ('A' for Active; 'I' for Inactive)
REMARK    1  A    between atoms: C_2  and  C_3 
REMARK    2  A    between atoms: C_3  and  N_4 
REMARK    3  A    between atoms: N_4  and  C_5 
REMARK    4  A    between atoms: C_7  and  N_8 
REMARK    5  A    between atoms: N_8  and  C_9 
REMARK    6  A    between atoms: C_9  and  C_10 
REMARK    7  A    between atoms: C_13  and  O_14 
ROOT
HETATM    1  C   UNL     1      43.748 -16.770   4.497  1.00  0.00     0.119 A 
HETATM    2  N   UNL     1      43.417 -15.841   3.580  1.00  0.00    -0.207 NA
HETATM    3  C   UNL     1      43.167 -16.254   2.330  1.00  0.00     0.181 A 
HETATM    4  N   UNL     1      43.253 -17.527   1.957  1.00  0.00    -0.330 N 
HETATM    5  H   UNL     1      43.139 -17.742   0.974  1.00  0.00     0.168 HD
HETATM    6  C   UNL     1      43.527 -18.493   2.838  1.00  0.00     0.048 A 
HETATM    7  C   UNL     1      43.780 -18.144   4.180  1.00  0.00     0.031 A 
HETATM    8  C   UNL     1      43.558 -19.833   2.425  1.00  0.00     0.030 A 
HETATM    9  C   UNL     1      43.828 -20.844   3.347  1.00  0.00     0.002 A 
HETATM   10  C   UNL     1      44.068 -20.523   4.679  1.00  0.00     0.001 A 
HETATM   11  C   UNL     1      44.046 -19.189   5.096  1.00  0.00     0.017 A 
ENDROOT
BRANCH   3  12
HETATM   12  N   UNL     1      42.896 -15.267   1.396  1.00  0.00    -0.258 NA
HETATM   13  H   UNL     1      43.807 -14.865   1.164  1.00  0.00     0.130 HD
BRANCH  12  14
HETATM   14  C   UNL     1      41.945 -14.220   1.763  1.00  0.00     0.134 C 
BRANCH  14  15
HETATM   15  C   UNL     1      41.027 -13.917   0.601  1.00  0.00    -0.045 A 
HETATM   16  C   UNL     1      40.206 -14.910   0.054  1.00  0.00     0.011 A 
HETATM   17  C   UNL     1      39.409 -14.624  -1.057  1.00  0.00     0.037 A 
HETATM   18  C   UNL     1      39.401 -13.349  -1.627  1.00  0.00     0.068 A 
HETATM   19  C   UNL     1      40.201 -12.351  -1.073  1.00  0.00     0.037 A 
HETATM   20  C   UNL     1      41.002 -12.632   0.035  1.00  0.00     0.011 A 
BRANCH  18  21
HETATM   21  O   UNL     1      38.587 -13.212  -2.714  1.00  0.00    -0.356 OA
HETATM   22  C   UNL     1      38.203 -14.406  -3.388  1.00  0.00     0.210 C 
ENDBRANCH  18  21
ENDBRANCH  14  15
ENDBRANCH  12  14
ENDBRANCH   3  12
BRANCH   1  23
HETATM   23  N   UNL     1      44.022 -16.356   5.810  1.00  0.00    -0.277 NA
HETATM   24  H   UNL     1      45.011 -16.135   5.915  1.00  0.00     0.129 HD
BRANCH  23  25
HETATM   25  C   UNL     1      43.185 -15.275   6.336  1.00  0.00     0.093 C 
BRANCH  25  26
HETATM   26  C   UNL     1      42.081 -15.871   7.210  1.00  0.00     0.010 C 
HETATM   27  C   UNL     1      40.740 -15.864   6.496  1.00  0.00     0.006 C 
ENDBRANCH  25  26
ENDBRANCH  23  25
ENDBRANCH   1  23
TORSDOF 7
ENDMDL
MODEL 2
REMARK VINA RESULT:      -7.7      2.660      5.070
REMARK  7 active torsions:
REMARK  status: ('A' for Active; 'I' for Inactive)
REMARK    1  A    between atoms: C_2  and  C_3 
REMARK    2  A    between atoms: C_3  and  N_4 
REMARK    3  A    between atoms: N_4  and  C_5 
REMARK    4  A    between atoms: C_7  and  N_8 
REMARK    5  A    between atoms: N_8  and  C_9 
REMARK    6  A    between atoms: C_9  and  C_10 
REMARK    7  A    between atoms: C_13  and  O_14 
ROOT
HETATM    1  C   UNL     1      43.505 -16.863   3.417  1.00  0.00     0.119 A 
HETATM    2  N   UNL     1      43.791 -16.230   4.570  1.00  0.00    -0.207 NA
HETATM    3  C   UNL     1      44.126 -16.978   5.630  1.00  0.00     0.181 A 
HETATM    4  N   UNL     1      44.166 -18.306   5.597  1.00  0.00    -0.330 N 
HETATM    5  H   UNL     1      44.337 -18.798   6.465  1.00  0.00     0.168 HD
HETATM    6  C   UNL     1      43.942 -18.980   4.465  1.00  0.00     0.048 A 
HETATM    7  C   UNL     1      43.606 -18.265   3.297  1.00  0.00     0.031 A 
HETATM    8  C   UNL     1      44.043 -20.379   4.448  1.00  0.00     0.030 A 
HETATM    9  C   UNL     1      43.826 -21.082   3.263  1.00  0.00     0.002 A 
HETATM   10  C   UNL     1      43.505 -20.395   2.096  1.00  0.00     0.001 A 
HETATM   11  C   UNL     1      43.395 -19.002   2.108  1.00  0.00     0.017 A 
ENDROOT
BRANCH   3  12
HETATM   12  N   UNL     1      44.347 -16.301   6.819  1.00  0.00    -0.258 NA
HETATM   13  H   UNL     1      44.994 -16.893   7.345  1.00  0.00     0.130 HD
BRANCH  12  14
HETATM   14  C   UNL     1      43.185 -15.950   7.634  1.00  0.00     0.134 C 
BRANCH  14  15
HETATM   15  C   UNL     1      42.378 -14.868   6.955  1.00  0.00    -0.045 A 
HETATM   16  C   UNL     1      41.052 -15.093   6.570  1.00  0.00     0.011 A 
HETATM   17  C   UNL     1      40.342 -14.100   5.891  1.00  0.00     0.037 A 
HETATM   18  C   UNL     1      40.931 -12.866   5.602  1.00  0.00     0.068 A 
HETATM   19  C   UNL     1      42.245 -12.629   6.002  1.00  0.00     0.037 A 
HETATM   20  C   UNL     1      42.960 -13.620   6.678  1.00  0.00     0.011 A 
BRANCH  18  21
HETATM   21  O   UNL     1      40.130 -11.993   4.924  1.00  0.00    -0.356 OA
HETATM   22  C   UNL     1      39.423 -12.506   3.799  1.00  0.00     0.210 C 
ENDBRANCH  18  21
ENDBRANCH  14  15
ENDBRANCH  12  14
ENDBRANCH   3  12
BRANCH   1  23
HETATM   23  N   UNL     1      43.144 -16.097   2.297  1.00  0.00    -0.277 NA
HETATM   24  H   UNL     1      42.964 -16.700   1.496  1.00  0.00     0.129 HD
BRANCH  23  25
HETATM   25  C   UNL     1      42.051 -15.142   2.491  1.00  0.00     0.093 C 
BRANCH  25  26
HETATM   26  C   UNL     1      40.739 -15.906   2.674  1.00  0.00     0.010 C 
HETATM   27  C   UNL     1      39.872 -15.830   1.429  1.00  0.00     0.006 C 
ENDBRANCH  25  26
ENDBRANCH  23  25
ENDBRANCH   1  23
TORSDOF 7
ENDMDL
MODEL 3
REMARK VINA RESULT:      -7.6      1.634      3.844
REMARK  7 active torsions:
REMARK  status: ('A' for Active; 'I' for Inactive)
REMARK    1  A    between atoms: C_2  and  C_3 
REMARK    2  A    between atoms: C_3  and  N_4 
REMARK    3  A    between atoms: N_4  and  C_5 
REMARK    4  A    between atoms: C_7  and  N_8 
REMARK    5  A    between atoms: N_8  and  C_9 
REMARK    6  A    between atoms: C_9  and  C_10 
REMARK    7  A    between atoms: C_13  and  O_14 
ROOT
HETATM    1  C   UNL     1      42.780 -17.283   3.640  1.00  0.00     0.119 A 
HETATM    2  N   UNL     1      41.781 -16.783   2.888  1.00  0.00    -0.207 NA
HETATM    3  C   UNL     1      40.904 -15.959   3.477  1.00  0.00     0.181 A 
HETATM    4  N   UNL     1      40.965 -15.635   4.764  1.00  0.00    -0.330 N 
HETATM    5  H   UNL     1      40.211 -15.081   5.151  1.00  0.00     0.168 HD
HETATM    6  C   UNL     1      41.965 -16.062   5.542  1.00  0.00     0.048 A 
HETATM    7  C   UNL     1      42.943 -16.915   4.993  1.00  0.00     0.031 A 
HETATM    8  C   UNL     1      42.033 -15.660   6.884  1.00  0.00     0.030 A 
HETATM    9  C   UNL     1      43.084 -16.092   7.692  1.00  0.00     0.002 A 
HETATM   10  C   UNL     1      44.068 -16.924   7.166  1.00  0.00     0.001 A 
HETATM   11  C   UNL     1      44.002 -17.334   5.832  1.00  0.00     0.017 A 
ENDROOT
BRANCH   3  12
HETATM   12  N   UNL     1      39.850 -15.517   2.694  1.00  0.00    -0.258 NA
HETATM   13  H   UNL     1      39.008 -15.849   3.170  1.00  0.00     0.130 HD
BRANCH  12  14
HETATM   14  C   UNL     1      39.835 -15.903   1.284  1.00  0.00     0.134 C 
BRANCH  14  15
HETATM   15  C   UNL     1      40.111 -14.702   0.410  1.00  0.00    -0.045 A 
HETATM   16  C   UNL     1      40.872 -13.627   0.883  1.00  0.00     0.011 A 
HETATM   17  C   UNL     1      41.066 -12.500   0.080  1.00  0.00     0.037 A 
HETATM   18  C   UNL     1      40.525 -12.433  -1.207  1.00  0.00     0.068 A 
HETATM   19  C   UNL     1      39.784 -13.510  -1.691  1.00  0.00     0.037 A 
HETATM   20  C   UNL     1      39.584 -14.637  -0.891  1.00  0.00     0.011 A 
BRANCH  18  21
HETATM   21  O   UNL     1      40.780 -11.271  -1.877  1.00  0.00    -0.356 OA
HETATM   22  C   UNL     1      40.955 -11.365  -3.288  1.00  0.00     0.210 C 
ENDBRANCH  18  21
ENDBRANCH  14  15
ENDBRANCH  12  14
ENDBRANCH   3  12
BRANCH   1  23
HETATM   23  N   UNL     1      43.704 -18.155   3.043  1.00  0.00    -0.277 NA
HETATM   24  H   UNL     1      44.307 -18.573   3.750  1.00  0.00     0.129 HD
BRANCH  23  25
HETATM   25  C   UNL     1      43.148 -19.179   2.156  1.00  0.00     0.093 C 
BRANCH  25  26
HETATM   26  C   UNL     1      43.878 -20.502   2.391  1.00  0.00     0.010 C 
HETATM   27  C   UNL     1      43.843 -20.905   3.855  1.00  0.00     0.006 C 
ENDBRANCH  25  26
ENDBRANCH  23  25
ENDBRANCH   1  23
TORSDOF 7
ENDMDL
MODEL 4
REMARK VINA RESULT:      -7.4      2.288      3.094
REMARK  7 active torsions:
REMARK  status: ('A' for Active; 'I' for Inactive)
REMARK    1  A    between atoms: C_2  and  C_3 
REMARK    2  A    between atoms: C_3  and  N_4 
REMARK    3  A    between atoms: N_4  and  C_5 
REMARK    4  A    between atoms: C_7  and  N_8 
REMARK    5  A    between atoms: N_8  and  C_9 
REMARK    6  A    between atoms: C_9  and  C_10 
REMARK    7  A    between atoms: C_13  and  O_14 
ROOT
HETATM    1  C   UNL     1      43.725 -16.806   4.470  1.00  0.00     0.119 A 
HETATM    2  N   UNL     1      43.373 -15.908   3.531  1.00  0.00    -0.207 NA
HETATM    3  C   UNL     1      43.113 -16.360   2.297  1.00  0.00     0.181 A 
HETATM    4  N   UNL     1      43.209 -17.642   1.959  1.00  0.00    -0.330 N 
HETATM    5  H   UNL     1      43.086 -17.887   0.984  1.00  0.00     0.168 HD
HETATM    6  C   UNL     1      43.504 -18.579   2.865  1.00  0.00     0.048 A 
HETATM    7  C   UNL     1      43.769 -18.189   4.193  1.00  0.00     0.031 A 
HETATM    8  C   UNL     1      43.546 -19.930   2.491  1.00  0.00     0.030 A 
HETATM    9  C   UNL     1      43.838 -20.910   3.438  1.00  0.00     0.002 A 
HETATM   10  C   UNL     1      44.090 -20.548   4.758  1.00  0.00     0.001 A 
HETATM   11  C   UNL     1      44.057 -19.203   5.136  1.00  0.00     0.017 A 
ENDROOT
BRANCH   3  12
HETATM   12  N   UNL     1      42.820 -15.404   1.337  1.00  0.00    -0.258 NA
HETATM   13  H   UNL     1      43.314 -14.562   1.643  1.00  0.00     0.130 HD
BRANCH  12  14
HETATM   14  C   UNL     1      41.413 -15.113   1.068  1.00  0.00     0.134 C 
BRANCH  14  15
HETATM   15  C   UNL     1      40.965 -13.913   1.871  1.00  0.00    -0.045 A 
HETATM   16  C   UNL     1      41.387 -12.622   1.532  1.00  0.00     0.011 A 
HETATM   17  C   UNL     1      41.009 -11.534   2.322  1.00  0.00     0.037 A 
HETATM   18  C   UNL     1      40.194 -11.708   3.443  1.00  0.00     0.068 A 
HETATM   19  C   UNL     1      39.754 -12.989   3.773  1.00  0.00     0.037 A 
HETATM   20  C   UNL     1      40.132 -14.081   2.989  1.00  0.00     0.011 A 
BRANCH  18  21
HETATM   21  O   UNL     1      39.912 -10.563   4.131  1.00  0.00    -0.356 OA
HETATM   22  C   UNL     1      38.600 -10.028   3.982  1.00  0.00     0.210 C 
ENDBRANCH  18  21
ENDBRANCH  14  15
ENDBRANCH  12  14
ENDBRANCH   3  12
BRANCH   1  23
HETATM   23  N   UNL     1      44.010 -16.350   5.768  1.00  0.00    -0.277 NA
HETATM   24  H   UNL     1      44.978 -16.042   5.832  1.00  0.00     0.129 HD
BRANCH  23  25
HETATM   25  C   UNL     1      43.100 -15.340   6.313  1.00  0.00     0.093 C 
BRANCH  25  26
HETATM   26  C   UNL     1      41.961 -16.037   7.060  1.00  0.00     0.010 C 
HETATM   27  C   UNL     1      40.617 -15.762   6.408  1.00  0.00     0.006 C 
ENDBRANCH  25  26
ENDBRANCH  23  25
ENDBRANCH   1  23
TORSDOF 7
ENDMDL
MODEL 5
REMARK VINA RESULT:      -7.4      4.482      7.548
REMARK  7 active torsions:
REMARK  status: ('A' for Active; 'I' for Inactive)
REMARK    1  A    between atoms: C_2  and  C_3 
REMARK    2  A    between atoms: C_3  and  N_4 
REMARK    3  A    between atoms: N_4  and  C_5 
REMARK    4  A    between atoms: C_7  and  N_8 
REMARK    5  A    between atoms: N_8  and  C_9 
REMARK    6  A    between atoms: C_9  and  C_10 
REMARK    7  A    between atoms: C_13  and  O_14 
ROOT
HETATM    1  C   UNL     1      42.853 -15.199   2.631  1.00  0.00     0.119 A 
HETATM    2  N   UNL     1      42.860 -14.153   3.479  1.00  0.00    -0.207 NA
HETATM    3  C   UNL     1      43.161 -14.388   4.763  1.00  0.00     0.181 A 
HETATM    4  N   UNL     1      43.430 -15.602   5.234  1.00  0.00    -0.330 N 
HETATM    5  H   UNL     1      43.556 -15.706   6.234  1.00  0.00     0.168 HD
HETATM    6  C   UNL     1      43.487 -16.665   4.426  1.00  0.00     0.048 A 
HETATM    7  C   UNL     1      43.205 -16.498   3.055  1.00  0.00     0.031 A 
HETATM    8  C   UNL     1      43.826 -17.924   4.943  1.00  0.00     0.030 A 
HETATM    9  C   UNL     1      43.902 -19.030   4.098  1.00  0.00     0.002 A 
HETATM   10  C   UNL     1      43.640 -18.886   2.739  1.00  0.00     0.001 A 
HETATM   11  C   UNL     1      43.295 -17.635   2.219  1.00  0.00     0.017 A 
ENDROOT
BRANCH   3  12
HETATM   12  N   UNL     1      43.093 -13.304   5.623  1.00  0.00    -0.258 NA
HETATM   13  H   UNL     1      42.103 -13.046   5.646  1.00  0.00     0.130 HD
BRANCH  12  14
HETATM   14  C   UNL     1      43.925 -12.140   5.325  1.00  0.00     0.134 C 
BRANCH  14  15
HETATM   15  C   UNL     1      44.380 -11.481   6.606  1.00  0.00    -0.045 A 
HETATM   16  C   UNL     1      43.472 -11.197   7.632  1.00  0.00     0.011 A 
HETATM   17  C   UNL     1      43.903 -10.535   8.784  1.00  0.00     0.037 A 
HETATM   18  C   UNL     1      45.240 -10.163   8.941  1.00  0.00     0.068 A 
HETATM   19  C   UNL     1      46.153 -10.462   7.932  1.00  0.00     0.037 A 
HETATM   20  C   UNL     1      45.727 -11.121   6.777  1.00  0.00     0.011 A 
BRANCH  18  21
HETATM   21  O   UNL     1      45.521  -9.512  10.108  1.00  0.00    -0.356 OA
HETATM   22  C   UNL     1      44.422  -9.227  10.969  1.00  0.00     0.210 C 
ENDBRANCH  18  21
ENDBRANCH  14  15
ENDBRANCH  12  14
ENDBRANCH   3  12
BRANCH   1  23
HETATM   23  N   UNL     1      42.531 -14.974   1.283  1.00  0.00    -0.277 NA
HETATM   24  H   UNL     1      42.393 -15.859   0.798  1.00  0.00     0.129 HD
BRANCH  23  25
HETATM   25  C   UNL     1      41.419 -14.056   1.028  1.00  0.00     0.093 C 
BRANCH  25  26
HETATM   26  C   UNL     1      40.258 -14.831   0.403  1.00  0.00     0.010 C 
HETATM   27  C   UNL     1      39.800 -15.968   1.300  1.00  0.00     0.006 C 
ENDBRANCH  25  26
ENDBRANCH  23  25
ENDBRANCH   1  23
TORSDOF 7
ENDMDL
MODEL 6
REMARK VINA RESULT:      -7.3      3.037      4.436
REMARK  7 active torsions:
REMARK  status: ('A' for Active; 'I' for Inactive)
REMARK    1  A    between atoms: C_2  and  C_3 
REMARK    2  A    between atoms: C_3  and  N_4 
REMARK    3  A    between atoms: N_4  and  C_5 
REMARK    4  A    between atoms: C_7  and  N_8 
REMARK    5  A    between atoms: N_8  and  C_9 
REMARK    6  A    between atoms: C_9  and  C_10 
REMARK    7  A    between atoms: C_13  and  O_14 
ROOT
HETATM    1  C   UNL     1      43.819 -16.978   4.658  1.00  0.00     0.119 A 
HETATM    2  N   UNL     1      43.524 -15.939   3.853  1.00  0.00    -0.207 NA
HETATM    3  C   UNL     1      43.269 -16.197   2.564  1.00  0.00     0.181 A 
HETATM    4  N   UNL     1      43.316 -17.421   2.046  1.00  0.00    -0.330 N 
HETATM    5  H   UNL     1      43.202 -17.517   1.045  1.00  0.00     0.168 HD
HETATM    6  C   UNL     1      43.553 -18.491   2.811  1.00  0.00     0.048 A 
HETATM    7  C   UNL     1      43.808 -18.307   4.185  1.00  0.00     0.031 A 
HETATM    8  C   UNL     1      43.543 -19.775   2.247  1.00  0.00     0.030 A 
HETATM    9  C   UNL     1      43.774 -20.893   3.047  1.00  0.00     0.002 A 
HETATM   10  C   UNL     1      44.015 -20.735   4.408  1.00  0.00     0.001 A 
HETATM   11  C   UNL     1      44.033 -19.458   4.975  1.00  0.00     0.017 A 
ENDROOT
BRANCH   3  12
HETATM   12  N   UNL     1      43.037 -15.101   1.749  1.00  0.00    -0.258 NA
HETATM   13  H   UNL     1      43.893 -14.545   1.802  1.00  0.00     0.130 HD
BRANCH  12  14
HETATM   14  C   UNL     1      41.864 -14.276   2.029  1.00  0.00     0.134 C 
BRANCH  14  15
HETATM   15  C   UNL     1      42.186 -13.255   3.096  1.00  0.00    -0.045 A 
HETATM   16  C   UNL     1      43.353 -12.486   3.028  1.00  0.00     0.011 A 
HETATM   17  C   UNL     1      43.661 -11.590   4.054  1.00  0.00     0.037 A 
HETATM   18  C   UNL     1      42.809 -11.432   5.149  1.00  0.00     0.068 A 
HETATM   19  C   UNL     1      41.634 -12.179   5.212  1.00  0.00     0.037 A 
HETATM   20  C   UNL     1      41.323 -13.079   4.190  1.00  0.00     0.011 A 
BRANCH  18  21
HETATM   21  O   UNL     1      43.237 -10.534   6.085  1.00  0.00    -0.356 OA
HETATM   22  C   UNL     1      44.397 -10.884   6.833  1.00  0.00     0.210 C 
ENDBRANCH  18  21
ENDBRANCH  14  15
ENDBRANCH  12  14
ENDBRANCH   3  12
BRANCH   1  23
HETATM   23  N   UNL     1      44.097 -16.727   6.011  1.00  0.00    -0.277 NA
HETATM   24  H   UNL     1      44.470 -15.786   6.129  1.00  0.00     0.129 HD
BRANCH  23  25
HETATM   25  C   UNL     1      43.006 -16.981   6.954  1.00  0.00     0.093 C 
BRANCH  25  26
HETATM   26  C   UNL     1      42.175 -15.707   7.120  1.00  0.00     0.010 C 
HETATM   27  C   UNL     1      40.787 -15.865   6.521  1.00  0.00     0.006 C 
ENDBRANCH  25  26
ENDBRANCH  23  25
ENDBRANCH   1  23
TORSDOF 7
ENDMDL
MODEL 7
REMARK VINA RESULT:      -7.1      1.978      2.701
REMARK  7 active torsions:
REMARK  status: ('A' for Active; 'I' for Inactive)
REMARK    1  A    between atoms: C_2  and  C_3 
REMARK    2  A    between atoms: C_3  and  N_4 
REMARK    3  A    between atoms: N_4  and  C_5 
REMARK    4  A    between atoms: C_7  and  N_8 
REMARK    5  A    between atoms: N_8  and  C_9 
REMARK    6  A    between atoms: C_9  and  C_10 
REMARK    7  A    between atoms: C_13  and  O_14 
ROOT
HETATM    1  C   UNL     1      41.985 -15.205   4.394  1.00  0.00     0.119 A 
HETATM    2  N   UNL     1      41.020 -14.714   3.593  1.00  0.00    -0.207 NA
HETATM    3  C   UNL     1      40.781 -15.346   2.437  1.00  0.00     0.181 A 
HETATM    4  N   UNL     1      41.464 -16.416   2.041  1.00  0.00    -0.330 N 
HETATM    5  H   UNL     1      41.283 -16.778   1.113  1.00  0.00     0.168 HD
HETATM    6  C   UNL     1      42.395 -16.974   2.821  1.00  0.00     0.048 A 
HETATM    7  C   UNL     1      42.691 -16.382   4.065  1.00  0.00     0.031 A 
HETATM    8  C   UNL     1      43.061 -18.134   2.399  1.00  0.00     0.030 A 
HETATM    9  C   UNL     1      44.022 -18.727   3.219  1.00  0.00     0.002 A 
HETATM   10  C   UNL     1      44.320 -18.166   4.457  1.00  0.00     0.001 A 
HETATM   11  C   UNL     1      43.665 -17.006   4.879  1.00  0.00     0.017 A 
ENDROOT
BRANCH   3  12
HETATM   12  N   UNL     1      39.831 -14.776   1.606  1.00  0.00    -0.258 NA
HETATM   13  H   UNL     1      38.934 -14.966   2.059  1.00  0.00     0.130 HD
BRANCH  12  14
HETATM   14  C   UNL     1      39.803 -15.198   0.206  1.00  0.00     0.134 C 
BRANCH  14  15
HETATM   15  C   UNL     1      40.085 -14.022  -0.699  1.00  0.00    -0.045 A 
HETATM   16  C   UNL     1      39.809 -14.086  -2.070  1.00  0.00     0.011 A 
HETATM   17  C   UNL     1      40.131 -13.008  -2.899  1.00  0.00     0.037 A 
HETATM   18  C   UNL     1      40.713 -11.850  -2.379  1.00  0.00     0.068 A 
HETATM   19  C   UNL     1      40.970 -11.772  -1.011  1.00  0.00     0.037 A 
HETATM   20  C   UNL     1      40.653 -12.847  -0.178  1.00  0.00     0.011 A 
BRANCH  18  21
HETATM   21  O   UNL     1      40.987 -10.881  -3.301  1.00  0.00    -0.356 OA
HETATM   22  C   UNL     1      39.942  -9.960  -3.600  1.00  0.00     0.210 C 
ENDBRANCH  18  21
ENDBRANCH  14  15
ENDBRANCH  12  14
ENDBRANCH   3  12
BRANCH   1  23
HETATM   23  N   UNL     1      42.257 -14.551   5.606  1.00  0.00    -0.277 NA
HETATM   24  H   UNL     1      42.640 -15.205   6.286  1.00  0.00     0.129 HD
BRANCH  23  25
HETATM   25  C   UNL     1      43.080 -13.342   5.518  1.00  0.00     0.093 C 
BRANCH  25  26
HETATM   26  C   UNL     1      43.831 -13.146   6.836  1.00  0.00     0.010 C 
HETATM   27  C   UNL     1      44.913 -12.087   6.709  1.00  0.00     0.006 C 
ENDBRANCH  25  26
ENDBRANCH  23  25
ENDBRANCH   1  23
TORSDOF 7
ENDMDL
MODEL 8
REMARK VINA RESULT:      -7.1      3.174      7.326
REMARK  7 active torsions:
REMARK  status: ('A' for Active; 'I' for Inactive)
REMARK    1  A    between atoms: C_2  and  C_3 
REMARK    2  A    between atoms: C_3  and  N_4 
REMARK    3  A    between atoms: N_4  and  C_5 
REMARK    4  A    between atoms: C_7  and  N_8 
REMARK    5  A    between atoms: N_8  and  C_9 
REMARK    6  A    between atoms: C_9  and  C_10 
REMARK    7  A    between atoms: C_13  and  O_14 
ROOT
HETATM    1  C   UNL     1      39.980 -13.367   2.967  1.00  0.00     0.119 A 
HETATM    2  N   UNL     1      40.935 -14.258   2.642  1.00  0.00    -0.207 NA
HETATM    3  C   UNL     1      41.150 -14.503   1.343  1.00  0.00     0.181 A 
HETATM    4  N   UNL     1      40.452 -13.923   0.371  1.00  0.00    -0.330 N 
HETATM    5  H   UNL     1      40.615 -14.233  -0.579  1.00  0.00     0.168 HD
HETATM    6  C   UNL     1      39.529 -12.994   0.637  1.00  0.00     0.048 A 
HETATM    7  C   UNL     1      39.258 -12.662   1.980  1.00  0.00     0.031 A 
HETATM    8  C   UNL     1      38.846 -12.362  -0.412  1.00  0.00     0.030 A 
HETATM    9  C   UNL     1      37.895 -11.380  -0.136  1.00  0.00     0.002 A 
HETATM   10  C   UNL     1      37.621 -11.028   1.182  1.00  0.00     0.001 A 
HETATM   11  C   UNL     1      38.293 -11.660   2.232  1.00  0.00     0.017 A 
ENDROOT
BRANCH   3  12
HETATM   12  N   UNL     1      42.092 -15.474   1.044  1.00  0.00    -0.258 NA
HETATM   13  H   UNL     1      41.622 -16.364   1.227  1.00  0.00     0.130 HD
BRANCH  12  14
HETATM   14  C   UNL     1      43.379 -15.416   1.736  1.00  0.00     0.134 C 
BRANCH  14  15
HETATM   15  C   UNL     1      43.486 -16.543   2.736  1.00  0.00    -0.045 A 
HETATM   16  C   UNL     1      43.541 -16.284   4.110  1.00  0.00     0.011 A 
HETATM   17  C   UNL     1      43.699 -17.337   5.015  1.00  0.00     0.037 A 
HETATM   18  C   UNL     1      43.784 -18.658   4.571  1.00  0.00     0.068 A 
HETATM   19  C   UNL     1      43.709 -18.925   3.206  1.00  0.00     0.037 A 
HETATM   20  C   UNL     1      43.554 -17.876   2.296  1.00  0.00     0.011 A 
BRANCH  18  21
HETATM   21  O   UNL     1      43.950 -19.586   5.560  1.00  0.00    -0.356 OA
HETATM   22  C   UNL     1      43.953 -20.955   5.166  1.00  0.00     0.210 C 
ENDBRANCH  18  21
ENDBRANCH  14  15
ENDBRANCH  12  14
ENDBRANCH   3  12
BRANCH   1  23
HETATM   23  N   UNL     1      39.734 -13.104   4.324  1.00  0.00    -0.277 NA
HETATM   24  H   UNL     1      38.823 -13.470   4.598  1.00  0.00     0.129 HD
BRANCH  23  25
HETATM   25  C   UNL     1      40.774 -13.526   5.264  1.00  0.00     0.093 C 
BRANCH  25  26
HETATM   26  C   UNL     1      40.136 -14.333   6.396  1.00  0.00     0.010 C 
HETATM   27  C   UNL     1      40.619 -15.773   6.395  1.00  0.00     0.006 C 
ENDBRANCH  25  26
ENDBRANCH  23  25
ENDBRANCH   1  23
TORSDOF 7
ENDMDL
MODEL 9
REMARK VINA RESULT:      -7.1      1.731      2.259
REMARK  7 active torsions:
REMARK  status: ('A' for Active; 'I' for Inactive)
REMARK    1  A    between atoms: C_2  and  C_3 
REMARK    2  A    between atoms: C_3  and  N_4 
REMARK    3  A    between atoms: N_4  and  C_5 
REMARK    4  A    between atoms: C_7  and  N_8 
REMARK    5  A    between atoms: N_8  and  C_9 
REMARK    6  A    between atoms: C_9  and  C_10 
REMARK    7  A    between atoms: C_13  and  O_14 
ROOT
HETATM    1  C   UNL     1      42.406 -16.011   5.284  1.00  0.00     0.119 A 
HETATM    2  N   UNL     1      41.403 -15.242   4.821  1.00  0.00    -0.207 NA
HETATM    3  C   UNL     1      40.966 -15.463   3.574  1.00  0.00     0.181 A 
HETATM    4  N   UNL     1      41.491 -16.387   2.775  1.00  0.00    -0.330 N 
HETATM    5  H   UNL     1      41.165 -16.426   1.817  1.00  0.00     0.168 HD
HETATM    6  C   UNL     1      42.452 -17.211   3.203  1.00  0.00     0.048 A 
HETATM    7  C   UNL     1      42.953 -17.059   4.512  1.00  0.00     0.031 A 
HETATM    8  C   UNL     1      42.950 -18.210   2.354  1.00  0.00     0.030 A 
HETATM    9  C   UNL     1      43.941 -19.081   2.804  1.00  0.00     0.002 A 
HETATM   10  C   UNL     1      44.440 -18.957   4.097  1.00  0.00     0.001 A 
HETATM   11  C   UNL     1      43.954 -17.958   4.945  1.00  0.00     0.017 A 
ENDROOT
BRANCH   3  12
HETATM   12  N   UNL     1      39.980 -14.610   3.105  1.00  0.00    -0.258 NA
HETATM   13  H   UNL     1      39.385 -15.194   2.513  1.00  0.00     0.130 HD
BRANCH  12  14
HETATM   14  C   UNL     1      40.400 -13.405   2.391  1.00  0.00     0.134 C 
BRANCH  14  15
HETATM   15  C   UNL     1      39.827 -13.400   0.993  1.00  0.00    -0.045 A 
HETATM   16  C   UNL     1      39.080 -12.314   0.525  1.00  0.00     0.011 A 
HETATM   17  C   UNL     1      38.510 -12.354  -0.750  1.00  0.00     0.037 A 
HETATM   18  C   UNL     1      38.690 -13.462  -1.583  1.00  0.00     0.068 A 
HETATM   19  C   UNL     1      39.451 -14.538  -1.130  1.00  0.00     0.037 A 
HETATM   20  C   UNL     1      40.020 -14.504   0.145  1.00  0.00     0.011 A 
BRANCH  18  21
HETATM   21  O   UNL     1      38.069 -13.375  -2.795  1.00  0.00    -0.356 OA
HETATM   22  C   UNL     1      36.929 -12.524  -2.877  1.00  0.00     0.210 C 
ENDBRANCH  18  21
ENDBRANCH  14  15
ENDBRANCH  12  14
ENDBRANCH   3  12
BRANCH   1  23
HETATM   23  N   UNL     1      42.884 -15.789   6.585  1.00  0.00    -0.277 NA
HETATM   24  H   UNL     1      43.821 -16.175   6.691  1.00  0.00     0.129 HD
BRANCH  23  25
HETATM   25  C   UNL     1      42.827 -14.408   7.068  1.00  0.00     0.093 C 
BRANCH  25  26
HETATM   26  C   UNL     1      43.901 -13.581   6.360  1.00  0.00     0.010 C 
HETATM   27  C   UNL     1      44.245 -12.325   7.144  1.00  0.00     0.006 C 
ENDBRANCH  25  26
ENDBRANCH  23  25
ENDBRANCH   1  23
TORSDOF 7
ENDMDL
MODEL 10
REMARK VINA RESULT:      -7.0     13.676     15.578
REMARK  7 active torsions:
REMARK  status: ('A' for Active; 'I' for Inactive)
REMARK    1  A    between atoms: C_2  and  C_3 
REMARK    2  A    between atoms: C_3  and  N_4 
REMARK    3  A    between atoms: N_4  and  C_5 
REMARK    4  A    between atoms: C_7  and  N_8 
REMARK    5  A    between atoms: N_8  and  C_9 
REMARK    6  A    between atoms: C_9  and  C_10 
REMARK    7  A    between atoms: C_13  and  O_14 
ROOT
HETATM    1  C   UNL     1      48.996 -30.149   0.204  1.00  0.00     0.119 A 
HETATM    2  N   UNL     1      47.943 -29.430  -0.230  1.00  0.00    -0.207 NA
HETATM    3  C   UNL     1      47.267 -28.702   0.668  1.00  0.00     0.181 A 
HETATM    4  N   UNL     1      47.576 -28.676   1.961  1.00  0.00    -0.330 N 
HETATM    5  H   UNL     1      46.958 -28.174   2.587  1.00  0.00     0.168 HD
HETATM    6  C   UNL     1      48.641 -29.330   2.435  1.00  0.00     0.048 A 
HETATM    7  C   UNL     1      49.420 -30.102   1.550  1.00  0.00     0.031 A 
HETATM    8  C   UNL     1      48.973 -29.241   3.794  1.00  0.00     0.030 A 
HETATM    9  C   UNL     1      50.094 -29.909   4.286  1.00  0.00     0.002 A 
HETATM   10  C   UNL     1      50.884 -30.667   3.428  1.00  0.00     0.001 A 
HETATM   11  C   UNL     1      50.554 -30.765   2.073  1.00  0.00     0.017 A 
ENDROOT
BRANCH   3  12
HETATM   12  N   UNL     1      46.149 -28.029   0.202  1.00  0.00    -0.258 NA
HETATM   13  H   UNL     1      45.986 -27.283   0.884  1.00  0.00     0.130 HD
BRANCH  12  14
HETATM   14  C   UNL     1      44.929 -28.801  -0.024  1.00  0.00     0.134 C 
BRANCH  14  15
HETATM   15  C   UNL     1      44.748 -29.071  -1.500  1.00  0.00    -0.045 A 
HETATM   16  C   UNL     1      44.231 -30.291  -1.951  1.00  0.00     0.011 A 
HETATM   17  C   UNL     1      44.126 -30.542  -3.321  1.00  0.00     0.037 A 
HETATM   18  C   UNL     1      44.513 -29.582  -4.259  1.00  0.00     0.068 A 
HETATM   19  C   UNL     1      45.009 -28.358  -3.815  1.00  0.00     0.037 A 
HETATM   20  C   UNL     1      45.119 -28.102  -2.447  1.00  0.00     0.011 A 
BRANCH  18  21
HETATM   21  O   UNL     1      44.370 -29.963  -5.562  1.00  0.00    -0.356 OA
HETATM   22  C   UNL     1      45.041 -31.153  -5.965  1.00  0.00     0.210 C 
ENDBRANCH  18  21
ENDBRANCH  14  15
ENDBRANCH  12  14
ENDBRANCH   3  12
BRANCH   1  23
HETATM   23  N   UNL     1      49.712 -30.926  -0.720  1.00  0.00    -0.277 NA
HETATM   24  H   UNL     1      49.170 -31.744  -0.993  1.00  0.00     0.129 HD
BRANCH  23  25
HETATM   25  C   UNL     1      50.226 -30.221  -1.896  1.00  0.00     0.093 C 
BRANCH  25  26
HETATM   26  C   UNL     1      51.659 -30.680  -2.174  1.00  0.00     0.010 C 
HETATM   27  C   UNL     1      52.053 -31.845  -1.283  1.00  0.00     0.006 C 
ENDBRANCH  25  26
ENDBRANCH  23  25
ENDBRANCH   1  23
TORSDOF 7
ENDMDL
