MODEL 1
REMARK VINA RESULT:      -8.2      0.000      0.000
REMARK  6 active torsions:
REMARK  status: ('A' for Active; 'I' for Inactive)
REMARK    1  A    between atoms: C_8  and  N_9 
REMARK       I    between atoms: N_9  and  C_10 
REMARK    2  A    between atoms: C_10  and  C_11 
REMARK    3  A    between atoms: C_11  and  N_12 
REMARK    4  A    between atoms: N_12  and  C_15 
REMARK    5  A    between atoms: C_15  and  C_16 
REMARK    6  A    between atoms: C_16  and  C_17 
ROOT
HETATM    1  N   UNL     1      40.694 -15.773   1.895  1.00  0.00    -0.062 N 
HETATM    2  H   UNL     1      40.018 -16.386   1.417  1.00  0.00     0.278 HD
HETATM    3  H   UNL     1      41.474 -15.645   1.232  1.00  0.00     0.278 HD
ENDROOT
BRANCH   1   4
HETATM    4  C   UNL     1      40.134 -14.379   2.052  1.00  0.00     0.335 C 
BRANCH   4   5
HETATM    5  C   UNL     1      40.230 -13.580   0.752  1.00  0.00     0.248 C 
HETATM    6  N   UNL     1      39.094 -13.629  -0.022  1.00  0.00    -0.322 N 
HETATM    7  H   UNL     1      38.337 -14.250   0.241  1.00  0.00     0.169 HD
HETATM    8  O   UNL     1      41.266 -12.957   0.534  1.00  0.00    -0.271 OA
BRANCH   6   9
HETATM    9  C   UNL     1      38.854 -12.919  -1.191  1.00  0.00     0.085 A 
HETATM   10  C   UNL     1      38.702 -13.569  -2.405  1.00  0.00     0.052 A 
HETATM   11  C   UNL     1      38.743 -14.997  -2.800  1.00  0.00     0.072 C 
HETATM   12  N   UNL     1      38.474 -12.588  -3.330  1.00  0.00    -0.280 N 
HETATM   13  H   UNL     1      38.320 -12.686  -4.329  1.00  0.00     0.189 HD
HETATM   14  N   UNL     1      38.452 -11.361  -2.809  1.00  0.00    -0.177 NA
HETATM   15  C   UNL     1      38.691 -11.537  -1.503  1.00  0.00     0.079 A 
HETATM   16  C   UNL     1      38.729 -10.326  -0.647  1.00  0.00     0.075 C 
ENDBRANCH   6   9
ENDBRANCH   4   5
ENDBRANCH   1   4
BRANCH   1  17
HETATM   17  C   UNL     1      41.279 -16.484   3.114  1.00  0.00     0.194 C 
HETATM   18  C   UNL     1      40.739 -15.715   4.330  1.00  0.00     0.041 C 
BRANCH  17  19
HETATM   19  C   UNL     1      42.856 -16.637   3.051  1.00  0.00     0.007 C 
HETATM   20  C   UNL     1      43.413 -16.058   1.719  1.00  0.00     0.022 C 
HETATM   21  C   UNL     1      43.495 -15.716   4.131  1.00  0.00     0.022 C 
BRANCH  19  22
HETATM   22  C   UNL     1      43.285 -18.112   3.206  1.00  0.00    -0.048 A 
HETATM   23  C   UNL     1      43.076 -19.037   2.164  1.00  0.00     0.008 A 
HETATM   24  C   UNL     1      43.423 -20.385   2.303  1.00  0.00     0.001 A 
HETATM   25  C   UNL     1      43.985 -20.844   3.486  1.00  0.00     0.000 A 
HETATM   26  C   UNL     1      44.209 -19.954   4.529  1.00  0.00     0.001 A 
HETATM   27  C   UNL     1      43.867 -18.604   4.390  1.00  0.00     0.008 A 
ENDBRANCH  19  22
ENDBRANCH  17  19
ENDBRANCH   1  17
TORSDOF 6
ENDMDL
MODEL 2
REMARK VINA RESULT:      -8.0      1.527      2.243
REMARK  6 active torsions:
REMARK  status: ('A' for Active; 'I' for Inactive)
REMARK    1  A    between atoms: C_8  and  N_9 
REMARK       I    between atoms: N_9  and  C_10 
REMARK    2  A    between atoms: C_10  and  C_11 
REMARK    3  A    between atoms: C_11  and  N_12 
REMARK    4  A    between atoms: N_12  and  C_15 
REMARK    5  A    between atoms: C_15  and  C_16 
REMARK    6  A    between atoms: C_16  and  C_17 
ROOT
HETATM    1  N   UNL     1      40.461 -14.934   3.616  1.00  0.00    -0.062 N 
HETATM    2  H   UNL     1      41.209 -14.294   3.313  1.00  0.00     0.278 HD
HETATM    3  H   UNL     1      39.880 -14.394   4.277  1.00  0.00     0.278 HD
ENDROOT
BRANCH   1   4
HETATM    4  C   UNL     1      39.515 -15.231   2.477  1.00  0.00     0.335 C 
BRANCH   4   5
HETATM    5  C   UNL     1      40.173 -14.991   1.118  1.00  0.00     0.248 C 
HETATM    6  N   UNL     1      39.481 -14.125   0.304  1.00  0.00    -0.322 N 
HETATM    7  H   UNL     1      38.564 -13.798   0.588  1.00  0.00     0.169 HD
HETATM    8  O   UNL     1      41.245 -15.548   0.891  1.00  0.00    -0.271 OA
BRANCH   6   9
HETATM    9  C   UNL     1      39.890 -13.639  -0.931  1.00  0.00     0.085 A 
HETATM   10  C   UNL     1      40.733 -12.545  -1.027  1.00  0.00     0.052 A 
HETATM   11  C   UNL     1      41.369 -11.666  -0.016  1.00  0.00     0.072 C 
HETATM   12  N   UNL     1      40.937 -12.344  -2.364  1.00  0.00    -0.280 N 
HETATM   13  H   UNL     1      41.498 -11.628  -2.817  1.00  0.00     0.189 HD
HETATM   14  N   UNL     1      40.308 -13.229  -3.137  1.00  0.00    -0.177 NA
HETATM   15  C   UNL     1      39.653 -14.027  -2.283  1.00  0.00     0.079 A 
HETATM   16  C   UNL     1      38.846 -15.129  -2.862  1.00  0.00     0.075 C 
ENDBRANCH   6   9
ENDBRANCH   4   5
ENDBRANCH   1   4
BRANCH   1  17
HETATM   17  C   UNL     1      41.054 -16.094   4.415  1.00  0.00     0.194 C 
HETATM   18  C   UNL     1      40.472 -15.951   5.830  1.00  0.00     0.041 C 
BRANCH  17  19
HETATM   19  C   UNL     1      42.637 -16.165   4.334  1.00  0.00     0.007 C 
HETATM   20  C   UNL     1      43.189 -15.064   3.385  1.00  0.00     0.022 C 
HETATM   21  C   UNL     1      43.229 -15.767   5.718  1.00  0.00     0.022 C 
BRANCH  19  22
HETATM   22  C   UNL     1      43.115 -17.555   3.865  1.00  0.00    -0.048 A 
HETATM   23  C   UNL     1      42.809 -18.025   2.573  1.00  0.00     0.008 A 
HETATM   24  C   UNL     1      43.201 -19.298   2.147  1.00  0.00     0.001 A 
HETATM   25  C   UNL     1      43.906 -20.135   3.001  1.00  0.00     0.000 A 
HETATM   26  C   UNL     1      44.227 -19.697   4.279  1.00  0.00     0.001 A 
HETATM   27  C   UNL     1      43.841 -18.422   4.705  1.00  0.00     0.008 A 
ENDBRANCH  19  22
ENDBRANCH  17  19
ENDBRANCH   1  17
TORSDOF 6
ENDMDL
MODEL 3
REMARK VINA RESULT:      -7.9      1.924      2.572
REMARK  6 active torsions:
REMARK  status: ('A' for Active; 'I' for Inactive)
REMARK    1  A    between atoms: C_8  and  N_9 
REMARK       I    between atoms: N_9  and  C_10 
REMARK    2  A    between atoms: C_10  and  C_11 
REMARK    3  A    between atoms: C_11  and  N_12 
REMARK    4  A    between atoms: N_12  and  C_15 
REMARK    5  A    between atoms: C_15  and  C_16 
REMARK    6  A    between atoms: C_16  and  C_17 
ROOT
HETATM    1  N   UNL     1      40.822 -15.106   1.996  1.00  0.00    -0.062 N 
HETATM    2  H   UNL     1      41.606 -14.445   1.899  1.00  0.00     0.278 HD
HETATM    3  H   UNL     1      40.116 -14.621   2.573  1.00  0.00     0.278 HD
ENDROOT
BRANCH   1   4
HETATM    4  C   UNL     1      40.121 -15.304   0.674  1.00  0.00     0.335 C 
BRANCH   4   5
HETATM    5  C   UNL     1      39.974 -13.989  -0.092  1.00  0.00     0.248 C 
HETATM    6  N   UNL     1      40.994 -13.094   0.129  1.00  0.00    -0.322 N 
HETATM    7  H   UNL     1      41.692 -13.297   0.836  1.00  0.00     0.169 HD
HETATM    8  O   UNL     1      39.007 -13.863  -0.839  1.00  0.00    -0.271 OA
BRANCH   6   9
HETATM    9  C   UNL     1      41.181 -11.874  -0.508  1.00  0.00     0.085 A 
HETATM   10  C   UNL     1      41.368 -10.709   0.217  1.00  0.00     0.052 A 
HETATM   11  C   UNL     1      41.415 -10.418   1.670  1.00  0.00     0.072 C 
HETATM   12  N   UNL     1      41.527  -9.714  -0.707  1.00  0.00    -0.280 N 
HETATM   13  H   UNL     1      41.682  -8.722  -0.548  1.00  0.00     0.189 HD
HETATM   14  N   UNL     1      41.474 -10.144  -1.967  1.00  0.00    -0.177 NA
HETATM   15  C   UNL     1      41.255 -11.462  -1.872  1.00  0.00     0.079 A 
HETATM   16  C   UNL     1      41.145 -12.229  -3.137  1.00  0.00     0.075 C 
ENDBRANCH   6   9
ENDBRANCH   4   5
ENDBRANCH   1   4
BRANCH   1  17
HETATM   17  C   UNL     1      41.263 -16.330   2.798  1.00  0.00     0.194 C 
HETATM   18  C   UNL     1      40.532 -16.217   4.145  1.00  0.00     0.041 C 
BRANCH  17  19
HETATM   19  C   UNL     1      42.839 -16.483   2.889  1.00  0.00     0.007 C 
HETATM   20  C   UNL     1      43.522 -15.906   1.617  1.00  0.00     0.022 C 
HETATM   21  C   UNL     1      43.369 -15.560   4.025  1.00  0.00     0.022 C 
BRANCH  19  22
HETATM   22  C   UNL     1      43.251 -17.958   3.088  1.00  0.00    -0.048 A 
HETATM   23  C   UNL     1      42.997 -18.918   2.089  1.00  0.00     0.008 A 
HETATM   24  C   UNL     1      43.328 -20.265   2.268  1.00  0.00     0.001 A 
HETATM   25  C   UNL     1      43.918 -20.688   3.452  1.00  0.00     0.000 A 
HETATM   26  C   UNL     1      44.186 -19.762   4.452  1.00  0.00     0.001 A 
HETATM   27  C   UNL     1      43.861 -18.414   4.272  1.00  0.00     0.008 A 
ENDBRANCH  19  22
ENDBRANCH  17  19
ENDBRANCH   1  17
TORSDOF 6
ENDMDL
MODEL 4
REMARK VINA RESULT:      -7.7      2.051      3.153
REMARK  6 active torsions:
REMARK  status: ('A' for Active; 'I' for Inactive)
REMARK    1  A    between atoms: C_8  and  N_9 
REMARK       I    between atoms: N_9  and  C_10 
REMARK    2  A    between atoms: C_10  and  C_11 
REMARK    3  A    between atoms: C_11  and  N_12 
REMARK    4  A    between atoms: N_12  and  C_15 
REMARK    5  A    between atoms: C_15  and  C_16 
REMARK    6  A    between atoms: C_16  and  C_17 
ROOT
HETATM    1  N   UNL     1      42.255 -13.194   5.026  1.00  0.00    -0.062 N 
HETATM    2  H   UNL     1      42.999 -13.030   5.720  1.00  0.00     0.278 HD
HETATM    3  H   UNL     1      41.498 -12.535   5.265  1.00  0.00     0.278 HD
ENDROOT
BRANCH   1   4
HETATM    4  C   UNL     1      42.694 -12.745   3.653  1.00  0.00     0.335 C 
BRANCH   4   5
HETATM    5  C   UNL     1      41.530 -12.739   2.662  1.00  0.00     0.248 C 
HETATM    6  N   UNL     1      41.796 -13.389   1.479  1.00  0.00    -0.322 N 
HETATM    7  H   UNL     1      42.736 -13.720   1.292  1.00  0.00     0.169 HD
HETATM    8  O   UNL     1      40.481 -12.201   3.009  1.00  0.00    -0.271 OA
BRANCH   6   9
HETATM    9  C   UNL     1      40.901 -13.635   0.446  1.00  0.00     0.085 A 
HETATM   10  C   UNL     1      40.078 -14.749   0.462  1.00  0.00     0.052 A 
HETATM   11  C   UNL     1      39.910 -15.869   1.419  1.00  0.00     0.072 C 
HETATM   12  N   UNL     1      39.331 -14.680  -0.681  1.00  0.00    -0.280 N 
HETATM   13  H   UNL     1      38.621 -15.327  -1.012  1.00  0.00     0.189 HD
HETATM   14  N   UNL     1      39.593 -13.604  -1.423  1.00  0.00    -0.177 NA
HETATM   15  C   UNL     1      40.556 -12.953  -0.758  1.00  0.00     0.079 A 
HETATM   16  C   UNL     1      41.064 -11.693  -1.354  1.00  0.00     0.075 C 
ENDBRANCH   6   9
ENDBRANCH   4   5
ENDBRANCH   1   4
BRANCH   1  17
HETATM   17  C   UNL     1      41.674 -14.596   5.203  1.00  0.00     0.194 C 
HETATM   18  C   UNL     1      40.372 -14.399   5.995  1.00  0.00     0.041 C 
BRANCH  17  19
HETATM   19  C   UNL     1      42.703 -15.626   5.831  1.00  0.00     0.007 C 
HETATM   20  C   UNL     1      43.946 -14.884   6.399  1.00  0.00     0.022 C 
HETATM   21  C   UNL     1      42.064 -16.267   7.097  1.00  0.00     0.022 C 
BRANCH  19  22
HETATM   22  C   UNL     1      43.146 -16.682   4.796  1.00  0.00    -0.048 A 
HETATM   23  C   UNL     1      43.913 -17.798   5.186  1.00  0.00     0.008 A 
HETATM   24  C   UNL     1      44.356 -18.742   4.255  1.00  0.00     0.001 A 
HETATM   25  C   UNL     1      44.046 -18.596   2.909  1.00  0.00     0.000 A 
HETATM   26  C   UNL     1      43.286 -17.510   2.496  1.00  0.00     0.001 A 
HETATM   27  C   UNL     1      42.838 -16.566   3.427  1.00  0.00     0.008 A 
ENDBRANCH  19  22
ENDBRANCH  17  19
ENDBRANCH   1  17
TORSDOF 6
ENDMDL
MODEL 5
REMARK VINA RESULT:      -7.6      5.298      7.501
REMARK  6 active torsions:
REMARK  status: ('A' for Active; 'I' for Inactive)
REMARK    1  A    between atoms: C_8  and  N_9 
REMARK       I    between atoms: N_9  and  C_10 
REMARK    2  A    between atoms: C_10  and  C_11 
REMARK    3  A    between atoms: C_11  and  N_12 
REMARK    4  A    between atoms: N_12  and  C_15 
REMARK    5  A    between atoms: C_15  and  C_16 
REMARK    6  A    between atoms: C_16  and  C_17 
ROOT
HETATM    1  N   UNL     1      41.374 -12.996   4.740  1.00  0.00    -0.062 N 
HETATM    2  H   UNL     1      40.393 -13.217   4.515  1.00  0.00     0.278 HD
HETATM    3  H   UNL     1      41.639 -12.222   4.111  1.00  0.00     0.278 HD
ENDROOT
BRANCH   1   4
HETATM    4  C   UNL     1      41.483 -12.384   6.116  1.00  0.00     0.335 C 
BRANCH   4   5
HETATM    5  C   UNL     1      42.475 -11.221   6.141  1.00  0.00     0.248 C 
HETATM    6  N   UNL     1      43.105 -11.046   7.351  1.00  0.00    -0.322 N 
HETATM    7  H   UNL     1      42.812 -11.595   8.151  1.00  0.00     0.169 HD
HETATM    8  O   UNL     1      42.643 -10.585   5.103  1.00  0.00    -0.271 OA
BRANCH   6   9
HETATM    9  C   UNL     1      44.126 -10.147   7.634  1.00  0.00     0.085 A 
HETATM   10  C   UNL     1      45.428 -10.393   7.232  1.00  0.00     0.052 A 
HETATM   11  C   UNL     1      46.067 -11.511   6.498  1.00  0.00     0.072 C 
HETATM   12  N   UNL     1      46.161  -9.320   7.660  1.00  0.00    -0.280 N 
HETATM   13  H   UNL     1      47.157  -9.152   7.550  1.00  0.00     0.189 HD
HETATM   14  N   UNL     1      45.435  -8.397   8.289  1.00  0.00    -0.177 NA
HETATM   15  C   UNL     1      44.187  -8.884   8.294  1.00  0.00     0.079 A 
HETATM   16  C   UNL     1      43.135  -8.061   8.940  1.00  0.00     0.075 C 
ENDBRANCH   6   9
ENDBRANCH   4   5
ENDBRANCH   1   4
BRANCH   1  17
HETATM   17  C   UNL     1      42.276 -14.174   4.374  1.00  0.00     0.194 C 
HETATM   18  C   UNL     1      43.115 -13.688   3.182  1.00  0.00     0.041 C 
BRANCH  17  19
HETATM   19  C   UNL     1      41.477 -15.524   4.138  1.00  0.00     0.007 C 
HETATM   20  C   UNL     1      40.644 -15.897   5.397  1.00  0.00     0.022 C 
HETATM   21  C   UNL     1      40.387 -15.280   3.053  1.00  0.00     0.022 C 
BRANCH  19  22
HETATM   22  C   UNL     1      42.426 -16.684   3.769  1.00  0.00    -0.048 A 
HETATM   23  C   UNL     1      42.254 -17.404   2.571  1.00  0.00     0.008 A 
HETATM   24  C   UNL     1      43.081 -18.483   2.241  1.00  0.00     0.001 A 
HETATM   25  C   UNL     1      44.099 -18.871   3.101  1.00  0.00     0.000 A 
HETATM   26  C   UNL     1      44.297 -18.175   4.287  1.00  0.00     0.001 A 
HETATM   27  C   UNL     1      43.474 -17.093   4.616  1.00  0.00     0.008 A 
ENDBRANCH  19  22
ENDBRANCH  17  19
ENDBRANCH   1  17
TORSDOF 6
ENDMDL
MODEL 6
REMARK VINA RESULT:      -7.5      1.785      2.742
REMARK  6 active torsions:
REMARK  status: ('A' for Active; 'I' for Inactive)
REMARK    1  A    between atoms: C_8  and  N_9 
REMARK       I    between atoms: N_9  and  C_10 
REMARK    2  A    between atoms: C_10  and  C_11 
REMARK    3  A    between atoms: C_11  and  N_12 
REMARK    4  A    between atoms: N_12  and  C_15 
REMARK    5  A    between atoms: C_15  and  C_16 
REMARK    6  A    between atoms: C_16  and  C_17 
ROOT
HETATM    1  N   UNL     1      40.608 -13.941   3.299  1.00  0.00    -0.062 N 
HETATM    2  H   UNL     1      39.946 -14.122   4.067  1.00  0.00     0.278 HD
HETATM    3  H   UNL     1      40.240 -14.456   2.483  1.00  0.00     0.278 HD
ENDROOT
BRANCH   1   4
HETATM    4  C   UNL     1      40.541 -12.497   2.863  1.00  0.00     0.335 C 
BRANCH   4   5
HETATM    5  C   UNL     1      39.959 -12.356   1.456  1.00  0.00     0.248 C 
HETATM    6  N   UNL     1      40.868 -12.575   0.448  1.00  0.00    -0.322 N 
HETATM    7  H   UNL     1      41.848 -12.698   0.678  1.00  0.00     0.169 HD
HETATM    8  O   UNL     1      38.762 -12.103   1.352  1.00  0.00    -0.271 OA
BRANCH   6   9
HETATM    9  C   UNL     1      40.603 -12.622  -0.914  1.00  0.00     0.085 A 
HETATM   10  C   UNL     1      40.991 -11.593  -1.756  1.00  0.00     0.052 A 
HETATM   11  C   UNL     1      41.693 -10.308  -1.525  1.00  0.00     0.072 C 
HETATM   12  N   UNL     1      40.587 -11.961  -3.009  1.00  0.00    -0.280 N 
HETATM   13  H   UNL     1      40.695 -11.453  -3.882  1.00  0.00     0.189 HD
HETATM   14  N   UNL     1      39.985 -13.150  -3.047  1.00  0.00    -0.177 NA
HETATM   15  C   UNL     1      39.976 -13.571  -1.775  1.00  0.00     0.079 A 
HETATM   16  C   UNL     1      39.356 -14.891  -1.498  1.00  0.00     0.075 C 
ENDBRANCH   6   9
ENDBRANCH   4   5
ENDBRANCH   1   4
BRANCH   1  17
HETATM   17  C   UNL     1      41.967 -14.562   3.619  1.00  0.00     0.194 C 
HETATM   18  C   UNL     1      42.927 -13.374   3.785  1.00  0.00     0.041 C 
BRANCH  17  19
HETATM   19  C   UNL     1      42.417 -15.659   2.567  1.00  0.00     0.007 C 
HETATM   20  C   UNL     1      41.228 -16.061   1.648  1.00  0.00     0.022 C 
HETATM   21  C   UNL     1      43.430 -15.018   1.574  1.00  0.00     0.022 C 
BRANCH  19  22
HETATM   22  C   UNL     1      42.990 -16.910   3.267  1.00  0.00    -0.048 A 
HETATM   23  C   UNL     1      43.251 -16.906   4.651  1.00  0.00     0.008 A 
HETATM   24  C   UNL     1      43.806 -18.017   5.294  1.00  0.00     0.001 A 
HETATM   25  C   UNL     1      44.117 -19.160   4.570  1.00  0.00     0.000 A 
HETATM   26  C   UNL     1      43.865 -19.196   3.205  1.00  0.00     0.001 A 
HETATM   27  C   UNL     1      43.304 -18.087   2.561  1.00  0.00     0.008 A 
ENDBRANCH  19  22
ENDBRANCH  17  19
ENDBRANCH   1  17
TORSDOF 6
ENDMDL
MODEL 7
REMARK VINA RESULT:      -7.4      2.388      3.237
REMARK  6 active torsions:
REMARK  status: ('A' for Active; 'I' for Inactive)
REMARK    1  A    between atoms: C_8  and  N_9 
REMARK       I    between atoms: N_9  and  C_10 
REMARK    2  A    between atoms: C_10  and  C_11 
REMARK    3  A    between atoms: C_11  and  N_12 
REMARK    4  A    between atoms: N_12  and  C_15 
REMARK    5  A    between atoms: C_15  and  C_16 
REMARK    6  A    between atoms: C_16  and  C_17 
ROOT
HETATM    1  N   UNL     1      40.946 -13.663   6.388  1.00  0.00    -0.062 N 
HETATM    2  H   UNL     1      41.748 -13.029   6.511  1.00  0.00     0.278 HD
HETATM    3  H   UNL     1      40.693 -13.985   7.335  1.00  0.00     0.278 HD
ENDROOT
BRANCH   1   4
HETATM    4  C   UNL     1      39.723 -12.899   5.938  1.00  0.00     0.335 C 
BRANCH   4   5
HETATM    5  C   UNL     1      39.878 -12.373   4.511  1.00  0.00     0.248 C 
HETATM    6  N   UNL     1      39.236 -13.132   3.560  1.00  0.00    -0.322 N 
HETATM    7  H   UNL     1      38.812 -14.014   3.828  1.00  0.00     0.169 HD
HETATM    8  O   UNL     1      40.513 -11.335   4.345  1.00  0.00    -0.271 OA
BRANCH   6   9
HETATM    9  C   UNL     1      39.112 -12.840   2.208  1.00  0.00     0.085 A 
HETATM   10  C   UNL     1      39.571 -13.718   1.241  1.00  0.00     0.052 A 
HETATM   11  C   UNL     1      40.242 -15.038   1.310  1.00  0.00     0.072 C 
HETATM   12  N   UNL     1      39.287 -13.133   0.038  1.00  0.00    -0.280 N 
HETATM   13  H   UNL     1      39.482 -13.482  -0.896  1.00  0.00     0.189 HD
HETATM   14  N   UNL     1      38.670 -11.957   0.151  1.00  0.00    -0.177 NA
HETATM   15  C   UNL     1      38.559 -11.752   1.470  1.00  0.00     0.079 A 
HETATM   16  C   UNL     1      37.901 -10.498   1.912  1.00  0.00     0.075 C 
ENDBRANCH   6   9
ENDBRANCH   4   5
ENDBRANCH   1   4
BRANCH   1  17
HETATM   17  C   UNL     1      41.374 -14.908   5.612  1.00  0.00     0.194 C 
HETATM   18  C   UNL     1      40.962 -16.097   6.494  1.00  0.00     0.041 C 
BRANCH  17  19
HETATM   19  C   UNL     1      42.899 -14.880   5.177  1.00  0.00     0.007 C 
HETATM   20  C   UNL     1      43.176 -13.685   4.221  1.00  0.00     0.022 C 
HETATM   21  C   UNL     1      43.772 -14.547   6.422  1.00  0.00     0.022 C 
BRANCH  19  22
HETATM   22  C   UNL     1      43.317 -16.204   4.501  1.00  0.00    -0.048 A 
HETATM   23  C   UNL     1      42.885 -16.516   3.197  1.00  0.00     0.008 A 
HETATM   24  C   UNL     1      43.221 -17.728   2.586  1.00  0.00     0.001 A 
HETATM   25  C   UNL     1      43.996 -18.660   3.262  1.00  0.00     0.000 A 
HETATM   26  C   UNL     1      44.442 -18.378   4.547  1.00  0.00     0.001 A 
HETATM   27  C   UNL     1      44.110 -17.163   5.158  1.00  0.00     0.008 A 
ENDBRANCH  19  22
ENDBRANCH  17  19
ENDBRANCH   1  17
TORSDOF 6
ENDMDL
MODEL 8
REMARK VINA RESULT:      -7.3      2.804      4.445
REMARK  6 active torsions:
REMARK  status: ('A' for Active; 'I' for Inactive)
REMARK    1  A    between atoms: C_8  and  N_9 
REMARK       I    between atoms: N_9  and  C_10 
REMARK    2  A    between atoms: C_10  and  C_11 
REMARK    3  A    between atoms: C_11  and  N_12 
REMARK    4  A    between atoms: N_12  and  C_15 
REMARK    5  A    between atoms: C_15  and  C_16 
REMARK    6  A    between atoms: C_16  and  C_17 
ROOT
HETATM    1  N   UNL     1      41.989 -14.273   1.083  1.00  0.00    -0.062 N 
HETATM    2  H   UNL     1      42.666 -14.384   0.315  1.00  0.00     0.278 HD
HETATM    3  H   UNL     1      42.511 -13.832   1.856  1.00  0.00     0.278 HD
ENDROOT
BRANCH   1   4
HETATM    4  C   UNL     1      40.943 -13.243   0.731  1.00  0.00     0.335 C 
BRANCH   4   5
HETATM    5  C   UNL     1      40.789 -12.193   1.832  1.00  0.00     0.248 C 
HETATM    6  N   UNL     1      39.629 -12.311   2.561  1.00  0.00    -0.322 N 
HETATM    7  H   UNL     1      38.923 -12.979   2.273  1.00  0.00     0.169 HD
HETATM    8  O   UNL     1      41.700 -11.384   1.987  1.00  0.00    -0.271 OA
BRANCH   6   9
HETATM    9  C   UNL     1      39.275 -11.572   3.683  1.00  0.00     0.085 A 
HETATM   10  C   UNL     1      38.627 -10.354   3.564  1.00  0.00     0.052 A 
HETATM   11  C   UNL     1      38.176  -9.558   2.397  1.00  0.00     0.072 C 
HETATM   12  N   UNL     1      38.423  -9.910   4.841  1.00  0.00    -0.280 N 
HETATM   13  H   UNL     1      37.980  -9.049   5.147  1.00  0.00     0.189 HD
HETATM   14  N   UNL     1      38.873 -10.750   5.774  1.00  0.00    -0.177 NA
HETATM   15  C   UNL     1      39.406 -11.771   5.090  1.00  0.00     0.079 A 
HETATM   16  C   UNL     1      40.000 -12.881   5.874  1.00  0.00     0.075 C 
ENDBRANCH   6   9
ENDBRANCH   4   5
ENDBRANCH   1   4
BRANCH   1  17
HETATM   17  C   UNL     1      41.545 -15.643   1.594  1.00  0.00     0.194 C 
HETATM   18  C   UNL     1      40.039 -15.717   1.301  1.00  0.00     0.041 C 
BRANCH  17  19
HETATM   19  C   UNL     1      41.959 -15.914   3.101  1.00  0.00     0.007 C 
HETATM   20  C   UNL     1      42.825 -14.745   3.651  1.00  0.00     0.022 C 
HETATM   21  C   UNL     1      40.684 -15.859   3.991  1.00  0.00     0.022 C 
BRANCH  19  22
HETATM   22  C   UNL     1      42.722 -17.249   3.244  1.00  0.00    -0.048 A 
HETATM   23  C   UNL     1      43.486 -17.523   4.395  1.00  0.00     0.008 A 
HETATM   24  C   UNL     1      44.214 -18.710   4.523  1.00  0.00     0.001 A 
HETATM   25  C   UNL     1      44.200 -19.653   3.505  1.00  0.00     0.000 A 
HETATM   26  C   UNL     1      43.449 -19.413   2.360  1.00  0.00     0.001 A 
HETATM   27  C   UNL     1      42.716 -18.228   2.233  1.00  0.00     0.008 A 
ENDBRANCH  19  22
ENDBRANCH  17  19
ENDBRANCH   1  17
TORSDOF 6
ENDMDL
MODEL 9
REMARK VINA RESULT:      -7.3      1.364      2.346
REMARK  6 active torsions:
REMARK  status: ('A' for Active; 'I' for Inactive)
REMARK    1  A    between atoms: C_8  and  N_9 
REMARK       I    between atoms: N_9  and  C_10 
REMARK    2  A    between atoms: C_10  and  C_11 
REMARK    3  A    between atoms: C_11  and  N_12 
REMARK    4  A    between atoms: N_12  and  C_15 
REMARK    5  A    between atoms: C_15  and  C_16 
REMARK    6  A    between atoms: C_16  and  C_17 
ROOT
HETATM    1  N   UNL     1      40.923 -13.468   1.938  1.00  0.00    -0.062 N 
HETATM    2  H   UNL     1      40.121 -13.180   2.517  1.00  0.00     0.278 HD
HETATM    3  H   UNL     1      40.537 -14.093   1.214  1.00  0.00     0.278 HD
ENDROOT
BRANCH   1   4
HETATM    4  C   UNL     1      41.458 -12.299   1.145  1.00  0.00     0.335 C 
BRANCH   4   5
HETATM    5  C   UNL     1      40.722 -12.133  -0.184  1.00  0.00     0.248 C 
HETATM    6  N   UNL     1      39.461 -12.681  -0.200  1.00  0.00    -0.322 N 
HETATM    7  H   UNL     1      39.147 -13.235   0.589  1.00  0.00     0.169 HD
HETATM    8  O   UNL     1      41.288 -11.515  -1.083  1.00  0.00    -0.271 OA
BRANCH   6   9
HETATM    9  C   UNL     1      38.527 -12.589  -1.224  1.00  0.00     0.085 A 
HETATM   10  C   UNL     1      38.356 -13.620  -2.132  1.00  0.00     0.052 A 
HETATM   11  C   UNL     1      39.007 -14.942  -2.296  1.00  0.00     0.072 C 
HETATM   12  N   UNL     1      37.369 -13.209  -2.985  1.00  0.00    -0.280 N 
HETATM   13  H   UNL     1      36.978 -13.702  -3.783  1.00  0.00     0.189 HD
HETATM   14  N   UNL     1      36.880 -12.005  -2.691  1.00  0.00    -0.177 NA
HETATM   15  C   UNL     1      37.578 -11.601  -1.622  1.00  0.00     0.079 A 
HETATM   16  C   UNL     1      37.251 -10.268  -1.057  1.00  0.00     0.075 C 
ENDBRANCH   6   9
ENDBRANCH   4   5
ENDBRANCH   1   4
BRANCH   1  17
HETATM   17  C   UNL     1      41.891 -14.315   2.763  1.00  0.00     0.194 C 
HETATM   18  C   UNL     1      43.137 -14.483   1.881  1.00  0.00     0.041 C 
BRANCH  17  19
HETATM   19  C   UNL     1      41.245 -15.662   3.295  1.00  0.00     0.007 C 
HETATM   20  C   UNL     1      40.590 -15.446   4.689  1.00  0.00     0.022 C 
HETATM   21  C   UNL     1      40.035 -16.032   2.389  1.00  0.00     0.022 C 
BRANCH  19  22
HETATM   22  C   UNL     1      42.291 -16.795   3.374  1.00  0.00    -0.048 A 
HETATM   23  C   UNL     1      43.186 -16.878   4.459  1.00  0.00     0.008 A 
HETATM   24  C   UNL     1      44.164 -17.874   4.526  1.00  0.00     0.001 A 
HETATM   25  C   UNL     1      44.277 -18.812   3.509  1.00  0.00     0.000 A 
HETATM   26  C   UNL     1      43.405 -18.760   2.429  1.00  0.00     0.001 A 
HETATM   27  C   UNL     1      42.422 -17.767   2.363  1.00  0.00     0.008 A 
ENDBRANCH  19  22
ENDBRANCH  17  19
ENDBRANCH   1  17
TORSDOF 6
ENDMDL
MODEL 10
REMARK VINA RESULT:      -7.2      2.195      4.549
REMARK  6 active torsions:
REMARK  status: ('A' for Active; 'I' for Inactive)
REMARK    1  A    between atoms: C_8  and  N_9 
REMARK       I    between atoms: N_9  and  C_10 
REMARK    2  A    between atoms: C_10  and  C_11 
REMARK    3  A    between atoms: C_11  and  N_12 
REMARK    4  A    between atoms: N_12  and  C_15 
REMARK    5  A    between atoms: C_15  and  C_16 
REMARK    6  A    between atoms: C_16  and  C_17 
ROOT
HETATM    1  N   UNL     1      42.528 -16.969   2.682  1.00  0.00    -0.062 N 
HETATM    2  H   UNL     1      41.552 -17.153   2.956  1.00  0.00     0.278 HD
HETATM    3  H   UNL     1      42.858 -17.833   2.223  1.00  0.00     0.278 HD
ENDROOT
BRANCH   1   4
HETATM    4  C   UNL     1      42.591 -15.938   1.580  1.00  0.00     0.335 C 
BRANCH   4   5
HETATM    5  C   UNL     1      41.204 -15.396   1.233  1.00  0.00     0.248 C 
HETATM    6  N   UNL     1      41.224 -14.206   0.544  1.00  0.00    -0.322 N 
HETATM    7  H   UNL     1      42.104 -13.721   0.410  1.00  0.00     0.169 HD
HETATM    8  O   UNL     1      40.227 -16.064   1.559  1.00  0.00    -0.271 OA
BRANCH   6   9
HETATM    9  C   UNL     1      40.130 -13.539   0.007  1.00  0.00     0.085 A 
HETATM   10  C   UNL     1      39.340 -12.714   0.788  1.00  0.00     0.052 A 
HETATM   11  C   UNL     1      39.381 -12.333   2.220  1.00  0.00     0.072 C 
HETATM   12  N   UNL     1      38.374 -12.220  -0.045  1.00  0.00    -0.280 N 
HETATM   13  H   UNL     1      37.614 -11.584   0.176  1.00  0.00     0.189 HD
HETATM   14  N   UNL     1      38.487 -12.648  -1.302  1.00  0.00    -0.177 NA
HETATM   15  C   UNL     1      39.550 -13.463  -1.294  1.00  0.00     0.079 A 
HETATM   16  C   UNL     1      39.928 -14.104  -2.578  1.00  0.00     0.075 C 
ENDBRANCH   6   9
ENDBRANCH   4   5
ENDBRANCH   1   4
BRANCH   1  17
HETATM   17  C   UNL     1      43.398 -16.787   3.925  1.00  0.00     0.194 C 
HETATM   18  C   UNL     1      44.012 -18.168   4.197  1.00  0.00     0.041 C 
BRANCH  17  19
HETATM   19  C   UNL     1      42.618 -16.136   5.144  1.00  0.00     0.007 C 
HETATM   20  C   UNL     1      41.081 -16.228   4.925  1.00  0.00     0.022 C 
HETATM   21  C   UNL     1      42.848 -17.010   6.411  1.00  0.00     0.022 C 
BRANCH  19  22
HETATM   22  C   UNL     1      43.034 -14.665   5.358  1.00  0.00    -0.048 A 
HETATM   23  C   UNL     1      43.670 -14.261   6.548  1.00  0.00     0.008 A 
HETATM   24  C   UNL     1      44.018 -12.926   6.775  1.00  0.00     0.001 A 
HETATM   25  C   UNL     1      43.737 -11.959   5.819  1.00  0.00     0.000 A 
HETATM   26  C   UNL     1      43.117 -12.328   4.632  1.00  0.00     0.001 A 
HETATM   27  C   UNL     1      42.773 -13.665   4.402  1.00  0.00     0.008 A 
ENDBRANCH  19  22
ENDBRANCH  17  19
ENDBRANCH   1  17
TORSDOF 6
ENDMDL
