MODEL 1
REMARK VINA RESULT:      -7.8      0.000      0.000
REMARK  6 active torsions:
REMARK  status: ('A' for Active; 'I' for Inactive)
REMARK    1  A    between atoms: N_4  and  C_5 
REMARK    2  A    between atoms: C_5  and  C_6 
REMARK    3  A    between atoms: C_6  and  C_7 
REMARK    4  A    between atoms: C_7  and  N_8 
REMARK       I    between atoms: N_8  and  C_9 
REMARK       I    between atoms: C_9  and  N_10 
REMARK    5  A    between atoms: N_10  and  C_11 
REMARK    6  A    between atoms: C_12  and  O_13 
ROOT
HETATM    1  N   UNL     1      39.989 -15.033   3.000  1.00  0.00    -0.343 N 
HETATM    2  C   UNL     1      40.301 -14.958   1.660  1.00  0.00     0.320 C 
HETATM    3  N   UNL     1      39.523 -14.004   1.033  1.00  0.00    -0.306 N 
HETATM    4  O   UNL     1      41.110 -15.701   1.118  1.00  0.00    -0.247 OA
HETATM    5  H   UNL     1      39.721 -14.155   3.432  1.00  0.00     0.164 HD
HETATM    6  H   UNL     1      38.564 -14.036   1.347  1.00  0.00     0.171 HD
ENDROOT
BRANCH   1   7
HETATM    7  C   UNL     1      40.626 -16.001   3.867  1.00  0.00     0.126 C 
BRANCH   7   8
HETATM    8  C   UNL     1      41.868 -15.481   4.593  1.00  0.00     0.041 C 
BRANCH   8   9
HETATM    9  C   UNL     1      43.189 -15.809   3.905  1.00  0.00     0.152 C 
BRANCH   9  10
HETATM   10  N   UNL     1      43.494 -17.229   3.892  1.00  0.00    -0.272 N 
HETATM   11  N   UNL     1      43.440 -17.892   2.718  1.00  0.00    -0.176 NA
HETATM   12  C   UNL     1      43.722 -19.160   3.049  1.00  0.00     0.074 A 
HETATM   13  C   UNL     1      43.731 -20.222   2.014  1.00  0.00     0.074 C 
HETATM   14  C   UNL     1      43.980 -19.289   4.432  1.00  0.00     0.083 A 
HETATM   15  C   UNL     1      43.834 -18.023   4.959  1.00  0.00     0.050 A 
HETATM   16 CL   UNL     1      44.375 -20.722   5.249  1.00  0.00    -0.080 Cl
HETATM   17  C   UNL     1      43.968 -17.525   6.349  1.00  0.00     0.072 C 
ENDBRANCH   9  10
ENDBRANCH   8   9
ENDBRANCH   7   8
ENDBRANCH   1   7
BRANCH   3  18
HETATM   18  C   UNL     1      39.753 -13.602  -0.303  1.00  0.00     0.071 A 
HETATM   19  C   UNL     1      40.672 -12.583  -0.638  1.00  0.00     0.095 A 
HETATM   20  C   UNL     1      40.878 -12.266  -1.986  1.00  0.00     0.041 A 
HETATM   21  C   UNL     1      40.164 -12.932  -2.986  1.00  0.00     0.026 A 
HETATM   22  C   UNL     1      39.225 -13.900  -2.641  1.00  0.00     0.036 A 
HETATM   23 CL   UNL     1      38.336 -14.703  -3.878  1.00  0.00    -0.084 Cl
HETATM   24  C   UNL     1      39.005 -14.228  -1.306  1.00  0.00     0.056 A 
BRANCH  19  25
HETATM   25  O   UNL     1      41.239 -11.895   0.406  1.00  0.00    -0.354 OA
HETATM   26  C   UNL     1      40.850 -10.542   0.591  1.00  0.00     0.210 C 
ENDBRANCH  19  25
ENDBRANCH   3  18
TORSDOF 6
ENDMDL
MODEL 2
REMARK VINA RESULT:      -7.7      1.749      2.413
REMARK  6 active torsions:
REMARK  status: ('A' for Active; 'I' for Inactive)
REMARK    1  A    between atoms: N_4  and  C_5 
REMARK    2  A    between atoms: C_5  and  C_6 
REMARK    3  A    between atoms: C_6  and  C_7 
REMARK    4  A    between atoms: C_7  and  N_8 
REMARK       I    between atoms: N_8  and  C_9 
REMARK       I    between atoms: C_9  and  N_10 
REMARK    5  A    between atoms: N_10  and  C_11 
REMARK    6  A    between atoms: C_12  and  O_13 
ROOT
HETATM    1  N   UNL     1      39.658 -15.016   2.302  1.00  0.00    -0.343 N 
HETATM    2  C   UNL     1      40.264 -14.648   1.121  1.00  0.00     0.320 C 
HETATM    3  N   UNL     1      39.540 -13.653   0.494  1.00  0.00    -0.306 N 
HETATM    4  O   UNL     1      41.267 -15.198   0.683  1.00  0.00    -0.247 OA
HETATM    5  H   UNL     1      39.185 -14.268   2.799  1.00  0.00     0.164 HD
HETATM    6  H   UNL     1      38.547 -13.825   0.542  1.00  0.00     0.171 HD
ENDROOT
BRANCH   1   7
HETATM    7  C   UNL     1      40.191 -16.085   3.120  1.00  0.00     0.126 C 
BRANCH   7   8
HETATM    8  C   UNL     1      41.243 -15.640   4.138  1.00  0.00     0.041 C 
BRANCH   8   9
HETATM    9  C   UNL     1      42.686 -15.789   3.666  1.00  0.00     0.152 C 
BRANCH   9  10
HETATM   10  N   UNL     1      43.155 -17.164   3.678  1.00  0.00    -0.272 N 
HETATM   11  N   UNL     1      43.065 -17.889   2.542  1.00  0.00    -0.176 NA
HETATM   12  C   UNL     1      43.527 -19.097   2.892  1.00  0.00     0.074 A 
HETATM   13  C   UNL     1      43.561 -20.203   1.905  1.00  0.00     0.074 C 
HETATM   14  C   UNL     1      43.934 -19.124   4.245  1.00  0.00     0.083 A 
HETATM   15  C   UNL     1      43.691 -17.858   4.733  1.00  0.00     0.050 A 
HETATM   16 CL   UNL     1      44.576 -20.459   5.072  1.00  0.00    -0.080 Cl
HETATM   17  C   UNL     1      43.901 -17.277   6.082  1.00  0.00     0.072 C 
ENDBRANCH   9  10
ENDBRANCH   8   9
ENDBRANCH   7   8
ENDBRANCH   1   7
BRANCH   3  18
HETATM   18  C   UNL     1      40.026 -12.972  -0.647  1.00  0.00     0.071 A 
HETATM   19  C   UNL     1      39.821 -13.454  -1.959  1.00  0.00     0.095 A 
HETATM   20  C   UNL     1      40.296 -12.704  -3.043  1.00  0.00     0.041 A 
HETATM   21  C   UNL     1      40.986 -11.508  -2.826  1.00  0.00     0.026 A 
HETATM   22  C   UNL     1      41.225 -11.069  -1.528  1.00  0.00     0.036 A 
HETATM   23 CL   UNL     1      42.092  -9.605  -1.270  1.00  0.00    -0.084 Cl
HETATM   24  C   UNL     1      40.762 -11.801  -0.437  1.00  0.00     0.056 A 
BRANCH  19  25
HETATM   25  O   UNL     1      39.245 -14.693  -2.079  1.00  0.00    -0.354 OA
HETATM   26  C   UNL     1      38.332 -14.894  -3.148  1.00  0.00     0.210 C 
ENDBRANCH  19  25
ENDBRANCH   3  18
TORSDOF 6
ENDMDL
MODEL 3
REMARK VINA RESULT:      -7.6      2.113      7.658
REMARK  6 active torsions:
REMARK  status: ('A' for Active; 'I' for Inactive)
REMARK    1  A    between atoms: N_4  and  C_5 
REMARK    2  A    between atoms: C_5  and  C_6 
REMARK    3  A    between atoms: C_6  and  C_7 
REMARK    4  A    between atoms: C_7  and  N_8 
REMARK       I    between atoms: N_8  and  C_9 
REMARK       I    between atoms: C_9  and  N_10 
REMARK    5  A    between atoms: N_10  and  C_11 
REMARK    6  A    between atoms: C_12  and  O_13 
ROOT
HETATM    1  N   UNL     1      41.581 -14.080   3.676  1.00  0.00    -0.343 N 
HETATM    2  C   UNL     1      41.665 -15.450   3.796  1.00  0.00     0.320 C 
HETATM    3  N   UNL     1      42.955 -15.880   3.557  1.00  0.00    -0.306 N 
HETATM    4  O   UNL     1      40.694 -16.164   4.015  1.00  0.00    -0.247 OA
HETATM    5  H   UNL     1      42.407 -13.568   3.969  1.00  0.00     0.164 HD
HETATM    6  H   UNL     1      43.374 -15.396   2.776  1.00  0.00     0.171 HD
ENDROOT
BRANCH   1   7
HETATM    7  C   UNL     1      40.319 -13.388   3.822  1.00  0.00     0.126 C 
BRANCH   7   8
HETATM    8  C   UNL     1      39.923 -12.530   2.618  1.00  0.00     0.041 C 
BRANCH   8   9
HETATM    9  C   UNL     1      40.933 -12.537   1.475  1.00  0.00     0.152 C 
BRANCH   9  10
HETATM   10  N   UNL     1      40.349 -12.895   0.194  1.00  0.00    -0.272 N 
HETATM   11  N   UNL     1      40.150 -11.924  -0.722  1.00  0.00    -0.176 NA
HETATM   12  C   UNL     1      39.569 -12.560  -1.748  1.00  0.00     0.074 A 
HETATM   13  C   UNL     1      39.160 -11.813  -2.962  1.00  0.00     0.074 C 
HETATM   14  C   UNL     1      39.426 -13.942  -1.486  1.00  0.00     0.083 A 
HETATM   15  C   UNL     1      39.945 -14.139  -0.225  1.00  0.00     0.050 A 
HETATM   16 CL   UNL     1      38.742 -15.094  -2.527  1.00  0.00    -0.080 Cl
HETATM   17  C   UNL     1      40.068 -15.366   0.598  1.00  0.00     0.072 C 
ENDBRANCH   9  10
ENDBRANCH   8   9
ENDBRANCH   7   8
ENDBRANCH   1   7
BRANCH   3  18
HETATM   18  C   UNL     1      43.358 -17.218   3.781  1.00  0.00     0.071 A 
HETATM   19  C   UNL     1      43.797 -17.673   5.044  1.00  0.00     0.095 A 
HETATM   20  C   UNL     1      44.142 -19.022   5.200  1.00  0.00     0.041 A 
HETATM   21  C   UNL     1      44.076 -19.899   4.114  1.00  0.00     0.026 A 
HETATM   22  C   UNL     1      43.689 -19.427   2.863  1.00  0.00     0.036 A 
HETATM   23 CL   UNL     1      43.629 -20.510   1.526  1.00  0.00    -0.084 Cl
HETATM   24  C   UNL     1      43.344 -18.090   2.687  1.00  0.00     0.056 A 
BRANCH  19  25
HETATM   25  O   UNL     1      43.950 -16.725   6.023  1.00  0.00    -0.354 OA
HETATM   26  C   UNL     1      43.038 -16.750   7.112  1.00  0.00     0.210 C 
ENDBRANCH  19  25
ENDBRANCH   3  18
TORSDOF 6
ENDMDL
MODEL 4
REMARK VINA RESULT:      -7.1      3.434      7.315
REMARK  6 active torsions:
REMARK  status: ('A' for Active; 'I' for Inactive)
REMARK    1  A    between atoms: N_4  and  C_5 
REMARK    2  A    between atoms: C_5  and  C_6 
REMARK    3  A    between atoms: C_6  and  C_7 
REMARK    4  A    between atoms: C_7  and  N_8 
REMARK       I    between atoms: N_8  and  C_9 
REMARK       I    between atoms: C_9  and  N_10 
REMARK    5  A    between atoms: N_10  and  C_11 
REMARK    6  A    between atoms: C_12  and  O_13 
ROOT
HETATM    1  N   UNL     1      41.108 -14.170   1.509  1.00  0.00    -0.343 N 
HETATM    2  C   UNL     1      42.186 -14.898   1.964  1.00  0.00     0.320 C 
HETATM    3  N   UNL     1      41.763 -15.951   2.751  1.00  0.00    -0.306 N 
HETATM    4  O   UNL     1      43.348 -14.583   1.741  1.00  0.00    -0.247 OA
HETATM    5  H   UNL     1      40.269 -14.709   1.321  1.00  0.00     0.164 HD
HETATM    6  H   UNL     1      41.014 -15.679   3.372  1.00  0.00     0.171 HD
ENDROOT
BRANCH   1   7
HETATM    7  C   UNL     1      41.289 -12.977   0.710  1.00  0.00     0.126 C 
BRANCH   7   8
HETATM    8  C   UNL     1      40.438 -11.784   1.150  1.00  0.00     0.041 C 
BRANCH   8   9
HETATM    9  C   UNL     1      39.180 -12.154   1.928  1.00  0.00     0.152 C 
BRANCH   9  10
HETATM   10  N   UNL     1      39.374 -12.152   3.368  1.00  0.00    -0.272 N 
HETATM   11  N   UNL     1      39.835 -13.274   3.961  1.00  0.00    -0.176 NA
HETATM   12  C   UNL     1      39.858 -12.965   5.264  1.00  0.00     0.074 A 
HETATM   13  C   UNL     1      40.287 -13.970   6.267  1.00  0.00     0.074 C 
HETATM   14  C   UNL     1      39.434 -11.636   5.489  1.00  0.00     0.083 A 
HETATM   15  C   UNL     1      39.132 -11.124   4.245  1.00  0.00     0.050 A 
HETATM   16 CL   UNL     1      39.321 -10.860   6.994  1.00  0.00    -0.080 Cl
HETATM   17  C   UNL     1      38.632  -9.790   3.835  1.00  0.00     0.072 C 
ENDBRANCH   9  10
ENDBRANCH   8   9
ENDBRANCH   7   8
ENDBRANCH   1   7
BRANCH   3  18
HETATM   18  C   UNL     1      42.648 -16.956   3.206  1.00  0.00     0.071 A 
HETATM   19  C   UNL     1      43.331 -16.860   4.439  1.00  0.00     0.095 A 
HETATM   20  C   UNL     1      44.161 -17.914   4.842  1.00  0.00     0.041 A 
HETATM   21  C   UNL     1      44.330 -19.034   4.023  1.00  0.00     0.026 A 
HETATM   22  C   UNL     1      43.691 -19.094   2.788  1.00  0.00     0.036 A 
HETATM   23 CL   UNL     1      43.921 -20.468   1.777  1.00  0.00    -0.084 Cl
HETATM   24  C   UNL     1      42.863 -18.056   2.369  1.00  0.00     0.056 A 
BRANCH  19  25
HETATM   25  O   UNL     1      43.207 -15.678   5.123  1.00  0.00    -0.354 OA
HETATM   26  C   UNL     1      43.866 -15.571   6.377  1.00  0.00     0.210 C 
ENDBRANCH  19  25
ENDBRANCH   3  18
TORSDOF 6
ENDMDL
MODEL 5
REMARK VINA RESULT:      -7.0      4.224      7.391
REMARK  6 active torsions:
REMARK  status: ('A' for Active; 'I' for Inactive)
REMARK    1  A    between atoms: N_4  and  C_5 
REMARK    2  A    between atoms: C_5  and  C_6 
REMARK    3  A    between atoms: C_6  and  C_7 
REMARK    4  A    between atoms: C_7  and  N_8 
REMARK       I    between atoms: N_8  and  C_9 
REMARK       I    between atoms: C_9  and  N_10 
REMARK    5  A    between atoms: N_10  and  C_11 
REMARK    6  A    between atoms: C_12  and  O_13 
ROOT
HETATM    1  N   UNL     1      41.486 -13.738   2.406  1.00  0.00    -0.343 N 
HETATM    2  C   UNL     1      42.490 -14.672   2.544  1.00  0.00     0.320 C 
HETATM    3  N   UNL     1      42.064 -15.732   3.321  1.00  0.00    -0.306 N 
HETATM    4  O   UNL     1      43.616 -14.517   2.088  1.00  0.00    -0.247 OA
HETATM    5  H   UNL     1      40.545 -14.115   2.373  1.00  0.00     0.164 HD
HETATM    6  H   UNL     1      41.524 -15.422   4.115  1.00  0.00     0.171 HD
ENDROOT
BRANCH   1   7
HETATM    7  C   UNL     1      41.703 -12.502   1.685  1.00  0.00     0.126 C 
BRANCH   7   8
HETATM    8  C   UNL     1      42.439 -11.423   2.482  1.00  0.00     0.041 C 
BRANCH   8   9
HETATM    9  C   UNL     1      41.701 -10.937   3.724  1.00  0.00     0.152 C 
BRANCH   9  10
HETATM   10  N   UNL     1      42.547 -10.862   4.902  1.00  0.00    -0.272 N 
HETATM   11  N   UNL     1      43.847 -11.207   4.789  1.00  0.00    -0.176 NA
HETATM   12  C   UNL     1      44.327 -11.075   6.033  1.00  0.00     0.074 A 
HETATM   13  C   UNL     1      45.744 -11.398   6.331  1.00  0.00     0.074 C 
HETATM   14  C   UNL     1      43.331 -10.621   6.927  1.00  0.00     0.083 A 
HETATM   15  C   UNL     1      42.187 -10.481   6.171  1.00  0.00     0.050 A 
HETATM   16 CL   UNL     1      43.531 -10.325   8.585  1.00  0.00    -0.080 Cl
HETATM   17  C   UNL     1      40.818 -10.049   6.546  1.00  0.00     0.072 C 
ENDBRANCH   9  10
ENDBRANCH   8   9
ENDBRANCH   7   8
ENDBRANCH   1   7
BRANCH   3  18
HETATM   18  C   UNL     1      42.834 -16.908   3.480  1.00  0.00     0.071 A 
HETATM   19  C   UNL     1      43.708 -17.097   4.573  1.00  0.00     0.095 A 
HETATM   20  C   UNL     1      44.407 -18.305   4.686  1.00  0.00     0.041 A 
HETATM   21  C   UNL     1      44.261 -19.300   3.715  1.00  0.00     0.026 A 
HETATM   22  C   UNL     1      43.436 -19.082   2.616  1.00  0.00     0.036 A 
HETATM   23 CL   UNL     1      43.277 -20.304   1.414  1.00  0.00    -0.084 Cl
HETATM   24  C   UNL     1      42.733 -17.887   2.485  1.00  0.00     0.056 A 
BRANCH  19  25
HETATM   25  O   UNL     1      43.887 -16.027   5.413  1.00  0.00    -0.354 OA
HETATM   26  C   UNL     1      44.345 -16.294   6.730  1.00  0.00     0.210 C 
ENDBRANCH  19  25
ENDBRANCH   3  18
TORSDOF 6
ENDMDL
MODEL 6
REMARK VINA RESULT:      -6.9      2.487      7.405
REMARK  6 active torsions:
REMARK  status: ('A' for Active; 'I' for Inactive)
REMARK    1  A    between atoms: N_4  and  C_5 
REMARK    2  A    between atoms: C_5  and  C_6 
REMARK    3  A    between atoms: C_6  and  C_7 
REMARK    4  A    between atoms: C_7  and  N_8 
REMARK       I    between atoms: N_8  and  C_9 
REMARK       I    between atoms: C_9  and  N_10 
REMARK    5  A    between atoms: N_10  and  C_11 
REMARK    6  A    between atoms: C_12  and  O_13 
ROOT
HETATM    1  N   UNL     1      41.533 -14.586   5.813  1.00  0.00    -0.343 N 
HETATM    2  C   UNL     1      41.555 -15.768   5.104  1.00  0.00     0.320 C 
HETATM    3  N   UNL     1      42.844 -16.077   4.717  1.00  0.00    -0.306 N 
HETATM    4  O   UNL     1      40.543 -16.393   4.814  1.00  0.00    -0.247 OA
HETATM    5  H   UNL     1      42.349 -14.411   6.390  1.00  0.00     0.164 HD
HETATM    6  H   UNL     1      43.345 -15.262   4.394  1.00  0.00     0.171 HD
ENDROOT
BRANCH   1   7
HETATM    7  C   UNL     1      40.289 -14.013   6.281  1.00  0.00     0.126 C 
BRANCH   7   8
HETATM    8  C   UNL     1      40.102 -12.534   5.934  1.00  0.00     0.041 C 
BRANCH   8   9
HETATM    9  C   UNL     1      40.931 -12.051   4.749  1.00  0.00     0.152 C 
BRANCH   9  10
HETATM   10  N   UNL     1      40.289 -12.281   3.467  1.00  0.00    -0.272 N 
HETATM   11  N   UNL     1      40.647 -13.367   2.748  1.00  0.00    -0.176 NA
HETATM   12  C   UNL     1      39.922 -13.266   1.626  1.00  0.00     0.074 A 
HETATM   13  C   UNL     1      40.059 -14.277   0.549  1.00  0.00     0.074 C 
HETATM   14  C   UNL     1      39.085 -12.128   1.651  1.00  0.00     0.083 A 
HETATM   15  C   UNL     1      39.333 -11.508   2.856  1.00  0.00     0.050 A 
HETATM   16 CL   UNL     1      38.013 -11.645   0.427  1.00  0.00    -0.080 Cl
HETATM   17  C   UNL     1      38.770 -10.270   3.450  1.00  0.00     0.072 C 
ENDBRANCH   9  10
ENDBRANCH   8   9
ENDBRANCH   7   8
ENDBRANCH   1   7
BRANCH   3  18
HETATM   18  C   UNL     1      43.177 -17.318   4.126  1.00  0.00     0.071 A 
HETATM   19  C   UNL     1      43.093 -17.540   2.734  1.00  0.00     0.095 A 
HETATM   20  C   UNL     1      43.478 -18.783   2.216  1.00  0.00     0.041 A 
HETATM   21  C   UNL     1      43.915 -19.799   3.070  1.00  0.00     0.026 A 
HETATM   22  C   UNL     1      43.946 -19.586   4.445  1.00  0.00     0.036 A 
HETATM   23 CL   UNL     1      44.468 -20.849   5.491  1.00  0.00    -0.084 Cl
HETATM   24  C   UNL     1      43.566 -18.357   4.979  1.00  0.00     0.056 A 
BRANCH  19  25
HETATM   25  O   UNL     1      42.539 -16.535   1.981  1.00  0.00    -0.354 OA
HETATM   26  C   UNL     1      43.413 -15.543   1.463  1.00  0.00     0.210 C 
ENDBRANCH  19  25
ENDBRANCH   3  18
TORSDOF 6
ENDMDL
MODEL 7
REMARK VINA RESULT:      -6.8      7.642      9.916
REMARK  6 active torsions:
REMARK  status: ('A' for Active; 'I' for Inactive)
REMARK    1  A    between atoms: N_4  and  C_5 
REMARK    2  A    between atoms: C_5  and  C_6 
REMARK    3  A    between atoms: C_6  and  C_7 
REMARK    4  A    between atoms: C_7  and  N_8 
REMARK       I    between atoms: N_8  and  C_9 
REMARK       I    between atoms: C_9  and  N_10 
REMARK    5  A    between atoms: N_10  and  C_11 
REMARK    6  A    between atoms: C_12  and  O_13 
ROOT
HETATM    1  N   UNL     1      43.909 -11.147   8.400  1.00  0.00    -0.343 N 
HETATM    2  C   UNL     1      44.201 -12.017   7.372  1.00  0.00     0.320 C 
HETATM    3  N   UNL     1      43.154 -12.894   7.166  1.00  0.00    -0.306 N 
HETATM    4  O   UNL     1      45.280 -12.030   6.792  1.00  0.00    -0.247 OA
HETATM    5  H   UNL     1      42.932 -10.883   8.480  1.00  0.00     0.164 HD
HETATM    6  H   UNL     1      42.763 -13.223   8.036  1.00  0.00     0.171 HD
ENDROOT
BRANCH   1   7
HETATM    7  C   UNL     1      44.872 -10.166   8.852  1.00  0.00     0.126 C 
BRANCH   7   8
HETATM    8  C   UNL     1      44.846  -9.899  10.358  1.00  0.00     0.041 C 
BRANCH   8   9
HETATM    9  C   UNL     1      43.576 -10.363  11.063  1.00  0.00     0.152 C 
BRANCH   9  10
HETATM   10  N   UNL     1      42.513  -9.373  11.041  1.00  0.00    -0.272 N 
HETATM   11  N   UNL     1      41.587  -9.438  10.061  1.00  0.00    -0.176 NA
HETATM   12  C   UNL     1      40.795  -8.382  10.293  1.00  0.00     0.074 A 
HETATM   13  C   UNL     1      39.653  -8.087   9.394  1.00  0.00     0.074 C 
HETATM   14  C   UNL     1      41.209  -7.667  11.439  1.00  0.00     0.083 A 
HETATM   15  C   UNL     1      42.320  -8.330  11.913  1.00  0.00     0.050 A 
HETATM   16 CL   UNL     1      40.473  -6.274  12.071  1.00  0.00    -0.080 Cl
HETATM   17  C   UNL     1      43.196  -8.055  13.078  1.00  0.00     0.072 C 
ENDBRANCH   9  10
ENDBRANCH   8   9
ENDBRANCH   7   8
ENDBRANCH   1   7
BRANCH   3  18
HETATM   18  C   UNL     1      43.118 -13.779   6.063  1.00  0.00     0.071 A 
HETATM   19  C   UNL     1      42.702 -13.369   4.777  1.00  0.00     0.095 A 
HETATM   20  C   UNL     1      42.731 -14.291   3.724  1.00  0.00     0.041 A 
HETATM   21  C   UNL     1      43.142 -15.608   3.949  1.00  0.00     0.026 A 
HETATM   22  C   UNL     1      43.502 -16.014   5.230  1.00  0.00     0.036 A 
HETATM   23 CL   UNL     1      43.989 -17.642   5.503  1.00  0.00    -0.084 Cl
HETATM   24  C   UNL     1      43.478 -15.112   6.291  1.00  0.00     0.056 A 
BRANCH  19  25
HETATM   25  O   UNL     1      42.198 -12.097   4.668  1.00  0.00    -0.354 OA
HETATM   26  C   UNL     1      42.934 -11.162   3.893  1.00  0.00     0.210 C 
ENDBRANCH  19  25
ENDBRANCH   3  18
TORSDOF 6
ENDMDL
MODEL 8
REMARK VINA RESULT:      -6.8      5.545      8.031
REMARK  6 active torsions:
REMARK  status: ('A' for Active; 'I' for Inactive)
REMARK    1  A    between atoms: N_4  and  C_5 
REMARK    2  A    between atoms: C_5  and  C_6 
REMARK    3  A    between atoms: C_6  and  C_7 
REMARK    4  A    between atoms: C_7  and  N_8 
REMARK       I    between atoms: N_8  and  C_9 
REMARK       I    between atoms: C_9  and  N_10 
REMARK    5  A    between atoms: N_10  and  C_11 
REMARK    6  A    between atoms: C_12  and  O_13 
ROOT
HETATM    1  N   UNL     1      40.079 -11.422   5.837  1.00  0.00    -0.343 N 
HETATM    2  C   UNL     1      40.321 -12.777   5.772  1.00  0.00     0.320 C 
HETATM    3  N   UNL     1      41.264 -13.055   4.801  1.00  0.00    -0.306 N 
HETATM    4  O   UNL     1      39.714 -13.600   6.446  1.00  0.00    -0.247 OA
HETATM    5  H   UNL     1      40.880 -10.829   5.646  1.00  0.00     0.164 HD
HETATM    6  H   UNL     1      41.115 -12.508   3.966  1.00  0.00     0.171 HD
ENDROOT
BRANCH   1   7
HETATM    7  C   UNL     1      39.085 -10.879   6.738  1.00  0.00     0.126 C 
BRANCH   7   8
HETATM    8  C   UNL     1      39.655 -10.017   7.866  1.00  0.00     0.041 C 
BRANCH   8   9
HETATM    9  C   UNL     1      40.807  -9.108   7.450  1.00  0.00     0.152 C 
BRANCH   9  10
HETATM   10  N   UNL     1      42.107  -9.600   7.873  1.00  0.00    -0.272 N 
HETATM   11  N   UNL     1      42.777 -10.443   7.058  1.00  0.00    -0.176 NA
HETATM   12  C   UNL     1      43.890 -10.739   7.742  1.00  0.00     0.074 A 
HETATM   13  C   UNL     1      44.889 -11.681   7.181  1.00  0.00     0.074 C 
HETATM   14  C   UNL     1      43.933 -10.059   8.980  1.00  0.00     0.083 A 
HETATM   15  C   UNL     1      42.771  -9.321   9.041  1.00  0.00     0.050 A 
HETATM   16 CL   UNL     1      45.170 -10.160  10.137  1.00  0.00    -0.080 Cl
HETATM   17  C   UNL     1      42.246  -8.415  10.092  1.00  0.00     0.072 C 
ENDBRANCH   9  10
ENDBRANCH   8   9
ENDBRANCH   7   8
ENDBRANCH   1   7
BRANCH   3  18
HETATM   18  C   UNL     1      41.823 -14.344   4.640  1.00  0.00     0.071 A 
HETATM   19  C   UNL     1      41.353 -15.257   3.670  1.00  0.00     0.095 A 
HETATM   20  C   UNL     1      41.984 -16.501   3.541  1.00  0.00     0.041 A 
HETATM   21  C   UNL     1      43.048 -16.844   4.380  1.00  0.00     0.026 A 
HETATM   22  C   UNL     1      43.469 -15.956   5.365  1.00  0.00     0.036 A 
HETATM   23 CL   UNL     1      44.768 -16.395   6.407  1.00  0.00    -0.084 Cl
HETATM   24  C   UNL     1      42.855 -14.715   5.510  1.00  0.00     0.056 A 
BRANCH  19  25
HETATM   25  O   UNL     1      40.229 -14.892   2.972  1.00  0.00    -0.354 OA
HETATM   26  C   UNL     1      39.838 -15.711   1.880  1.00  0.00     0.210 C 
ENDBRANCH  19  25
ENDBRANCH   3  18
TORSDOF 6
ENDMDL
MODEL 9
REMARK VINA RESULT:      -6.7      2.924      8.776
REMARK  6 active torsions:
REMARK  status: ('A' for Active; 'I' for Inactive)
REMARK    1  A    between atoms: N_4  and  C_5 
REMARK    2  A    between atoms: C_5  and  C_6 
REMARK    3  A    between atoms: C_6  and  C_7 
REMARK    4  A    between atoms: C_7  and  N_8 
REMARK       I    between atoms: N_8  and  C_9 
REMARK       I    between atoms: C_9  and  N_10 
REMARK    5  A    between atoms: N_10  and  C_11 
REMARK    6  A    between atoms: C_12  and  O_13 
ROOT
HETATM    1  N   UNL     1      41.212 -14.930   0.453  1.00  0.00    -0.343 N 
HETATM    2  C   UNL     1      41.360 -15.692   1.591  1.00  0.00     0.320 C 
HETATM    3  N   UNL     1      42.692 -15.979   1.813  1.00  0.00    -0.306 N 
HETATM    4  O   UNL     1      40.413 -16.102   2.250  1.00  0.00    -0.247 OA
HETATM    5  H   UNL     1      41.965 -14.275   0.268  1.00  0.00     0.164 HD
HETATM    6  H   UNL     1      43.174 -16.215   0.958  1.00  0.00     0.171 HD
ENDROOT
BRANCH   1   7
HETATM    7  C   UNL     1      39.903 -14.545  -0.031  1.00  0.00     0.126 C 
BRANCH   7   8
HETATM    8  C   UNL     1      39.923 -13.632  -1.258  1.00  0.00     0.041 C 
BRANCH   8   9
HETATM    9  C   UNL     1      39.271 -12.269  -1.046  1.00  0.00     0.152 C 
BRANCH   9  10
HETATM   10  N   UNL     1      40.089 -11.163  -1.511  1.00  0.00    -0.272 N 
HETATM   11  N   UNL     1      39.945 -10.741  -2.786  1.00  0.00    -0.176 NA
HETATM   12  C   UNL     1      40.853  -9.763  -2.908  1.00  0.00     0.074 A 
HETATM   13  C   UNL     1      41.026  -9.056  -4.200  1.00  0.00     0.074 C 
HETATM   14  C   UNL     1      41.552  -9.552  -1.698  1.00  0.00     0.083 A 
HETATM   15  C   UNL     1      41.036 -10.464  -0.804  1.00  0.00     0.050 A 
HETATM   16 CL   UNL     1      42.777  -8.408  -1.436  1.00  0.00    -0.080 Cl
HETATM   17  C   UNL     1      41.369 -10.733   0.616  1.00  0.00     0.072 C 
ENDBRANCH   9  10
ENDBRANCH   8   9
ENDBRANCH   7   8
ENDBRANCH   1   7
BRANCH   3  18
HETATM   18  C   UNL     1      43.142 -16.599   3.002  1.00  0.00     0.071 A 
HETATM   19  C   UNL     1      43.377 -17.989   3.088  1.00  0.00     0.095 A 
HETATM   20  C   UNL     1      43.861 -18.527   4.286  1.00  0.00     0.041 A 
HETATM   21  C   UNL     1      44.084 -17.702   5.392  1.00  0.00     0.026 A 
HETATM   22  C   UNL     1      43.802 -16.342   5.312  1.00  0.00     0.036 A 
HETATM   23 CL   UNL     1      44.061 -15.335   6.684  1.00  0.00    -0.084 Cl
HETATM   24  C   UNL     1      43.319 -15.788   4.129  1.00  0.00     0.056 A 
BRANCH  19  25
HETATM   25  O   UNL     1      43.017 -18.744   2.000  1.00  0.00    -0.354 OA
HETATM   26  C   UNL     1      43.355 -20.123   2.014  1.00  0.00     0.210 C 
ENDBRANCH  19  25
ENDBRANCH   3  18
TORSDOF 6
ENDMDL
MODEL 10
REMARK VINA RESULT:      -6.7      1.903      2.372
REMARK  6 active torsions:
REMARK  status: ('A' for Active; 'I' for Inactive)
REMARK    1  A    between atoms: N_4  and  C_5 
REMARK    2  A    between atoms: C_5  and  C_6 
REMARK    3  A    between atoms: C_6  and  C_7 
REMARK    4  A    between atoms: C_7  and  N_8 
REMARK       I    between atoms: N_8  and  C_9 
REMARK       I    between atoms: C_9  and  N_10 
REMARK    5  A    between atoms: N_10  and  C_11 
REMARK    6  A    between atoms: C_12  and  O_13 
ROOT
HETATM    1  N   UNL     1      41.831 -12.883   2.697  1.00  0.00    -0.343 N 
HETATM    2  C   UNL     1      40.705 -12.886   1.903  1.00  0.00     0.320 C 
HETATM    3  N   UNL     1      41.042 -12.653   0.584  1.00  0.00    -0.306 N 
HETATM    4  O   UNL     1      39.571 -13.010   2.348  1.00  0.00    -0.247 OA
HETATM    5  H   UNL     1      42.672 -13.246   2.261  1.00  0.00     0.164 HD
HETATM    6  H   UNL     1      41.743 -11.931   0.497  1.00  0.00     0.171 HD
ENDROOT
BRANCH   1   7
HETATM    7  C   UNL     1      41.738 -13.047   4.133  1.00  0.00     0.126 C 
BRANCH   7   8
HETATM    8  C   UNL     1      42.003 -14.471   4.627  1.00  0.00     0.041 C 
BRANCH   8   9
HETATM    9  C   UNL     1      43.425 -14.970   4.391  1.00  0.00     0.152 C 
BRANCH   9  10
HETATM   10  N   UNL     1      43.491 -16.384   4.068  1.00  0.00    -0.272 N 
HETATM   11  N   UNL     1      43.747 -17.264   5.059  1.00  0.00    -0.176 NA
HETATM   12  C   UNL     1      43.785 -18.451   4.437  1.00  0.00     0.074 A 
HETATM   13  C   UNL     1      44.078 -19.689   5.199  1.00  0.00     0.074 C 
HETATM   14  C   UNL     1      43.525 -18.319   3.055  1.00  0.00     0.083 A 
HETATM   15  C   UNL     1      43.329 -16.972   2.838  1.00  0.00     0.050 A 
HETATM   16 CL   UNL     1      43.480 -19.578   1.919  1.00  0.00    -0.080 Cl
HETATM   17  C   UNL     1      43.030 -16.218   1.596  1.00  0.00     0.072 C 
ENDBRANCH   9  10
ENDBRANCH   8   9
ENDBRANCH   7   8
ENDBRANCH   1   7
BRANCH   3  18
HETATM   18  C   UNL     1      40.103 -12.773  -0.468  1.00  0.00     0.071 A 
HETATM   19  C   UNL     1      39.418 -11.658  -1.000  1.00  0.00     0.095 A 
HETATM   20  C   UNL     1      38.533 -11.849  -2.068  1.00  0.00     0.041 A 
HETATM   21  C   UNL     1      38.311 -13.129  -2.583  1.00  0.00     0.026 A 
HETATM   22  C   UNL     1      38.955 -14.226  -2.018  1.00  0.00     0.036 A 
HETATM   23 CL   UNL     1      38.662 -15.802  -2.645  1.00  0.00    -0.084 Cl
HETATM   24  C   UNL     1      39.837 -14.057  -0.954  1.00  0.00     0.056 A 
BRANCH  19  25
HETATM   25  O   UNL     1      39.598 -10.459  -0.359  1.00  0.00    -0.354 OA
HETATM   26  C   UNL     1      38.542  -9.988   0.466  1.00  0.00     0.210 C 
ENDBRANCH  19  25
ENDBRANCH   3  18
TORSDOF 6
ENDMDL
