MODEL 1
REMARK VINA RESULT:      -7.7      0.000      0.000
REMARK  5 active torsions:
REMARK  status: ('A' for Active; 'I' for Inactive)
REMARK    1  A    between atoms: C_4  and  O_5 
REMARK    2  A    between atoms: C_6  and  C_7 
REMARK       I    between atoms: C_7  and  N_8 
REMARK    3  A    between atoms: N_8  and  C_9 
REMARK    4  A    between atoms: C_9  and  C_10 
REMARK    5  A    between atoms: C_10  and  C_11 
ROOT
HETATM    1  C   UNL     1      43.155 -15.832   2.483  1.00  0.00     0.254 C 
HETATM    2  N   UNL     1      42.207 -14.983   3.007  1.00  0.00    -0.356 N 
HETATM    3  O   UNL     1      43.708 -15.618   1.407  1.00  0.00    -0.268 OA
HETATM    4  H   UNL     1      41.729 -15.301   3.846  1.00  0.00     0.162 HD
ENDROOT
BRANCH   2   5
HETATM    5  C   UNL     1      41.695 -13.860   2.245  1.00  0.00     0.136 C 
BRANCH   5   6
HETATM    6  C   UNL     1      40.261 -14.055   1.669  1.00  0.00    -0.004 C 
HETATM    7  C   UNL     1      39.817 -15.531   1.801  1.00  0.00     0.021 C 
HETATM    8  C   UNL     1      39.269 -13.204   2.499  1.00  0.00     0.021 C 
BRANCH   6   9
HETATM    9  C   UNL     1      40.278 -13.673   0.174  1.00  0.00    -0.046 A 
HETATM   10  C   UNL     1      39.686 -14.519  -0.782  1.00  0.00     0.027 A 
HETATM   11  C   UNL     1      39.710 -14.165  -2.124  1.00  0.00     0.116 A 
HETATM   12  N   UNL     1      40.276 -13.036  -2.591  1.00  0.00    -0.273 NA
HETATM   13  C   UNL     1      40.845 -12.231  -1.673  1.00  0.00     0.116 A 
HETATM   14  C   UNL     1      40.872 -12.501  -0.310  1.00  0.00     0.027 A 
ENDBRANCH   6   9
ENDBRANCH   5   6
ENDBRANCH   2   5
BRANCH   1  15
HETATM   15  C   UNL     1      43.482 -17.063   3.272  1.00  0.00     0.065 A 
HETATM   16  C   UNL     1      43.714 -17.089   4.656  1.00  0.00     0.081 A 
HETATM   17  C   UNL     1      43.996 -18.296   5.310  1.00  0.00     0.044 A 
HETATM   18  C   UNL     1      44.060 -19.497   4.591  1.00  0.00    -0.059 A 
HETATM   19  C   UNL     1      44.328 -20.800   5.286  1.00  0.00     0.048 C 
HETATM   20  C   UNL     1      43.824 -19.477   3.213  1.00  0.00     0.008 A 
HETATM   21  C   UNL     1      43.542 -18.274   2.562  1.00  0.00     0.020 A 
BRANCH  16  22
HETATM   22  O   UNL     1      43.657 -15.940   5.405  1.00  0.00    -0.360 OA
HETATM   23  H   UNL     1      42.967 -15.362   5.036  1.00  0.00     0.217 HD
ENDBRANCH  16  22
ENDBRANCH   1  15
TORSDOF 5
ENDMDL
MODEL 2
REMARK VINA RESULT:      -7.6      4.067      6.185
REMARK  5 active torsions:
REMARK  status: ('A' for Active; 'I' for Inactive)
REMARK    1  A    between atoms: C_4  and  O_5 
REMARK    2  A    between atoms: C_6  and  C_7 
REMARK       I    between atoms: C_7  and  N_8 
REMARK    3  A    between atoms: N_8  and  C_9 
REMARK    4  A    between atoms: C_9  and  C_10 
REMARK    5  A    between atoms: C_10  and  C_11 
ROOT
HETATM    1  C   UNL     1      43.912 -16.246   5.693  1.00  0.00     0.254 C 
HETATM    2  N   UNL     1      43.016 -15.200   5.684  1.00  0.00    -0.356 N 
HETATM    3  O   UNL     1      44.805 -16.340   6.530  1.00  0.00    -0.268 OA
HETATM    4  H   UNL     1      42.384 -15.153   4.888  1.00  0.00     0.162 HD
ENDROOT
BRANCH   2   5
HETATM    5  C   UNL     1      43.169 -14.067   6.575  1.00  0.00     0.136 C 
BRANCH   5   6
HETATM    6  C   UNL     1      42.932 -12.676   5.917  1.00  0.00    -0.004 C 
HETATM    7  C   UNL     1      43.336 -12.703   4.424  1.00  0.00     0.021 C 
HETATM    8  C   UNL     1      41.421 -12.346   5.975  1.00  0.00     0.021 C 
BRANCH   6   9
HETATM    9  C   UNL     1      43.805 -11.633   6.648  1.00  0.00    -0.046 A 
HETATM   10  C   UNL     1      45.200 -11.798   6.718  1.00  0.00     0.027 A 
HETATM   11  C   UNL     1      45.973 -10.854   7.381  1.00  0.00     0.116 A 
HETATM   12  N   UNL     1      45.468  -9.759   7.979  1.00  0.00    -0.273 NA
HETATM   13  C   UNL     1      44.131  -9.608   7.914  1.00  0.00     0.116 A 
HETATM   14  C   UNL     1      43.275 -10.498   7.275  1.00  0.00     0.027 A 
ENDBRANCH   6   9
ENDBRANCH   5   6
ENDBRANCH   2   5
BRANCH   1  15
HETATM   15  C   UNL     1      43.773 -17.276   4.613  1.00  0.00     0.065 A 
HETATM   16  C   UNL     1      43.290 -17.020   3.321  1.00  0.00     0.081 A 
HETATM   17  C   UNL     1      43.214 -18.047   2.371  1.00  0.00     0.044 A 
HETATM   18  C   UNL     1      43.612 -19.350   2.698  1.00  0.00    -0.059 A 
HETATM   19  C   UNL     1      43.566 -20.451   1.678  1.00  0.00     0.048 C 
HETATM   20  C   UNL     1      44.100 -19.608   3.982  1.00  0.00     0.008 A 
HETATM   21  C   UNL     1      44.176 -18.584   4.928  1.00  0.00     0.020 A 
BRANCH  16  22
HETATM   22  O   UNL     1      42.892 -15.759   2.950  1.00  0.00    -0.360 OA
HETATM   23  H   UNL     1      42.500 -15.806   2.060  1.00  0.00     0.217 HD
ENDBRANCH  16  22
ENDBRANCH   1  15
TORSDOF 5
ENDMDL
MODEL 3
REMARK VINA RESULT:      -7.5      2.344      7.648
REMARK  5 active torsions:
REMARK  status: ('A' for Active; 'I' for Inactive)
REMARK    1  A    between atoms: C_4  and  O_5 
REMARK    2  A    between atoms: C_6  and  C_7 
REMARK       I    between atoms: C_7  and  N_8 
REMARK    3  A    between atoms: N_8  and  C_9 
REMARK    4  A    between atoms: C_9  and  C_10 
REMARK    5  A    between atoms: C_10  and  C_11 
ROOT
HETATM    1  C   UNL     1      40.062 -15.258   0.567  1.00  0.00     0.254 C 
HETATM    2  N   UNL     1      40.902 -14.983   1.622  1.00  0.00    -0.356 N 
HETATM    3  O   UNL     1      39.490 -16.338   0.444  1.00  0.00    -0.268 OA
HETATM    4  H   UNL     1      41.412 -14.105   1.578  1.00  0.00     0.162 HD
ENDROOT
BRANCH   2   5
HETATM    5  C   UNL     1      41.280 -16.010   2.573  1.00  0.00     0.136 C 
BRANCH   5   6
HETATM    6  C   UNL     1      42.801 -16.077   2.900  1.00  0.00    -0.004 C 
HETATM    7  C   UNL     1      43.635 -15.499   1.732  1.00  0.00     0.021 C 
HETATM    8  C   UNL     1      43.085 -15.197   4.142  1.00  0.00     0.021 C 
BRANCH   6   9
HETATM    9  C   UNL     1      43.194 -17.555   3.107  1.00  0.00    -0.046 A 
HETATM   10  C   UNL     1      42.931 -18.506   2.105  1.00  0.00     0.027 A 
HETATM   11  C   UNL     1      43.287 -19.834   2.305  1.00  0.00     0.116 A 
HETATM   12  N   UNL     1      43.884 -20.289   3.422  1.00  0.00    -0.273 NA
HETATM   13  C   UNL     1      44.130 -19.376   4.381  1.00  0.00     0.116 A 
HETATM   14  C   UNL     1      43.810 -18.027   4.273  1.00  0.00     0.027 A 
ENDBRANCH   6   9
ENDBRANCH   5   6
ENDBRANCH   2   5
BRANCH   1  15
HETATM   15  C   UNL     1      39.880 -14.182  -0.461  1.00  0.00     0.065 A 
HETATM   16  C   UNL     1      39.196 -14.343  -1.676  1.00  0.00     0.081 A 
HETATM   17  C   UNL     1      39.063 -13.270  -2.567  1.00  0.00     0.044 A 
HETATM   18  C   UNL     1      39.618 -12.021  -2.265  1.00  0.00    -0.059 A 
HETATM   19  C   UNL     1      39.453 -10.855  -3.196  1.00  0.00     0.048 C 
HETATM   20  C   UNL     1      40.295 -11.854  -1.053  1.00  0.00     0.008 A 
HETATM   21  C   UNL     1      40.427 -12.924  -0.164  1.00  0.00     0.020 A 
BRANCH  16  22
HETATM   22  O   UNL     1      38.630 -15.547  -2.016  1.00  0.00    -0.360 OA
HETATM   23  H   UNL     1      39.011 -16.241  -1.451  1.00  0.00     0.217 HD
ENDBRANCH  16  22
ENDBRANCH   1  15
TORSDOF 5
ENDMDL
MODEL 4
REMARK VINA RESULT:      -7.5      3.783      5.884
REMARK  5 active torsions:
REMARK  status: ('A' for Active; 'I' for Inactive)
REMARK    1  A    between atoms: C_4  and  O_5 
REMARK    2  A    between atoms: C_6  and  C_7 
REMARK       I    between atoms: C_7  and  N_8 
REMARK    3  A    between atoms: N_8  and  C_9 
REMARK    4  A    between atoms: C_9  and  C_10 
REMARK    5  A    between atoms: C_10  and  C_11 
ROOT
HETATM    1  C   UNL     1      42.715 -14.919   5.138  1.00  0.00     0.254 C 
HETATM    2  N   UNL     1      42.030 -13.969   4.414  1.00  0.00    -0.356 N 
HETATM    3  O   UNL     1      43.055 -14.739   6.304  1.00  0.00    -0.268 OA
HETATM    4  H   UNL     1      41.890 -14.167   3.426  1.00  0.00     0.162 HD
ENDROOT
BRANCH   2   5
HETATM    5  C   UNL     1      41.801 -12.638   4.941  1.00  0.00     0.136 C 
BRANCH   5   6
HETATM    6  C   UNL     1      42.905 -11.595   4.596  1.00  0.00    -0.004 C 
HETATM    7  C   UNL     1      43.795 -12.106   3.439  1.00  0.00     0.021 C 
HETATM    8  C   UNL     1      42.226 -10.292   4.107  1.00  0.00     0.021 C 
BRANCH   6   9
HETATM    9  C   UNL     1      43.786 -11.382   5.845  1.00  0.00    -0.046 A 
HETATM   10  C   UNL     1      45.189 -11.394   5.734  1.00  0.00     0.027 A 
HETATM   11  C   UNL     1      45.970 -11.205   6.866  1.00  0.00     0.116 A 
HETATM   12  N   UNL     1      45.468 -11.004   8.099  1.00  0.00    -0.273 NA
HETATM   13  C   UNL     1      44.125 -10.999   8.201  1.00  0.00     0.116 A 
HETATM   14  C   UNL     1      43.260 -11.181   7.127  1.00  0.00     0.027 A 
ENDBRANCH   6   9
ENDBRANCH   5   6
ENDBRANCH   2   5
BRANCH   1  15
HETATM   15  C   UNL     1      43.060 -16.197   4.435  1.00  0.00     0.065 A 
HETATM   16  C   UNL     1      43.795 -17.249   5.003  1.00  0.00     0.081 A 
HETATM   17  C   UNL     1      44.052 -18.416   4.271  1.00  0.00     0.044 A 
HETATM   18  C   UNL     1      43.587 -18.549   2.957  1.00  0.00    -0.059 A 
HETATM   19  C   UNL     1      43.827 -19.808   2.175  1.00  0.00     0.048 C 
HETATM   20  C   UNL     1      42.848 -17.507   2.389  1.00  0.00     0.008 A 
HETATM   21  C   UNL     1      42.592 -16.343   3.119  1.00  0.00     0.020 A 
BRANCH  16  22
HETATM   22  O   UNL     1      44.269 -17.169   6.289  1.00  0.00    -0.360 OA
HETATM   23  H   UNL     1      43.579 -16.776   6.851  1.00  0.00     0.217 HD
ENDBRANCH  16  22
ENDBRANCH   1  15
TORSDOF 5
ENDMDL
MODEL 5
REMARK VINA RESULT:      -7.4      4.560      6.808
REMARK  5 active torsions:
REMARK  status: ('A' for Active; 'I' for Inactive)
REMARK    1  A    between atoms: C_4  and  O_5 
REMARK    2  A    between atoms: C_6  and  C_7 
REMARK       I    between atoms: C_7  and  N_8 
REMARK    3  A    between atoms: N_8  and  C_9 
REMARK    4  A    between atoms: C_9  and  C_10 
REMARK    5  A    between atoms: C_10  and  C_11 
ROOT
HETATM    1  C   UNL     1      43.604 -12.290   4.631  1.00  0.00     0.254 C 
HETATM    2  N   UNL     1      42.988 -13.517   4.738  1.00  0.00    -0.356 N 
HETATM    3  O   UNL     1      43.704 -11.693   3.563  1.00  0.00    -0.268 OA
HETATM    4  H   UNL     1      43.053 -13.979   5.641  1.00  0.00     0.162 HD
ENDROOT
BRANCH   2   5
HETATM    5  C   UNL     1      42.553 -14.247   3.563  1.00  0.00     0.136 C 
BRANCH   5   6
HETATM    6  C   UNL     1      41.669 -15.495   3.855  1.00  0.00    -0.004 C 
HETATM    7  C   UNL     1      41.106 -15.440   5.295  1.00  0.00     0.021 C 
HETATM    8  C   UNL     1      40.457 -15.486   2.891  1.00  0.00     0.021 C 
BRANCH   6   9
HETATM    9  C   UNL     1      42.543 -16.759   3.711  1.00  0.00    -0.046 A 
HETATM   10  C   UNL     1      42.530 -17.499   2.514  1.00  0.00     0.027 A 
HETATM   11  C   UNL     1      43.319 -18.635   2.399  1.00  0.00     0.116 A 
HETATM   12  N   UNL     1      44.120 -19.094   3.380  1.00  0.00    -0.273 NA
HETATM   13  C   UNL     1      44.125 -18.386   4.525  1.00  0.00     0.116 A 
HETATM   14  C   UNL     1      43.370 -17.238   4.735  1.00  0.00     0.027 A 
ENDBRANCH   6   9
ENDBRANCH   5   6
ENDBRANCH   2   5
BRANCH   1  15
HETATM   15  C   UNL     1      44.182 -11.703   5.884  1.00  0.00     0.065 A 
HETATM   16  C   UNL     1      45.476 -11.174   5.998  1.00  0.00     0.081 A 
HETATM   17  C   UNL     1      45.921 -10.630   7.210  1.00  0.00     0.044 A 
HETATM   18  C   UNL     1      45.083 -10.612   8.332  1.00  0.00    -0.059 A 
HETATM   19  C   UNL     1      45.537 -10.001   9.626  1.00  0.00     0.048 C 
HETATM   20  C   UNL     1      43.790 -11.132   8.222  1.00  0.00     0.008 A 
HETATM   21  C   UNL     1      43.347 -11.674   7.013  1.00  0.00     0.020 A 
BRANCH  16  22
HETATM   22  O   UNL     1      46.334 -11.164   4.925  1.00  0.00    -0.360 OA
HETATM   23  H   UNL     1      45.813 -11.267   4.110  1.00  0.00     0.217 HD
ENDBRANCH  16  22
ENDBRANCH   1  15
TORSDOF 5
ENDMDL
MODEL 6
REMARK VINA RESULT:      -7.4      4.691      6.974
REMARK  5 active torsions:
REMARK  status: ('A' for Active; 'I' for Inactive)
REMARK    1  A    between atoms: C_4  and  O_5 
REMARK    2  A    between atoms: C_6  and  C_7 
REMARK       I    between atoms: C_7  and  N_8 
REMARK    3  A    between atoms: N_8  and  C_9 
REMARK    4  A    between atoms: C_9  and  C_10 
REMARK    5  A    between atoms: C_10  and  C_11 
ROOT
HETATM    1  C   UNL     1      43.822 -12.012   4.726  1.00  0.00     0.254 C 
HETATM    2  N   UNL     1      43.091 -13.179   4.743  1.00  0.00    -0.356 N 
HETATM    3  O   UNL     1      44.196 -11.485   3.682  1.00  0.00    -0.268 OA
HETATM    4  H   UNL     1      42.923 -13.594   5.656  1.00  0.00     0.162 HD
ENDROOT
BRANCH   2   5
HETATM    5  C   UNL     1      42.848 -13.936   3.531  1.00  0.00     0.136 C 
BRANCH   5   6
HETATM    6  C   UNL     1      41.890 -15.152   3.695  1.00  0.00    -0.004 C 
HETATM    7  C   UNL     1      41.133 -15.072   5.042  1.00  0.00     0.021 C 
HETATM    8  C   UNL     1      40.826 -15.106   2.571  1.00  0.00     0.021 C 
BRANCH   6   9
HETATM    9  C   UNL     1      42.732 -16.446   3.674  1.00  0.00    -0.046 A 
HETATM   10  C   UNL     1      43.516 -16.800   4.787  1.00  0.00     0.027 A 
HETATM   11  C   UNL     1      44.271 -17.965   4.755  1.00  0.00     0.116 A 
HETATM   12  N   UNL     1      44.307 -18.805   3.703  1.00  0.00    -0.273 NA
HETATM   13  C   UNL     1      43.559 -18.459   2.638  1.00  0.00     0.116 A 
HETATM   14  C   UNL     1      42.773 -17.315   2.576  1.00  0.00     0.027 A 
ENDBRANCH   6   9
ENDBRANCH   5   6
ENDBRANCH   2   5
BRANCH   1  15
HETATM   15  C   UNL     1      44.173 -11.405   6.050  1.00  0.00     0.065 A 
HETATM   16  C   UNL     1      43.242 -11.016   7.025  1.00  0.00     0.081 A 
HETATM   17  C   UNL     1      43.669 -10.473   8.244  1.00  0.00     0.044 A 
HETATM   18  C   UNL     1      45.034 -10.301   8.507  1.00  0.00    -0.059 A 
HETATM   19  C   UNL     1      45.504  -9.751   9.822  1.00  0.00     0.048 C 
HETATM   20  C   UNL     1      45.966 -10.693   7.542  1.00  0.00     0.008 A 
HETATM   21  C   UNL     1      45.539 -11.235   6.327  1.00  0.00     0.020 A 
BRANCH  16  22
HETATM   22  O   UNL     1      41.893 -11.169   6.817  1.00  0.00    -0.360 OA
HETATM   23  H   UNL     1      41.419 -10.843   7.602  1.00  0.00     0.217 HD
ENDBRANCH  16  22
ENDBRANCH   1  15
TORSDOF 5
ENDMDL
MODEL 7
REMARK VINA RESULT:      -7.4      3.169      7.194
REMARK  5 active torsions:
REMARK  status: ('A' for Active; 'I' for Inactive)
REMARK    1  A    between atoms: C_4  and  O_5 
REMARK    2  A    between atoms: C_6  and  C_7 
REMARK       I    between atoms: C_7  and  N_8 
REMARK    3  A    between atoms: N_8  and  C_9 
REMARK    4  A    between atoms: C_9  and  C_10 
REMARK    5  A    between atoms: C_10  and  C_11 
ROOT
HETATM    1  C   UNL     1      40.190 -14.345   3.356  1.00  0.00     0.254 C 
HETATM    2  N   UNL     1      40.920 -15.321   3.996  1.00  0.00    -0.356 N 
HETATM    3  O   UNL     1      39.771 -14.481   2.210  1.00  0.00    -0.268 OA
HETATM    4  H   UNL     1      41.315 -15.072   4.900  1.00  0.00     0.162 HD
ENDROOT
BRANCH   2   5
HETATM    5  C   UNL     1      41.367 -16.510   3.297  1.00  0.00     0.136 C 
BRANCH   5   6
HETATM    6  C   UNL     1      42.912 -16.657   3.169  1.00  0.00    -0.004 C 
HETATM    7  C   UNL     1      43.409 -16.046   1.838  1.00  0.00     0.021 C 
HETATM    8  C   UNL     1      43.586 -15.864   4.315  1.00  0.00     0.021 C 
BRANCH   6   9
HETATM    9  C   UNL     1      43.265 -18.160   3.188  1.00  0.00    -0.046 A 
HETATM   10  C   UNL     1      42.979 -18.970   2.074  1.00  0.00     0.027 A 
HETATM   11  C   UNL     1      43.300 -20.321   2.105  1.00  0.00     0.116 A 
HETATM   12  N   UNL     1      43.881 -20.929   3.156  1.00  0.00    -0.273 NA
HETATM   13  C   UNL     1      44.148 -20.150   4.222  1.00  0.00     0.116 A 
HETATM   14  C   UNL     1      43.864 -18.791   4.286  1.00  0.00     0.027 A 
ENDBRANCH   6   9
ENDBRANCH   5   6
ENDBRANCH   2   5
BRANCH   1  15
HETATM   15  C   UNL     1      39.936 -13.075   4.111  1.00  0.00     0.065 A 
HETATM   16  C   UNL     1      39.652 -13.003   5.483  1.00  0.00     0.081 A 
HETATM   17  C   UNL     1      39.447 -11.764   6.105  1.00  0.00     0.044 A 
HETATM   18  C   UNL     1      39.513 -10.577   5.365  1.00  0.00    -0.059 A 
HETATM   19  C   UNL     1      39.327  -9.242   6.026  1.00  0.00     0.048 C 
HETATM   20  C   UNL     1      39.801 -10.643   3.998  1.00  0.00     0.008 A 
HETATM   21  C   UNL     1      40.006 -11.879   3.379  1.00  0.00     0.020 A 
BRANCH  16  22
HETATM   22  O   UNL     1      39.582 -14.137   6.253  1.00  0.00    -0.360 OA
HETATM   23  H   UNL     1      38.659 -14.446   6.269  1.00  0.00     0.217 HD
ENDBRANCH  16  22
ENDBRANCH   1  15
TORSDOF 5
ENDMDL
MODEL 8
REMARK VINA RESULT:      -7.3      2.534      7.627
REMARK  5 active torsions:
REMARK  status: ('A' for Active; 'I' for Inactive)
REMARK    1  A    between atoms: C_4  and  O_5 
REMARK    2  A    between atoms: C_6  and  C_7 
REMARK       I    between atoms: C_7  and  N_8 
REMARK    3  A    between atoms: N_8  and  C_9 
REMARK    4  A    between atoms: C_9  and  C_10 
REMARK    5  A    between atoms: C_10  and  C_11 
ROOT
HETATM    1  C   UNL     1      40.311 -14.248   1.676  1.00  0.00     0.254 C 
HETATM    2  N   UNL     1      40.901 -15.456   1.380  1.00  0.00    -0.356 N 
HETATM    3  O   UNL     1      40.174 -13.847   2.829  1.00  0.00    -0.268 OA
HETATM    4  H   UNL     1      40.869 -15.749   0.406  1.00  0.00     0.162 HD
ENDROOT
BRANCH   2   5
HETATM    5  C   UNL     1      41.262 -16.396   2.423  1.00  0.00     0.136 C 
BRANCH   5   6
HETATM    6  C   UNL     1      42.778 -16.433   2.780  1.00  0.00    -0.004 C 
HETATM    7  C   UNL     1      43.626 -15.871   1.614  1.00  0.00     0.021 C 
HETATM    8  C   UNL     1      43.025 -15.520   4.005  1.00  0.00     0.021 C 
BRANCH   6   9
HETATM    9  C   UNL     1      43.187 -17.900   3.029  1.00  0.00    -0.046 A 
HETATM   10  C   UNL     1      43.811 -18.268   4.235  1.00  0.00     0.027 A 
HETATM   11  C   UNL     1      44.176 -19.591   4.446  1.00  0.00     0.116 A 
HETATM   12  N   UNL     1      43.971 -20.577   3.552  1.00  0.00    -0.273 NA
HETATM   13  C   UNL     1      43.378 -20.219   2.397  1.00  0.00     0.116 A 
HETATM   14  C   UNL     1      42.978 -18.922   2.094  1.00  0.00     0.027 A 
ENDBRANCH   6   9
ENDBRANCH   5   6
ENDBRANCH   2   5
BRANCH   1  15
HETATM   15  C   UNL     1      39.808 -13.431   0.525  1.00  0.00     0.065 A 
HETATM   16  C   UNL     1      38.804 -12.455   0.613  1.00  0.00     0.081 A 
HETATM   17  C   UNL     1      38.414 -11.727  -0.519  1.00  0.00     0.044 A 
HETATM   18  C   UNL     1      39.013 -11.969  -1.761  1.00  0.00    -0.059 A 
HETATM   19  C   UNL     1      38.627 -11.174  -2.974  1.00  0.00     0.048 C 
HETATM   20  C   UNL     1      40.018 -12.937  -1.854  1.00  0.00     0.008 A 
HETATM   21  C   UNL     1      40.407 -13.661  -0.725  1.00  0.00     0.020 A 
BRANCH  16  22
HETATM   22  O   UNL     1      38.190 -12.177   1.809  1.00  0.00    -0.360 OA
HETATM   23  H   UNL     1      38.448 -11.282   2.091  1.00  0.00     0.217 HD
ENDBRANCH  16  22
ENDBRANCH   1  15
TORSDOF 5
ENDMDL
MODEL 9
REMARK VINA RESULT:      -7.3      2.892      7.449
REMARK  5 active torsions:
REMARK  status: ('A' for Active; 'I' for Inactive)
REMARK    1  A    between atoms: C_4  and  O_5 
REMARK    2  A    between atoms: C_6  and  C_7 
REMARK       I    between atoms: C_7  and  N_8 
REMARK    3  A    between atoms: N_8  and  C_9 
REMARK    4  A    between atoms: C_9  and  C_10 
REMARK    5  A    between atoms: C_10  and  C_11 
ROOT
HETATM    1  C   UNL     1      40.006 -14.587   2.517  1.00  0.00     0.254 C 
HETATM    2  N   UNL     1      40.692 -15.389   3.401  1.00  0.00    -0.356 N 
HETATM    3  O   UNL     1      39.727 -14.951   1.378  1.00  0.00    -0.268 OA
HETATM    4  H   UNL     1      40.971 -14.959   4.279  1.00  0.00     0.162 HD
ENDROOT
BRANCH   2   5
HETATM    5  C   UNL     1      41.257 -16.659   2.987  1.00  0.00     0.136 C 
BRANCH   5   6
HETATM    6  C   UNL     1      42.812 -16.729   3.021  1.00  0.00    -0.004 C 
HETATM    7  C   UNL     1      43.415 -16.105   1.739  1.00  0.00     0.021 C 
HETATM    8  C   UNL     1      43.324 -15.893   4.219  1.00  0.00     0.021 C 
BRANCH   6   9
HETATM    9  C   UNL     1      43.234 -18.212   3.097  1.00  0.00    -0.046 A 
HETATM   10  C   UNL     1      43.816 -18.725   4.271  1.00  0.00     0.027 A 
HETATM   11  C   UNL     1      44.194 -20.060   4.325  1.00  0.00     0.116 A 
HETATM   12  N   UNL     1      44.038 -20.925   3.306  1.00  0.00    -0.273 NA
HETATM   13  C   UNL     1      43.486 -20.428   2.182  1.00  0.00     0.116 A 
HETATM   14  C   UNL     1      43.077 -19.108   2.032  1.00  0.00     0.027 A 
ENDBRANCH   6   9
ENDBRANCH   5   6
ENDBRANCH   2   5
BRANCH   1  15
HETATM   15  C   UNL     1      39.623 -13.218   2.990  1.00  0.00     0.065 A 
HETATM   16  C   UNL     1      38.972 -12.253   2.207  1.00  0.00     0.081 A 
HETATM   17  C   UNL     1      38.638 -11.003   2.746  1.00  0.00     0.044 A 
HETATM   18  C   UNL     1      38.957 -10.692   4.074  1.00  0.00    -0.059 A 
HETATM   19  C   UNL     1      38.575  -9.370   4.672  1.00  0.00     0.048 C 
HETATM   20  C   UNL     1      39.600 -11.653   4.860  1.00  0.00     0.008 A 
HETATM   21  C   UNL     1      39.933 -12.899   4.323  1.00  0.00     0.020 A 
BRANCH  16  22
HETATM   22  O   UNL     1      38.633 -12.511   0.902  1.00  0.00    -0.360 OA
HETATM   23  H   UNL     1      38.574 -11.666   0.423  1.00  0.00     0.217 HD
ENDBRANCH  16  22
ENDBRANCH   1  15
TORSDOF 5
ENDMDL
MODEL 10
REMARK VINA RESULT:      -7.0      2.304      7.395
REMARK  5 active torsions:
REMARK  status: ('A' for Active; 'I' for Inactive)
REMARK    1  A    between atoms: C_4  and  O_5 
REMARK    2  A    between atoms: C_6  and  C_7 
REMARK       I    between atoms: C_7  and  N_8 
REMARK    3  A    between atoms: N_8  and  C_9 
REMARK    4  A    between atoms: C_9  and  C_10 
REMARK    5  A    between atoms: C_10  and  C_11 
ROOT
HETATM    1  C   UNL     1      41.611 -13.768   1.092  1.00  0.00     0.254 C 
HETATM    2  N   UNL     1      42.281 -14.955   0.895  1.00  0.00    -0.356 N 
HETATM    3  O   UNL     1      41.917 -12.978   1.981  1.00  0.00    -0.268 OA
HETATM    4  H   UNL     1      41.884 -15.590   0.208  1.00  0.00     0.162 HD
ENDROOT
BRANCH   2   5
HETATM    5  C   UNL     1      43.297 -15.411   1.824  1.00  0.00     0.136 C 
BRANCH   5   6
HETATM    6  C   UNL     1      42.834 -16.523   2.811  1.00  0.00    -0.004 C 
HETATM    7  C   UNL     1      41.294 -16.669   2.785  1.00  0.00     0.021 C 
HETATM    8  C   UNL     1      43.428 -17.877   2.352  1.00  0.00     0.021 C 
BRANCH   6   9
HETATM    9  C   UNL     1      43.271 -16.126   4.237  1.00  0.00    -0.046 A 
HETATM   10  C   UNL     1      42.901 -14.879   4.772  1.00  0.00     0.027 A 
HETATM   11  C   UNL     1      43.303 -14.533   6.055  1.00  0.00     0.116 A 
HETATM   12  N   UNL     1      44.044 -15.330   6.848  1.00  0.00    -0.273 NA
HETATM   13  C   UNL     1      44.400 -16.521   6.330  1.00  0.00     0.116 A 
HETATM   14  C   UNL     1      44.047 -16.955   5.058  1.00  0.00     0.027 A 
ENDBRANCH   6   9
ENDBRANCH   5   6
ENDBRANCH   2   5
BRANCH   1  15
HETATM   15  C   UNL     1      40.455 -13.476   0.183  1.00  0.00     0.065 A 
HETATM   16  C   UNL     1      39.741 -12.269   0.159  1.00  0.00     0.081 A 
HETATM   17  C   UNL     1      38.684 -12.082  -0.742  1.00  0.00     0.044 A 
HETATM   18  C   UNL     1      38.317 -13.102  -1.629  1.00  0.00    -0.059 A 
HETATM   19  C   UNL     1      37.209 -12.902  -2.621  1.00  0.00     0.048 C 
HETATM   20  C   UNL     1      39.030 -14.305  -1.613  1.00  0.00     0.008 A 
HETATM   21  C   UNL     1      40.084 -14.490  -0.715  1.00  0.00     0.020 A 
BRANCH  16  22
HETATM   22  O   UNL     1      40.065 -11.237   1.005  1.00  0.00    -0.360 OA
HETATM   23  H   UNL     1      40.228 -10.438   0.473  1.00  0.00     0.217 HD
ENDBRANCH  16  22
ENDBRANCH   1  15
TORSDOF 5
ENDMDL
