MODEL 1
REMARK VINA RESULT:      -8.6      0.000      0.000
REMARK  8 active torsions:
REMARK  status: ('A' for Active; 'I' for Inactive)
REMARK    1  A    between atoms: C_3  and  N_4 
REMARK       I    between atoms: N_4  and  C_5 
REMARK    2  A    between atoms: C_5  and  C_6 
REMARK    3  A    between atoms: C_7  and  C_8 
REMARK    4  A    between atoms: C_17  and  C_18 
REMARK    5  A    between atoms: C_20  and  O_21 
REMARK    6  A    between atoms: C_23  and  O_24 
REMARK    7  A    between atoms: O_24  and  C_25 
REMARK    8  A    between atoms: C_25  and  C_26 
REMARK       I    between atoms: C_26  and  N_27 
ROOT
HETATM    1  C   UNL     1      41.528 -14.691   2.433  1.00  0.00     0.062 C 
HETATM    2  C   UNL     1      41.808 -13.802   3.620  1.00  0.00     0.176 C 
HETATM    3  N   UNL     1      41.000 -12.596   3.513  1.00  0.00    -0.277 N 
HETATM    4  C   UNL     1      39.925 -12.544   2.685  1.00  0.00     0.177 C 
HETATM    5  S   UNL     1      39.023 -11.074   2.911  1.00  0.00    -0.046 SA
HETATM    6  C   UNL     1      40.068 -10.553   4.188  1.00  0.00     0.077 C 
HETATM    7  C   UNL     1      39.784  -9.512   4.984  1.00  0.00     0.036 C 
HETATM    8  C   UNL     1      41.224 -11.495   4.305  1.00  0.00     0.267 C 
HETATM    9  O   UNL     1      42.222 -11.293   4.978  1.00  0.00    -0.266 OA
HETATM   10  N   UNL     1      39.597 -13.434   1.813  1.00  0.00    -0.228 NA
HETATM   11  C   UNL     1      40.443 -14.511   1.651  1.00  0.00     0.047 C 
HETATM   12  C   UNL     1      40.014 -15.456   0.557  1.00  0.00     0.071 C 
ENDROOT
BRANCH   7  13
HETATM   13  C   UNL     1      40.540  -9.164   6.188  1.00  0.00    -0.032 A 
HETATM   14  C   UNL     1      40.086  -9.621   7.437  1.00  0.00     0.051 A 
HETATM   15  C   UNL     1      40.807  -9.341   8.601  1.00  0.00     0.102 A 
HETATM   16  C   UNL     1      41.989  -8.589   8.503  1.00  0.00     0.102 A 
HETATM   17  C   UNL     1      42.447  -8.137   7.262  1.00  0.00     0.040 A 
HETATM   18  C   UNL     1      41.717  -8.417   6.106  1.00  0.00     0.014 A 
BRANCH  15  19
HETATM   19  O   UNL     1      40.448  -9.735   9.865  1.00  0.00    -0.353 OA
HETATM   20  C   UNL     1      39.330  -9.086  10.456  1.00  0.00     0.210 C 
ENDBRANCH  15  19
BRANCH  16  21
HETATM   21  O   UNL     1      42.710  -8.392   9.652  1.00  0.00    -0.339 OA
BRANCH  21  22
HETATM   22  C   UNL     1      44.028  -8.939   9.605  1.00  0.00     0.278 C 
BRANCH  22  23
HETATM   23  C   UNL     1      43.950 -10.448   9.816  1.00  0.00     0.239 C 
HETATM   24  N   UNL     1      43.229 -10.851  10.905  1.00  0.00    -0.368 N 
HETATM   25  H   UNL     1      42.621 -10.181  11.367  1.00  0.00     0.159 HD
HETATM   26  H   UNL     1      43.076 -11.839  11.044  1.00  0.00     0.159 HD
HETATM   27  O   UNL     1      44.533 -11.260   9.104  1.00  0.00    -0.271 OA
ENDBRANCH  22  23
ENDBRANCH  21  22
ENDBRANCH  16  21
ENDBRANCH   7  13
BRANCH   2  28
HETATM   28  C   UNL     1      41.482 -14.436   4.966  1.00  0.00     0.011 A 
HETATM   29  S   UNL     1      42.685 -14.501   6.193  1.00  0.00    -0.104 SA
HETATM   30  C   UNL     1      41.619 -15.260   7.290  1.00  0.00     0.050 A 
HETATM   31  C   UNL     1      40.376 -15.474   6.741  1.00  0.00     0.008 A 
HETATM   32  C   UNL     1      40.296 -15.001   5.400  1.00  0.00     0.017 A 
ENDBRANCH   2  28
BRANCH   1  33
HETATM   33  C   UNL     1      42.519 -15.784   2.229  1.00  0.00     0.256 C 
HETATM   34  N   UNL     1      42.204 -16.938   2.918  1.00  0.00    -0.323 N 
HETATM   35  H   UNL     1      41.391 -16.903   3.517  1.00  0.00     0.169 HD
HETATM   36  O   UNL     1      43.462 -15.605   1.471  1.00  0.00    -0.267 OA
BRANCH  34  37
HETATM   37  C   UNL     1      42.908 -18.167   2.907  1.00  0.00     0.041 A 
HETATM   38  C   UNL     1      43.769 -18.472   3.985  1.00  0.00    -0.035 A 
HETATM   39  C   UNL     1      44.002 -17.520   5.128  1.00  0.00     0.050 C 
HETATM   40  C   UNL     1      44.466 -19.694   3.989  1.00  0.00     0.009 A 
HETATM   41  C   UNL     1      44.313 -20.609   2.951  1.00  0.00     0.001 A 
HETATM   42  C   UNL     1      43.465 -20.311   1.893  1.00  0.00     0.002 A 
HETATM   43  C   UNL     1      42.770 -19.099   1.870  1.00  0.00     0.030 A 
ENDBRANCH  34  37
ENDBRANCH   1  33
TORSDOF 8
ENDMDL
MODEL 2
REMARK VINA RESULT:      -8.2      5.123      6.803
REMARK  8 active torsions:
REMARK  status: ('A' for Active; 'I' for Inactive)
REMARK    1  A    between atoms: C_3  and  N_4 
REMARK       I    between atoms: N_4  and  C_5 
REMARK    2  A    between atoms: C_5  and  C_6 
REMARK    3  A    between atoms: C_7  and  C_8 
REMARK    4  A    between atoms: C_17  and  C_18 
REMARK    5  A    between atoms: C_20  and  O_21 
REMARK    6  A    between atoms: C_23  and  O_24 
REMARK    7  A    between atoms: O_24  and  C_25 
REMARK    8  A    between atoms: C_25  and  C_26 
REMARK       I    between atoms: C_26  and  N_27 
ROOT
HETATM    1  C   UNL     1      40.511 -13.195  -0.100  1.00  0.00     0.062 C 
HETATM    2  C   UNL     1      40.983 -11.783   0.147  1.00  0.00     0.176 C 
HETATM    3  N   UNL     1      41.058 -11.077  -1.123  1.00  0.00    -0.277 N 
HETATM    4  C   UNL     1      40.418 -11.547  -2.225  1.00  0.00     0.177 C 
HETATM    5  S   UNL     1      40.498 -10.407  -3.537  1.00  0.00    -0.046 SA
HETATM    6  C   UNL     1      41.344  -9.252  -2.567  1.00  0.00     0.077 C 
HETATM    7  C   UNL     1      41.542  -7.983  -2.952  1.00  0.00     0.036 C 
HETATM    8  C   UNL     1      41.693  -9.864  -1.248  1.00  0.00     0.267 C 
HETATM    9  O   UNL     1      42.451  -9.370  -0.429  1.00  0.00    -0.266 OA
HETATM   10  N   UNL     1      39.839 -12.693  -2.334  1.00  0.00    -0.228 NA
HETATM   11  C   UNL     1      39.926 -13.556  -1.262  1.00  0.00     0.047 C 
HETATM   12  C   UNL     1      39.284 -14.897  -1.513  1.00  0.00     0.071 C 
ENDROOT
BRANCH   7  13
HETATM   13  C   UNL     1      42.077  -6.932  -2.084  1.00  0.00    -0.032 A 
HETATM   14  C   UNL     1      41.215  -6.282  -1.186  1.00  0.00     0.051 A 
HETATM   15  C   UNL     1      41.702  -5.303  -0.316  1.00  0.00     0.102 A 
HETATM   16  C   UNL     1      43.066  -4.974  -0.359  1.00  0.00     0.102 A 
HETATM   17  C   UNL     1      43.929  -5.622  -1.248  1.00  0.00     0.040 A 
HETATM   18  C   UNL     1      43.432  -6.594  -2.117  1.00  0.00     0.014 A 
BRANCH  15  19
HETATM   19  O   UNL     1      40.945  -4.608   0.594  1.00  0.00    -0.353 OA
HETATM   20  C   UNL     1      39.611  -5.052   0.803  1.00  0.00     0.210 C 
ENDBRANCH  15  19
BRANCH  16  21
HETATM   21  O   UNL     1      43.527  -4.062   0.555  1.00  0.00    -0.339 OA
BRANCH  21  22
HETATM   22  C   UNL     1      44.304  -4.641   1.604  1.00  0.00     0.278 C 
BRANCH  22  23
HETATM   23  C   UNL     1      43.576  -4.447   2.930  1.00  0.00     0.239 C 
HETATM   24  N   UNL     1      42.584  -5.350   3.192  1.00  0.00    -0.368 N 
HETATM   25  H   UNL     1      42.531  -6.198   2.635  1.00  0.00     0.159 HD
HETATM   26  H   UNL     1      42.127  -5.317   4.092  1.00  0.00     0.159 HD
HETATM   27  O   UNL     1      43.809  -3.519   3.698  1.00  0.00    -0.271 OA
ENDBRANCH  22  23
ENDBRANCH  21  22
ENDBRANCH  16  21
ENDBRANCH   7  13
BRANCH   2  28
HETATM   28  C   UNL     1      40.070 -10.968   1.054  1.00  0.00     0.011 A 
HETATM   29  S   UNL     1      40.681 -10.323   2.525  1.00  0.00    -0.104 SA
HETATM   30  C   UNL     1      39.186  -9.590   2.903  1.00  0.00     0.050 A 
HETATM   31  C   UNL     1      38.232  -9.834   1.942  1.00  0.00     0.008 A 
HETATM   32  C   UNL     1      38.739 -10.631   0.875  1.00  0.00     0.017 A 
ENDBRANCH   2  28
BRANCH   1  33
HETATM   33  C   UNL     1      40.712 -14.126   1.045  1.00  0.00     0.256 C 
HETATM   34  N   UNL     1      41.995 -14.632   1.114  1.00  0.00    -0.323 N 
HETATM   35  H   UNL     1      42.628 -14.372   0.371  1.00  0.00     0.169 HD
HETATM   36  O   UNL     1      39.791 -14.328   1.824  1.00  0.00    -0.267 OA
BRANCH  34  37
HETATM   37  C   UNL     1      42.526 -15.503   2.098  1.00  0.00     0.041 A 
HETATM   38  C   UNL     1      42.902 -14.970   3.351  1.00  0.00    -0.035 A 
HETATM   39  C   UNL     1      42.801 -13.503   3.670  1.00  0.00     0.050 C 
HETATM   40  C   UNL     1      43.422 -15.828   4.338  1.00  0.00     0.009 A 
HETATM   41  C   UNL     1      43.565 -17.192   4.099  1.00  0.00     0.001 A 
HETATM   42  C   UNL     1      43.193 -17.716   2.868  1.00  0.00     0.002 A 
HETATM   43  C   UNL     1      42.679 -16.877   1.875  1.00  0.00     0.030 A 
ENDBRANCH  34  37
ENDBRANCH   1  33
TORSDOF 8
ENDMDL
MODEL 3
REMARK VINA RESULT:      -8.1      3.746      8.927
REMARK  8 active torsions:
REMARK  status: ('A' for Active; 'I' for Inactive)
REMARK    1  A    between atoms: C_3  and  N_4 
REMARK       I    between atoms: N_4  and  C_5 
REMARK    2  A    between atoms: C_5  and  C_6 
REMARK    3  A    between atoms: C_7  and  C_8 
REMARK    4  A    between atoms: C_17  and  C_18 
REMARK    5  A    between atoms: C_20  and  O_21 
REMARK    6  A    between atoms: C_23  and  O_24 
REMARK    7  A    between atoms: O_24  and  C_25 
REMARK    8  A    between atoms: C_25  and  C_26 
REMARK       I    between atoms: C_26  and  N_27 
ROOT
HETATM    1  C   UNL     1      43.076 -12.728   4.766  1.00  0.00     0.062 C 
HETATM    2  C   UNL     1      42.358 -12.254   3.526  1.00  0.00     0.176 C 
HETATM    3  N   UNL     1      41.933 -13.409   2.750  1.00  0.00    -0.277 N 
HETATM    4  C   UNL     1      41.875 -14.645   3.309  1.00  0.00     0.177 C 
HETATM    5  S   UNL     1      41.137 -15.793   2.230  1.00  0.00    -0.046 SA
HETATM    6  C   UNL     1      40.840 -14.577   1.036  1.00  0.00     0.077 C 
HETATM    7  C   UNL     1      40.060 -14.782  -0.035  1.00  0.00     0.036 C 
HETATM    8  C   UNL     1      41.484 -13.295   1.456  1.00  0.00     0.267 C 
HETATM    9  O   UNL     1      41.614 -12.313   0.742  1.00  0.00    -0.266 OA
HETATM   10  N   UNL     1      42.320 -14.973   4.473  1.00  0.00    -0.228 NA
HETATM   11  C   UNL     1      42.977 -14.002   5.200  1.00  0.00     0.047 C 
HETATM   12  C   UNL     1      43.527 -14.501   6.513  1.00  0.00     0.071 C 
ENDROOT
BRANCH   7  13
HETATM   13  C   UNL     1      39.629 -13.729  -0.956  1.00  0.00    -0.032 A 
HETATM   14  C   UNL     1      38.613 -12.845  -0.557  1.00  0.00     0.051 A 
HETATM   15  C   UNL     1      38.208 -11.803  -1.397  1.00  0.00     0.102 A 
HETATM   16  C   UNL     1      38.828 -11.659  -2.648  1.00  0.00     0.102 A 
HETATM   17  C   UNL     1      39.843 -12.535  -3.048  1.00  0.00     0.040 A 
HETATM   18  C   UNL     1      40.237 -13.575  -2.204  1.00  0.00     0.014 A 
BRANCH  15  19
HETATM   19  O   UNL     1      37.225 -10.892  -1.104  1.00  0.00    -0.353 OA
HETATM   20  C   UNL     1      37.009 -10.585   0.267  1.00  0.00     0.210 C 
ENDBRANCH  15  19
BRANCH  16  21
HETATM   21  O   UNL     1      38.458 -10.587  -3.418  1.00  0.00    -0.339 OA
BRANCH  21  22
HETATM   22  C   UNL     1      39.527  -9.681  -3.692  1.00  0.00     0.278 C 
BRANCH  22  23
HETATM   23  C   UNL     1      39.699  -8.738  -2.504  1.00  0.00     0.239 C 
HETATM   24  N   UNL     1      38.551  -8.153  -2.048  1.00  0.00    -0.368 N 
HETATM   25  H   UNL     1      37.656  -8.526  -2.353  1.00  0.00     0.159 HD
HETATM   26  H   UNL     1      38.596  -7.587  -1.214  1.00  0.00     0.159 HD
HETATM   27  O   UNL     1      40.790  -8.466  -2.012  1.00  0.00    -0.271 OA
ENDBRANCH  22  23
ENDBRANCH  21  22
ENDBRANCH  16  21
ENDBRANCH   7  13
BRANCH   2  28
HETATM   28  C   UNL     1      41.111 -11.424   3.804  1.00  0.00     0.011 A 
HETATM   29  S   UNL     1      41.011  -9.811   3.218  1.00  0.00    -0.104 SA
HETATM   30  C   UNL     1      39.444  -9.603   3.864  1.00  0.00     0.050 A 
HETATM   31  C   UNL     1      39.001 -10.727   4.522  1.00  0.00     0.008 A 
HETATM   32  C   UNL     1      39.963 -11.778   4.491  1.00  0.00     0.017 A 
ENDBRANCH   2  28
BRANCH   1  33
HETATM   33  C   UNL     1      43.857 -11.675   5.472  1.00  0.00     0.256 C 
HETATM   34  N   UNL     1      43.275 -11.267   6.654  1.00  0.00    -0.323 N 
HETATM   35  H   UNL     1      42.376 -11.670   6.883  1.00  0.00     0.169 HD
HETATM   36  O   UNL     1      44.923 -11.302   5.001  1.00  0.00    -0.267 OA
BRANCH  34  37
HETATM   37  C   UNL     1      43.777 -10.320   7.581  1.00  0.00     0.041 A 
HETATM   38  C   UNL     1      43.145  -9.061   7.683  1.00  0.00    -0.035 A 
HETATM   39  C   UNL     1      41.981  -8.667   6.812  1.00  0.00     0.050 C 
HETATM   40  C   UNL     1      43.629  -8.117   8.607  1.00  0.00     0.009 A 
HETATM   41  C   UNL     1      44.717  -8.409   9.425  1.00  0.00     0.001 A 
HETATM   42  C   UNL     1      45.337  -9.647   9.328  1.00  0.00     0.002 A 
HETATM   43  C   UNL     1      44.871 -10.595   8.412  1.00  0.00     0.030 A 
ENDBRANCH  34  37
ENDBRANCH   1  33
TORSDOF 8
ENDMDL
MODEL 4
REMARK VINA RESULT:      -7.8      4.054     10.661
REMARK  8 active torsions:
REMARK  status: ('A' for Active; 'I' for Inactive)
REMARK    1  A    between atoms: C_3  and  N_4 
REMARK       I    between atoms: N_4  and  C_5 
REMARK    2  A    between atoms: C_5  and  C_6 
REMARK    3  A    between atoms: C_7  and  C_8 
REMARK    4  A    between atoms: C_17  and  C_18 
REMARK    5  A    between atoms: C_20  and  O_21 
REMARK    6  A    between atoms: C_23  and  O_24 
REMARK    7  A    between atoms: O_24  and  C_25 
REMARK    8  A    between atoms: C_25  and  C_26 
REMARK       I    between atoms: C_26  and  N_27 
ROOT
HETATM    1  C   UNL     1      39.031  -7.124  11.215  1.00  0.00     0.062 C 
HETATM    2  C   UNL     1      39.521  -8.346  10.479  1.00  0.00     0.176 C 
HETATM    3  N   UNL     1      39.296  -8.167   9.052  1.00  0.00    -0.277 N 
HETATM    4  C   UNL     1      39.059  -6.935   8.531  1.00  0.00     0.177 C 
HETATM    5  S   UNL     1      39.039  -6.979   6.791  1.00  0.00    -0.046 SA
HETATM    6  C   UNL     1      39.424  -8.665   6.765  1.00  0.00     0.077 C 
HETATM    7  C   UNL     1      39.775  -9.316   5.646  1.00  0.00     0.036 C 
HETATM    8  C   UNL     1      39.404  -9.206   8.159  1.00  0.00     0.267 C 
HETATM    9  O   UNL     1      39.446 -10.391   8.448  1.00  0.00    -0.266 OA
HETATM   10  N   UNL     1      38.845  -5.856   9.201  1.00  0.00    -0.228 NA
HETATM   11  C   UNL     1      38.785  -5.961  10.575  1.00  0.00     0.047 C 
HETATM   12  C   UNL     1      38.456  -4.662  11.265  1.00  0.00     0.071 C 
ENDROOT
BRANCH   7  13
HETATM   13  C   UNL     1      40.293 -10.684   5.616  1.00  0.00    -0.032 A 
HETATM   14  C   UNL     1      41.671 -10.898   5.788  1.00  0.00     0.051 A 
HETATM   15  C   UNL     1      42.192 -12.195   5.805  1.00  0.00     0.102 A 
HETATM   16  C   UNL     1      41.317 -13.281   5.640  1.00  0.00     0.102 A 
HETATM   17  C   UNL     1      39.944 -13.073   5.473  1.00  0.00     0.040 A 
HETATM   18  C   UNL     1      39.434 -11.773   5.452  1.00  0.00     0.014 A 
BRANCH  15  19
HETATM   19  O   UNL     1      43.519 -12.510   5.961  1.00  0.00    -0.353 OA
HETATM   20  C   UNL     1      44.166 -12.033   7.133  1.00  0.00     0.210 C 
ENDBRANCH  15  19
BRANCH  16  21
HETATM   21  O   UNL     1      41.848 -14.541   5.732  1.00  0.00    -0.339 OA
BRANCH  21  22
HETATM   22  C   UNL     1      41.402 -15.270   6.876  1.00  0.00     0.278 C 
BRANCH  22  23
HETATM   23  C   UNL     1      42.612 -15.862   7.593  1.00  0.00     0.239 C 
HETATM   24  N   UNL     1      42.967 -17.123   7.201  1.00  0.00    -0.368 N 
HETATM   25  H   UNL     1      42.577 -17.498   6.341  1.00  0.00     0.159 HD
HETATM   26  H   UNL     1      43.809 -17.527   7.584  1.00  0.00     0.159 HD
HETATM   27  O   UNL     1      43.206 -15.288   8.500  1.00  0.00    -0.271 OA
ENDBRANCH  22  23
ENDBRANCH  21  22
ENDBRANCH  16  21
ENDBRANCH   7  13
BRANCH   2  28
HETATM   28  C   UNL     1      41.006  -8.632  10.660  1.00  0.00     0.011 A 
HETATM   29  S   UNL     1      42.166  -7.444  10.214  1.00  0.00    -0.104 SA
HETATM   30  C   UNL     1      43.467  -8.432  10.710  1.00  0.00     0.050 A 
HETATM   31  C   UNL     1      43.040  -9.646  11.196  1.00  0.00     0.008 A 
HETATM   32  C   UNL     1      41.621  -9.765  11.166  1.00  0.00     0.017 A 
ENDBRANCH   2  28
BRANCH   1  33
HETATM   33  C   UNL     1      38.881  -7.303  12.685  1.00  0.00     0.256 C 
HETATM   34  N   UNL     1      39.980  -6.870  13.400  1.00  0.00    -0.323 N 
HETATM   35  H   UNL     1      40.771  -6.541  12.864  1.00  0.00     0.169 HD
HETATM   36  O   UNL     1      37.835  -7.754  13.132  1.00  0.00    -0.267 OA
BRANCH  34  37
HETATM   37  C   UNL     1      40.143  -6.859  14.808  1.00  0.00     0.041 A 
HETATM   38  C   UNL     1      41.068  -7.749  15.396  1.00  0.00    -0.035 A 
HETATM   39  C   UNL     1      41.860  -8.743  14.588  1.00  0.00     0.050 C 
HETATM   40  C   UNL     1      41.245  -7.740  16.792  1.00  0.00     0.009 A 
HETATM   41  C   UNL     1      40.527  -6.862  17.599  1.00  0.00     0.001 A 
HETATM   42  C   UNL     1      39.619  -5.985  17.021  1.00  0.00     0.002 A 
HETATM   43  C   UNL     1      39.427  -5.985  15.636  1.00  0.00     0.030 A 
ENDBRANCH  34  37
ENDBRANCH   1  33
TORSDOF 8
ENDMDL
MODEL 5
REMARK VINA RESULT:      -7.6      4.331      6.656
REMARK  8 active torsions:
REMARK  status: ('A' for Active; 'I' for Inactive)
REMARK    1  A    between atoms: C_3  and  N_4 
REMARK       I    between atoms: N_4  and  C_5 
REMARK    2  A    between atoms: C_5  and  C_6 
REMARK    3  A    between atoms: C_7  and  C_8 
REMARK    4  A    between atoms: C_17  and  C_18 
REMARK    5  A    between atoms: C_20  and  O_21 
REMARK    6  A    between atoms: C_23  and  O_24 
REMARK    7  A    between atoms: O_24  and  C_25 
REMARK    8  A    between atoms: C_25  and  C_26 
REMARK       I    between atoms: C_26  and  N_27 
ROOT
HETATM    1  C   UNL     1      41.993 -12.564   5.603  1.00  0.00     0.062 C 
HETATM    2  C   UNL     1      40.826 -11.826   4.993  1.00  0.00     0.176 C 
HETATM    3  N   UNL     1      40.754 -10.491   5.565  1.00  0.00    -0.277 N 
HETATM    4  C   UNL     1      41.816  -9.950   6.216  1.00  0.00     0.177 C 
HETATM    5  S   UNL     1      41.533  -8.278   6.608  1.00  0.00    -0.046 SA
HETATM    6  C   UNL     1      39.992  -8.288   5.822  1.00  0.00     0.077 C 
HETATM    7  C   UNL     1      39.294  -7.171   5.572  1.00  0.00     0.036 C 
HETATM    8  C   UNL     1      39.656  -9.681   5.395  1.00  0.00     0.267 C 
HETATM    9  O   UNL     1      38.562 -10.042   4.990  1.00  0.00    -0.266 OA
HETATM   10  N   UNL     1      42.898 -10.567   6.544  1.00  0.00    -0.228 NA
HETATM   11  C   UNL     1      42.970 -11.917   6.272  1.00  0.00     0.047 C 
HETATM   12  C   UNL     1      44.241 -12.564   6.760  1.00  0.00     0.071 C 
ENDROOT
BRANCH   7  13
HETATM   13  C   UNL     1      38.089  -7.119   4.742  1.00  0.00    -0.032 A 
HETATM   14  C   UNL     1      36.829  -7.166   5.362  1.00  0.00     0.051 A 
HETATM   15  C   UNL     1      35.660  -7.078   4.601  1.00  0.00     0.102 A 
HETATM   16  C   UNL     1      35.765  -6.949   3.207  1.00  0.00     0.102 A 
HETATM   17  C   UNL     1      37.017  -6.897   2.586  1.00  0.00     0.040 A 
HETATM   18  C   UNL     1      38.179  -6.992   3.355  1.00  0.00     0.014 A 
BRANCH  15  19
HETATM   19  O   UNL     1      34.384  -7.119   5.107  1.00  0.00    -0.353 OA
HETATM   20  C   UNL     1      34.049  -6.163   6.104  1.00  0.00     0.210 C 
ENDBRANCH  15  19
BRANCH  16  21
HETATM   21  O   UNL     1      34.603  -6.794   2.497  1.00  0.00    -0.339 OA
BRANCH  21  22
HETATM   22  C   UNL     1      34.324  -7.876   1.607  1.00  0.00     0.278 C 
BRANCH  22  23
HETATM   23  C   UNL     1      32.907  -8.380   1.863  1.00  0.00     0.239 C 
HETATM   24  N   UNL     1      32.672  -8.856   3.123  1.00  0.00    -0.368 N 
HETATM   25  H   UNL     1      33.344  -8.652   3.858  1.00  0.00     0.159 HD
HETATM   26  H   UNL     1      31.731  -9.124   3.370  1.00  0.00     0.159 HD
HETATM   27  O   UNL     1      32.037  -8.418   0.998  1.00  0.00    -0.271 OA
ENDBRANCH  22  23
ENDBRANCH  21  22
ENDBRANCH  16  21
ENDBRANCH   7  13
BRANCH   2  28
HETATM   28  C   UNL     1      40.915 -11.657   3.481  1.00  0.00     0.011 A 
HETATM   29  S   UNL     1      39.690 -12.318   2.473  1.00  0.00    -0.104 SA
HETATM   30  C   UNL     1      40.441 -11.726   1.059  1.00  0.00     0.050 A 
HETATM   31  C   UNL     1      41.604 -11.046   1.335  1.00  0.00     0.008 A 
HETATM   32  C   UNL     1      41.882 -11.008   2.732  1.00  0.00     0.017 A 
ENDBRANCH   2  28
BRANCH   1  33
HETATM   33  C   UNL     1      41.985 -14.035   5.374  1.00  0.00     0.256 C 
HETATM   34  N   UNL     1      42.871 -14.437   4.395  1.00  0.00    -0.323 N 
HETATM   35  H   UNL     1      43.375 -13.708   3.910  1.00  0.00     0.169 HD
HETATM   36  O   UNL     1      41.268 -14.746   6.063  1.00  0.00    -0.267 OA
BRANCH  34  37
HETATM   37  C   UNL     1      43.141 -15.761   3.966  1.00  0.00     0.041 A 
HETATM   38  C   UNL     1      42.879 -16.111   2.623  1.00  0.00    -0.035 A 
HETATM   39  C   UNL     1      42.284 -15.142   1.636  1.00  0.00     0.050 C 
HETATM   40  C   UNL     1      43.152 -17.419   2.185  1.00  0.00     0.009 A 
HETATM   41  C   UNL     1      43.681 -18.370   3.053  1.00  0.00     0.001 A 
HETATM   42  C   UNL     1      43.941 -18.026   4.372  1.00  0.00     0.002 A 
HETATM   43  C   UNL     1      43.671 -16.732   4.826  1.00  0.00     0.030 A 
ENDBRANCH  34  37
ENDBRANCH   1  33
TORSDOF 8
ENDMDL
MODEL 6
REMARK VINA RESULT:      -7.5      6.814     10.975
REMARK  8 active torsions:
REMARK  status: ('A' for Active; 'I' for Inactive)
REMARK    1  A    between atoms: C_3  and  N_4 
REMARK       I    between atoms: N_4  and  C_5 
REMARK    2  A    between atoms: C_5  and  C_6 
REMARK    3  A    between atoms: C_7  and  C_8 
REMARK    4  A    between atoms: C_17  and  C_18 
REMARK    5  A    between atoms: C_20  and  O_21 
REMARK    6  A    between atoms: C_23  and  O_24 
REMARK    7  A    between atoms: O_24  and  C_25 
REMARK    8  A    between atoms: C_25  and  C_26 
REMARK       I    between atoms: C_26  and  N_27 
ROOT
HETATM    1  C   UNL     1      42.170  -6.440  10.384  1.00  0.00     0.062 C 
HETATM    2  C   UNL     1      42.193  -6.864  11.832  1.00  0.00     0.176 C 
HETATM    3  N   UNL     1      41.512  -5.859  12.634  1.00  0.00    -0.277 N 
HETATM    4  C   UNL     1      40.687  -4.946  12.060  1.00  0.00     0.177 C 
HETATM    5  S   UNL     1      39.846  -4.010  13.262  1.00  0.00    -0.046 SA
HETATM    6  C   UNL     1      40.563  -4.907  14.555  1.00  0.00     0.077 C 
HETATM    7  C   UNL     1      40.150  -4.810  15.827  1.00  0.00     0.036 C 
HETATM    8  C   UNL     1      41.593  -5.842  14.007  1.00  0.00     0.267 C 
HETATM    9  O   UNL     1      42.399  -6.465  14.679  1.00  0.00    -0.266 OA
HETATM   10  N   UNL     1      40.537  -4.749  10.796  1.00  0.00    -0.228 NA
HETATM   11  C   UNL     1      41.331  -5.482   9.938  1.00  0.00     0.047 C 
HETATM   12  C   UNL     1      41.137  -5.126   8.486  1.00  0.00     0.071 C 
ENDROOT
BRANCH   7  13
HETATM   13  C   UNL     1      40.596  -5.690  16.909  1.00  0.00    -0.032 A 
HETATM   14  C   UNL     1      41.585  -5.235  17.798  1.00  0.00     0.051 A 
HETATM   15  C   UNL     1      42.003  -6.034  18.865  1.00  0.00     0.102 A 
HETATM   16  C   UNL     1      41.424  -7.303  19.031  1.00  0.00     0.102 A 
HETATM   17  C   UNL     1      40.436  -7.758  18.152  1.00  0.00     0.040 A 
HETATM   18  C   UNL     1      40.029  -6.954  17.086  1.00  0.00     0.014 A 
BRANCH  15  19
HETATM   19  O   UNL     1      42.962  -5.686  19.783  1.00  0.00    -0.353 OA
HETATM   20  C   UNL     1      42.635  -4.654  20.705  1.00  0.00     0.210 C 
ENDBRANCH  15  19
BRANCH  16  21
HETATM   21  O   UNL     1      41.803  -8.033  20.127  1.00  0.00    -0.339 OA
BRANCH  21  22
HETATM   22  C   UNL     1      40.715  -8.414  20.969  1.00  0.00     0.278 C 
BRANCH  22  23
HETATM   23  C   UNL     1      40.904  -9.863  21.405  1.00  0.00     0.239 C 
HETATM   24  N   UNL     1      40.895 -10.785  20.395  1.00  0.00    -0.368 N 
HETATM   25  H   UNL     1      40.989 -10.463  19.435  1.00  0.00     0.159 HD
HETATM   26  H   UNL     1      41.099 -11.748  20.619  1.00  0.00     0.159 HD
HETATM   27  O   UNL     1      41.002 -10.208  22.578  1.00  0.00    -0.271 OA
ENDBRANCH  22  23
ENDBRANCH  21  22
ENDBRANCH  16  21
ENDBRANCH   7  13
BRANCH   2  28
HETATM   28  C   UNL     1      41.500  -8.193  12.105  1.00  0.00     0.011 A 
HETATM   29  S   UNL     1      39.856  -8.409  11.649  1.00  0.00    -0.104 SA
HETATM   30  C   UNL     1      39.841 -10.019  12.219  1.00  0.00     0.050 A 
HETATM   31  C   UNL     1      41.052 -10.391  12.755  1.00  0.00     0.008 A 
HETATM   32  C   UNL     1      42.010  -9.338  12.693  1.00  0.00     0.017 A 
ENDBRANCH   2  28
BRANCH   1  33
HETATM   33  C   UNL     1      43.113  -7.184   9.504  1.00  0.00     0.256 C 
HETATM   34  N   UNL     1      42.727  -8.490   9.275  1.00  0.00    -0.323 N 
HETATM   35  H   UNL     1      41.901  -8.812   9.761  1.00  0.00     0.169 HD
HETATM   36  O   UNL     1      44.083  -6.604   9.036  1.00  0.00    -0.267 OA
BRANCH  34  37
HETATM   37  C   UNL     1      43.372  -9.449   8.455  1.00  0.00     0.041 A 
HETATM   38  C   UNL     1      44.544 -10.077   8.931  1.00  0.00    -0.035 A 
HETATM   39  C   UNL     1      45.162  -9.736  10.261  1.00  0.00     0.050 C 
HETATM   40  C   UNL     1      45.187 -11.038   8.129  1.00  0.00     0.009 A 
HETATM   41  C   UNL     1      44.681 -11.382   6.879  1.00  0.00     0.001 A 
HETATM   42  C   UNL     1      43.527 -10.766   6.412  1.00  0.00     0.002 A 
HETATM   43  C   UNL     1      42.879  -9.806   7.193  1.00  0.00     0.030 A 
ENDBRANCH  34  37
ENDBRANCH   1  33
TORSDOF 8
ENDMDL
MODEL 7
REMARK VINA RESULT:      -7.4      4.092     11.093
REMARK  8 active torsions:
REMARK  status: ('A' for Active; 'I' for Inactive)
REMARK    1  A    between atoms: C_3  and  N_4 
REMARK       I    between atoms: N_4  and  C_5 
REMARK    2  A    between atoms: C_5  and  C_6 
REMARK    3  A    between atoms: C_7  and  C_8 
REMARK    4  A    between atoms: C_17  and  C_18 
REMARK    5  A    between atoms: C_20  and  O_21 
REMARK    6  A    between atoms: C_23  and  O_24 
REMARK    7  A    between atoms: O_24  and  C_25 
REMARK    8  A    between atoms: C_25  and  C_26 
REMARK       I    between atoms: C_26  and  N_27 
ROOT
HETATM    1  C   UNL     1      40.272  -6.297  11.086  1.00  0.00     0.062 C 
HETATM    2  C   UNL     1      40.494  -7.628  10.411  1.00  0.00     0.176 C 
HETATM    3  N   UNL     1      40.741  -7.410   8.994  1.00  0.00    -0.277 N 
HETATM    4  C   UNL     1      41.091  -6.184   8.525  1.00  0.00     0.177 C 
HETATM    5  S   UNL     1      41.530  -6.253   6.843  1.00  0.00    -0.046 SA
HETATM    6  C   UNL     1      41.308  -7.967   6.788  1.00  0.00     0.077 C 
HETATM    7  C   UNL     1      41.705  -8.722   5.753  1.00  0.00     0.036 C 
HETATM    8  C   UNL     1      40.726  -8.439   8.083  1.00  0.00     0.267 C 
HETATM    9  O   UNL     1      40.280  -9.558   8.280  1.00  0.00    -0.266 OA
HETATM   10  N   UNL     1      41.085  -5.085   9.197  1.00  0.00    -0.228 NA
HETATM   11  C   UNL     1      40.621  -5.135  10.495  1.00  0.00     0.047 C 
HETATM   12  C   UNL     1      40.582  -3.789  11.173  1.00  0.00     0.071 C 
ENDROOT
BRANCH   7  13
HETATM   13  C   UNL     1      41.712 -10.186   5.754  1.00  0.00    -0.032 A 
HETATM   14  C   UNL     1      40.643 -10.875   5.158  1.00  0.00     0.051 A 
HETATM   15  C   UNL     1      40.639 -12.272   5.107  1.00  0.00     0.102 A 
HETATM   16  C   UNL     1      41.718 -12.975   5.666  1.00  0.00     0.102 A 
HETATM   17  C   UNL     1      42.787 -12.293   6.256  1.00  0.00     0.040 A 
HETATM   18  C   UNL     1      42.779 -10.898   6.308  1.00  0.00     0.014 A 
BRANCH  15  19
HETATM   19  O   UNL     1      39.644 -13.038   4.553  1.00  0.00    -0.353 OA
HETATM   20  C   UNL     1      39.200 -12.685   3.250  1.00  0.00     0.210 C 
ENDBRANCH  15  19
BRANCH  16  21
HETATM   21  O   UNL     1      41.719 -14.340   5.536  1.00  0.00    -0.339 OA
BRANCH  21  22
HETATM   22  C   UNL     1      42.342 -14.803   4.338  1.00  0.00     0.278 C 
BRANCH  22  23
HETATM   23  C   UNL     1      41.540 -15.973   3.778  1.00  0.00     0.239 C 
HETATM   24  N   UNL     1      40.234 -16.033   4.178  1.00  0.00    -0.368 N 
HETATM   25  H   UNL     1      39.817 -15.218   4.620  1.00  0.00     0.159 HD
HETATM   26  H   UNL     1      39.637 -16.738   3.772  1.00  0.00     0.159 HD
HETATM   27  O   UNL     1      42.025 -16.843   3.062  1.00  0.00    -0.271 OA
ENDBRANCH  22  23
ENDBRANCH  21  22
ENDBRANCH  16  21
ENDBRANCH   7  13
BRANCH   2  28
HETATM   28  C   UNL     1      41.684  -8.412  10.952  1.00  0.00     0.011 A 
HETATM   29  S   UNL     1      41.429  -9.929  11.720  1.00  0.00    -0.104 SA
HETATM   30  C   UNL     1      43.102 -10.149  11.988  1.00  0.00     0.050 A 
HETATM   31  C   UNL     1      43.845  -9.092  11.516  1.00  0.00     0.008 A 
HETATM   32  C   UNL     1      43.029  -8.087  10.920  1.00  0.00     0.017 A 
ENDBRANCH   2  28
BRANCH   1  33
HETATM   33  C   UNL     1      39.676  -6.383  12.448  1.00  0.00     0.256 C 
HETATM   34  N   UNL     1      40.609  -6.267  13.457  1.00  0.00    -0.323 N 
HETATM   35  H   UNL     1      41.578  -6.196  13.176  1.00  0.00     0.169 HD
HETATM   36  O   UNL     1      38.464  -6.498  12.566  1.00  0.00    -0.267 OA
BRANCH  34  37
HETATM   37  C   UNL     1      40.373  -6.263  14.854  1.00  0.00     0.041 A 
HETATM   38  C   UNL     1      40.931  -7.292  15.645  1.00  0.00    -0.035 A 
HETATM   39  C   UNL     1      41.734  -8.420  15.055  1.00  0.00     0.050 C 
HETATM   40  C   UNL     1      40.710  -7.293  17.035  1.00  0.00     0.009 A 
HETATM   41  C   UNL     1      39.956  -6.291  17.641  1.00  0.00     0.001 A 
HETATM   42  C   UNL     1      39.410  -5.278  16.864  1.00  0.00     0.002 A 
HETATM   43  C   UNL     1      39.615  -5.265  15.482  1.00  0.00     0.030 A 
ENDBRANCH  34  37
ENDBRANCH   1  33
TORSDOF 8
ENDMDL
MODEL 8
REMARK VINA RESULT:      -7.4     18.013     20.960
REMARK  8 active torsions:
REMARK  status: ('A' for Active; 'I' for Inactive)
REMARK    1  A    between atoms: C_3  and  N_4 
REMARK       I    between atoms: N_4  and  C_5 
REMARK    2  A    between atoms: C_5  and  C_6 
REMARK    3  A    between atoms: C_7  and  C_8 
REMARK    4  A    between atoms: C_17  and  C_18 
REMARK    5  A    between atoms: C_20  and  O_21 
REMARK    6  A    between atoms: C_23  and  O_24 
REMARK    7  A    between atoms: O_24  and  C_25 
REMARK    8  A    between atoms: C_25  and  C_26 
REMARK       I    between atoms: C_26  and  N_27 
ROOT
HETATM    1  C   UNL     1      47.203 -30.908   3.143  1.00  0.00     0.062 C 
HETATM    2  C   UNL     1      48.649 -30.889   3.572  1.00  0.00     0.176 C 
HETATM    3  N   UNL     1      48.806 -31.719   4.757  1.00  0.00    -0.277 N 
HETATM    4  C   UNL     1      47.859 -32.628   5.105  1.00  0.00     0.177 C 
HETATM    5  S   UNL     1      48.394 -33.624   6.428  1.00  0.00    -0.046 SA
HETATM    6  C   UNL     1      49.942 -32.853   6.467  1.00  0.00     0.077 C 
HETATM    7  C   UNL     1      50.974 -33.324   7.182  1.00  0.00     0.036 C 
HETATM    8  C   UNL     1      49.949 -31.694   5.521  1.00  0.00     0.267 C 
HETATM    9  O   UNL     1      50.823 -30.844   5.465  1.00  0.00    -0.266 OA
HETATM   10  N   UNL     1      46.694 -32.752   4.570  1.00  0.00    -0.228 NA
HETATM   11  C   UNL     1      46.339 -31.841   3.596  1.00  0.00     0.047 C 
HETATM   12  C   UNL     1      44.932 -32.021   3.086  1.00  0.00     0.071 C 
ENDROOT
BRANCH   7  13
HETATM   13  C   UNL     1      52.344 -32.815   7.087  1.00  0.00    -0.032 A 
HETATM   14  C   UNL     1      52.759 -31.802   7.967  1.00  0.00     0.051 A 
HETATM   15  C   UNL     1      54.072 -31.323   7.930  1.00  0.00     0.102 A 
HETATM   16  C   UNL     1      54.966 -31.866   6.994  1.00  0.00     0.102 A 
HETATM   17  C   UNL     1      54.558 -32.878   6.119  1.00  0.00     0.040 A 
HETATM   18  C   UNL     1      53.244 -33.346   6.161  1.00  0.00     0.014 A 
BRANCH  15  19
HETATM   19  O   UNL     1      54.575 -30.336   8.740  1.00  0.00    -0.353 OA
HETATM   20  C   UNL     1      54.499 -30.546  10.144  1.00  0.00     0.210 C 
ENDBRANCH  15  19
BRANCH  16  21
HETATM   21  O   UNL     1      56.264 -31.426   7.030  1.00  0.00    -0.339 OA
BRANCH  21  22
HETATM   22  C   UNL     1      56.809 -31.137   5.743  1.00  0.00     0.278 C 
BRANCH  22  23
HETATM   23  C   UNL     1      57.472 -29.764   5.778  1.00  0.00     0.239 C 
HETATM   24  N   UNL     1      58.779 -29.753   6.179  1.00  0.00    -0.368 N 
HETATM   25  H   UNL     1      59.289 -30.631   6.213  1.00  0.00     0.159 HD
HETATM   26  H   UNL     1      59.288 -28.882   6.141  1.00  0.00     0.159 HD
HETATM   27  O   UNL     1      56.877 -28.721   5.523  1.00  0.00    -0.271 OA
ENDBRANCH  22  23
ENDBRANCH  21  22
ENDBRANCH  16  21
ENDBRANCH   7  13
BRANCH   2  28
HETATM   28  C   UNL     1      49.619 -31.423   2.526  1.00  0.00     0.011 A 
HETATM   29  S   UNL     1      49.422 -33.016   1.912  1.00  0.00    -0.104 SA
HETATM   30  C   UNL     1      50.763 -32.850   0.867  1.00  0.00     0.050 A 
HETATM   31  C   UNL     1      51.360 -31.617   0.982  1.00  0.00     0.008 A 
HETATM   32  C   UNL     1      50.704 -30.792   1.941  1.00  0.00     0.017 A 
ENDBRANCH   2  28
BRANCH   1  33
HETATM   33  C   UNL     1      46.831 -29.847   2.166  1.00  0.00     0.256 C 
HETATM   34  N   UNL     1      46.763 -30.305   0.866  1.00  0.00    -0.323 N 
HETATM   35  H   UNL     1      47.021 -31.270   0.709  1.00  0.00     0.169 HD
HETATM   36  O   UNL     1      46.583 -28.720   2.570  1.00  0.00    -0.267 OA
BRANCH  34  37
HETATM   37  C   UNL     1      46.398 -29.570  -0.289  1.00  0.00     0.041 A 
HETATM   38  C   UNL     1      47.412 -29.126  -1.166  1.00  0.00    -0.035 A 
HETATM   39  C   UNL     1      48.874 -29.367  -0.899  1.00  0.00     0.050 C 
HETATM   40  C   UNL     1      47.060 -28.404  -2.321  1.00  0.00     0.009 A 
HETATM   41  C   UNL     1      45.728 -28.127  -2.614  1.00  0.00     0.001 A 
HETATM   42  C   UNL     1      44.730 -28.566  -1.754  1.00  0.00     0.002 A 
HETATM   43  C   UNL     1      45.063 -29.280  -0.599  1.00  0.00     0.030 A 
ENDBRANCH  34  37
ENDBRANCH   1  33
TORSDOF 8
ENDMDL
MODEL 9
REMARK VINA RESULT:      -7.4      3.667     11.086
REMARK  8 active torsions:
REMARK  status: ('A' for Active; 'I' for Inactive)
REMARK    1  A    between atoms: C_3  and  N_4 
REMARK       I    between atoms: N_4  and  C_5 
REMARK    2  A    between atoms: C_5  and  C_6 
REMARK    3  A    between atoms: C_7  and  C_8 
REMARK    4  A    between atoms: C_17  and  C_18 
REMARK    5  A    between atoms: C_20  and  O_21 
REMARK    6  A    between atoms: C_23  and  O_24 
REMARK    7  A    between atoms: O_24  and  C_25 
REMARK    8  A    between atoms: C_25  and  C_26 
REMARK       I    between atoms: C_26  and  N_27 
ROOT
HETATM    1  C   UNL     1      42.028  -7.441  11.348  1.00  0.00     0.062 C 
HETATM    2  C   UNL     1      41.754  -8.162  10.051  1.00  0.00     0.176 C 
HETATM    3  N   UNL     1      42.916  -8.961   9.695  1.00  0.00    -0.277 N 
HETATM    4  C   UNL     1      43.867  -9.264  10.616  1.00  0.00     0.177 C 
HETATM    5  S   UNL     1      45.023 -10.399   9.982  1.00  0.00    -0.046 SA
HETATM    6  C   UNL     1      44.175 -10.522   8.480  1.00  0.00     0.077 C 
HETATM    7  C   UNL     1      44.455 -11.456   7.558  1.00  0.00     0.036 C 
HETATM    8  C   UNL     1      43.062  -9.524   8.449  1.00  0.00     0.267 C 
HETATM    9  O   UNL     1      42.410  -9.237   7.458  1.00  0.00    -0.266 OA
HETATM   10  N   UNL     1      43.953  -8.776  11.805  1.00  0.00    -0.228 NA
HETATM   11  C   UNL     1      43.039  -7.807  12.164  1.00  0.00     0.047 C 
HETATM   12  C   UNL     1      43.267  -7.244  13.544  1.00  0.00     0.071 C 
ENDROOT
BRANCH   7  13
HETATM   13  C   UNL     1      43.639 -11.714   6.371  1.00  0.00    -0.032 A 
HETATM   14  C   UNL     1      42.435 -12.424   6.509  1.00  0.00     0.051 A 
HETATM   15  C   UNL     1      41.613 -12.652   5.402  1.00  0.00     0.102 A 
HETATM   16  C   UNL     1      42.014 -12.164   4.147  1.00  0.00     0.102 A 
HETATM   17  C   UNL     1      43.209 -11.452   4.006  1.00  0.00     0.040 A 
HETATM   18  C   UNL     1      44.025 -11.235   5.117  1.00  0.00     0.014 A 
BRANCH  15  19
HETATM   19  O   UNL     1      40.424 -13.336   5.429  1.00  0.00    -0.353 OA
HETATM   20  C   UNL     1      40.351 -14.479   6.271  1.00  0.00     0.210 C 
ENDBRANCH  15  19
BRANCH  16  21
HETATM   21  O   UNL     1      41.153 -12.341   3.096  1.00  0.00    -0.339 OA
BRANCH  21  22
HETATM   22  C   UNL     1      41.440 -13.495   2.306  1.00  0.00     0.278 C 
BRANCH  22  23
HETATM   23  C   UNL     1      40.135 -14.210   1.973  1.00  0.00     0.239 C 
HETATM   24  N   UNL     1      39.066 -13.875   2.757  1.00  0.00    -0.368 N 
HETATM   25  H   UNL     1      39.126 -13.046   3.341  1.00  0.00     0.159 HD
HETATM   26  H   UNL     1      38.160 -14.256   2.526  1.00  0.00     0.159 HD
HETATM   27  O   UNL     1      40.039 -15.071   1.103  1.00  0.00    -0.271 OA
ENDBRANCH  22  23
ENDBRANCH  21  22
ENDBRANCH  16  21
ENDBRANCH   7  13
BRANCH   2  28
HETATM   28  C   UNL     1      40.563  -9.110  10.103  1.00  0.00     0.011 A 
HETATM   29  S   UNL     1      40.214  -9.965  11.553  1.00  0.00    -0.104 SA
HETATM   30  C   UNL     1      38.845 -10.715  10.859  1.00  0.00     0.050 A 
HETATM   31  C   UNL     1      38.655 -10.338   9.550  1.00  0.00     0.008 A 
HETATM   32  C   UNL     1      39.647  -9.414   9.110  1.00  0.00     0.017 A 
ENDBRANCH   2  28
BRANCH   1  33
HETATM   33  C   UNL     1      41.081  -6.334  11.656  1.00  0.00     0.256 C 
HETATM   34  N   UNL     1      40.096  -6.695  12.552  1.00  0.00    -0.323 N 
HETATM   35  H   UNL     1      40.086  -7.661  12.853  1.00  0.00     0.169 HD
HETATM   36  O   UNL     1      41.261  -5.233  11.154  1.00  0.00    -0.267 OA
BRANCH  34  37
HETATM   37  C   UNL     1      39.071  -5.875  13.085  1.00  0.00     0.041 A 
HETATM   38  C   UNL     1      39.065  -5.602  14.471  1.00  0.00    -0.035 A 
HETATM   39  C   UNL     1      40.082  -6.185  15.415  1.00  0.00     0.050 C 
HETATM   40  C   UNL     1      38.057  -4.780  15.009  1.00  0.00     0.009 A 
HETATM   41  C   UNL     1      37.072  -4.229  14.195  1.00  0.00     0.001 A 
HETATM   42  C   UNL     1      37.080  -4.494  12.832  1.00  0.00     0.002 A 
HETATM   43  C   UNL     1      38.070  -5.313  12.282  1.00  0.00     0.030 A 
ENDBRANCH  34  37
ENDBRANCH   1  33
TORSDOF 8
ENDMDL
MODEL 10
REMARK VINA RESULT:      -7.3      4.175      6.649
REMARK  8 active torsions:
REMARK  status: ('A' for Active; 'I' for Inactive)
REMARK    1  A    between atoms: C_3  and  N_4 
REMARK       I    between atoms: N_4  and  C_5 
REMARK    2  A    between atoms: C_5  and  C_6 
REMARK    3  A    between atoms: C_7  and  C_8 
REMARK    4  A    between atoms: C_17  and  C_18 
REMARK    5  A    between atoms: C_20  and  O_21 
REMARK    6  A    between atoms: C_23  and  O_24 
REMARK    7  A    between atoms: O_24  and  C_25 
REMARK    8  A    between atoms: C_25  and  C_26 
REMARK       I    between atoms: C_26  and  N_27 
ROOT
HETATM    1  C   UNL     1      42.038 -12.684   5.690  1.00  0.00     0.062 C 
HETATM    2  C   UNL     1      40.866 -11.918   5.127  1.00  0.00     0.176 C 
HETATM    3  N   UNL     1      40.837 -10.589   5.717  1.00  0.00    -0.277 N 
HETATM    4  C   UNL     1      41.930 -10.075   6.338  1.00  0.00     0.177 C 
HETATM    5  S   UNL     1      41.691  -8.403   6.758  1.00  0.00    -0.046 SA
HETATM    6  C   UNL     1      40.125  -8.376   6.024  1.00  0.00     0.077 C 
HETATM    7  C   UNL     1      39.439  -7.243   5.810  1.00  0.00     0.036 C 
HETATM    8  C   UNL     1      39.749  -9.757   5.593  1.00  0.00     0.267 C 
HETATM    9  O   UNL     1      38.636 -10.094   5.221  1.00  0.00    -0.266 OA
HETATM   10  N   UNL     1      43.011 -10.715   6.623  1.00  0.00    -0.228 NA
HETATM   11  C   UNL     1      43.049 -12.063   6.333  1.00  0.00     0.047 C 
HETATM   12  C   UNL     1      44.324 -12.738   6.771  1.00  0.00     0.071 C 
ENDROOT
BRANCH   7  13
HETATM   13  C   UNL     1      38.208  -7.161   5.022  1.00  0.00    -0.032 A 
HETATM   14  C   UNL     1      38.289  -7.198   3.620  1.00  0.00     0.051 A 
HETATM   15  C   UNL     1      37.130  -7.162   2.840  1.00  0.00     0.102 A 
HETATM   16  C   UNL     1      35.883  -7.081   3.480  1.00  0.00     0.102 A 
HETATM   17  C   UNL     1      35.797  -7.048   4.876  1.00  0.00     0.040 A 
HETATM   18  C   UNL     1      36.961  -7.079   5.646  1.00  0.00     0.014 A 
BRANCH  15  19
HETATM   19  O   UNL     1      37.102  -7.188   1.468  1.00  0.00    -0.353 OA
HETATM   20  C   UNL     1      37.572  -8.369   0.831  1.00  0.00     0.210 C 
ENDBRANCH  15  19
BRANCH  16  21
HETATM   21  O   UNL     1      34.764  -7.119   2.691  1.00  0.00    -0.339 OA
BRANCH  21  22
HETATM   22  C   UNL     1      33.542  -6.998   3.420  1.00  0.00     0.278 C 
BRANCH  22  23
HETATM   23  C   UNL     1      32.671  -8.218   3.140  1.00  0.00     0.239 C 
HETATM   24  N   UNL     1      32.324  -8.955   4.239  1.00  0.00    -0.368 N 
HETATM   25  H   UNL     1      32.459  -8.554   5.162  1.00  0.00     0.159 HD
HETATM   26  H   UNL     1      31.680  -9.724   4.120  1.00  0.00     0.159 HD
HETATM   27  O   UNL     1      32.339  -8.567   2.011  1.00  0.00    -0.271 OA
ENDBRANCH  22  23
ENDBRANCH  21  22
ENDBRANCH  16  21
ENDBRANCH   7  13
BRANCH   2  28
HETATM   28  C   UNL     1      40.907 -11.733   3.616  1.00  0.00     0.011 A 
HETATM   29  S   UNL     1      39.650 -12.382   2.640  1.00  0.00    -0.104 SA
HETATM   30  C   UNL     1      40.356 -11.775   1.209  1.00  0.00     0.050 A 
HETATM   31  C   UNL     1      41.529 -11.100   1.456  1.00  0.00     0.008 A 
HETATM   32  C   UNL     1      41.851 -11.077   2.844  1.00  0.00     0.017 A 
ENDBRANCH   2  28
BRANCH   1  33
HETATM   33  C   UNL     1      41.996 -14.152   5.445  1.00  0.00     0.256 C 
HETATM   34  N   UNL     1      42.891 -14.568   4.480  1.00  0.00    -0.323 N 
HETATM   35  H   UNL     1      43.425 -13.847   4.013  1.00  0.00     0.169 HD
HETATM   36  O   UNL     1      41.245 -14.851   6.112  1.00  0.00    -0.267 OA
BRANCH  34  37
HETATM   37  C   UNL     1      43.134 -15.893   4.043  1.00  0.00     0.041 A 
HETATM   38  C   UNL     1      42.795 -16.249   2.718  1.00  0.00    -0.035 A 
HETATM   39  C   UNL     1      42.144 -15.285   1.763  1.00  0.00     0.050 C 
HETATM   40  C   UNL     1      43.040 -17.561   2.271  1.00  0.00     0.009 A 
HETATM   41  C   UNL     1      43.618 -18.508   3.111  1.00  0.00     0.001 A 
HETATM   42  C   UNL     1      43.954 -18.158   4.412  1.00  0.00     0.002 A 
HETATM   43  C   UNL     1      43.712 -16.861   4.875  1.00  0.00     0.030 A 
ENDBRANCH  34  37
ENDBRANCH   1  33
TORSDOF 8
ENDMDL
