MODEL 1
REMARK VINA RESULT:      -9.7      0.000      0.000
REMARK  5 active torsions:
REMARK  status: ('A' for Active; 'I' for Inactive)
REMARK    1  A    between atoms: C_2  and  C_3 
REMARK    2  A    between atoms: C_3  and  C_4 
REMARK       I    between atoms: C_4  and  N_5 
REMARK    3  A    between atoms: N_5  and  C_6 
REMARK    4  A    between atoms: C_13  and  C_14 
REMARK       I    between atoms: C_14  and  N_15 
REMARK    5  A    between atoms: C_22  and  C_23 
ROOT
HETATM    1  C   UNL     1      40.844 -13.757   0.383  1.00  0.00     0.035 A 
HETATM    2  C   UNL     1      40.205 -14.254  -0.763  1.00  0.00     0.046 A 
HETATM    3  C   UNL     1      39.175 -13.502  -1.366  1.00  0.00     0.030 A 
HETATM    4  C   UNL     1      38.848 -12.262  -0.831  1.00  0.00     0.063 A 
HETATM    5  N   UNL     1      37.832 -11.789  -1.613  1.00  0.00    -0.277 N 
HETATM    6  H   UNL     1      37.343 -10.906  -1.518  1.00  0.00     0.189 HD
HETATM    7  N   UNL     1      37.445 -12.625  -2.592  1.00  0.00    -0.168 NA
HETATM    8  C   UNL     1      38.266 -13.691  -2.451  1.00  0.00     0.156 A 
HETATM    9  C   UNL     1      39.489 -11.722   0.286  1.00  0.00     0.034 A 
HETATM   10  C   UNL     1      40.483 -12.504   0.891  1.00  0.00     0.032 A 
ENDROOT
BRANCH   1  11
HETATM   11  N   UNL     1      41.770 -14.522   1.124  1.00  0.00    -0.327 N 
HETATM   12  C   UNL     1      41.565 -15.046   2.389  1.00  0.00     0.226 C 
HETATM   13  O   UNL     1      40.475 -15.334   2.875  1.00  0.00    -0.273 OA
HETATM   14  H   UNL     1      42.676 -14.682   0.700  1.00  0.00     0.169 HD
BRANCH  12  15
HETATM   15  C   UNL     1      42.850 -15.196   3.184  1.00  0.00     0.141 C 
BRANCH  15  16
HETATM   16  C   UNL     1      43.308 -16.604   3.474  1.00  0.00    -0.049 A 
HETATM   17  C   UNL     1      43.684 -16.940   4.784  1.00  0.00     0.008 A 
HETATM   18  C   UNL     1      43.986 -18.259   5.127  1.00  0.00     0.017 A 
HETATM   19  C   UNL     1      43.918 -19.277   4.167  1.00  0.00     0.047 A 
HETATM   20  C   UNL     1      43.544 -18.943   2.857  1.00  0.00     0.017 A 
HETATM   21  C   UNL     1      43.239 -17.621   2.515  1.00  0.00     0.008 A 
BRANCH  19  22
HETATM   22  C   UNL     1      44.172 -20.711   4.561  1.00  0.00     0.417 C 
HETATM   23  F   UNL     1      43.219 -21.222   5.388  1.00  0.00    -0.166 F 
HETATM   24  F   UNL     1      44.227 -21.554   3.491  1.00  0.00    -0.166 F 
HETATM   25  F   UNL     1      45.357 -20.865   5.215  1.00  0.00    -0.166 F 
ENDBRANCH  19  22
ENDBRANCH  15  16
ENDBRANCH  12  15
ENDBRANCH   1  11
BRANCH   8  26
HETATM   26  C   UNL     1      38.149 -14.869  -3.322  1.00  0.00     0.270 C 
HETATM   27  N   UNL     1      38.201 -16.064  -2.659  1.00  0.00    -0.365 N 
HETATM   28  H   UNL     1      38.335 -16.057  -1.655  1.00  0.00     0.159 HD
HETATM   29  H   UNL     1      38.163 -16.925  -3.181  1.00  0.00     0.159 HD
HETATM   30  O   UNL     1      38.033 -14.827  -4.543  1.00  0.00    -0.266 OA
ENDBRANCH   8  26
TORSDOF 5
ENDMDL
MODEL 2
REMARK VINA RESULT:      -9.0      1.674      2.232
REMARK  5 active torsions:
REMARK  status: ('A' for Active; 'I' for Inactive)
REMARK    1  A    between atoms: C_2  and  C_3 
REMARK    2  A    between atoms: C_3  and  C_4 
REMARK       I    between atoms: C_4  and  N_5 
REMARK    3  A    between atoms: N_5  and  C_6 
REMARK    4  A    between atoms: C_13  and  C_14 
REMARK       I    between atoms: C_14  and  N_15 
REMARK    5  A    between atoms: C_22  and  C_23 
ROOT
HETATM    1  C   UNL     1      40.489 -12.706   2.551  1.00  0.00     0.035 A 
HETATM    2  C   UNL     1      40.374 -13.302   1.286  1.00  0.00     0.046 A 
HETATM    3  C   UNL     1      39.468 -12.768   0.345  1.00  0.00     0.030 A 
HETATM    4  C   UNL     1      38.741 -11.634   0.684  1.00  0.00     0.063 A 
HETATM    5  N   UNL     1      37.963 -11.366  -0.408  1.00  0.00    -0.277 N 
HETATM    6  H   UNL     1      37.301 -10.606  -0.519  1.00  0.00     0.189 HD
HETATM    7  N   UNL     1      38.094 -12.245  -1.416  1.00  0.00    -0.168 NA
HETATM    8  C   UNL     1      39.022 -13.120  -0.964  1.00  0.00     0.156 A 
HETATM    9  C   UNL     1      38.858 -10.994   1.920  1.00  0.00     0.034 A 
HETATM   10  C   UNL     1      39.737 -11.565   2.852  1.00  0.00     0.032 A 
ENDROOT
BRANCH   1  11
HETATM   11  N   UNL     1      41.256 -13.277   3.589  1.00  0.00    -0.327 N 
HETATM   12  C   UNL     1      42.588 -13.649   3.508  1.00  0.00     0.226 C 
HETATM   13  O   UNL     1      43.420 -13.163   2.748  1.00  0.00    -0.273 OA
HETATM   14  H   UNL     1      40.781 -13.452   4.466  1.00  0.00     0.169 HD
BRANCH  12  15
HETATM   15  C   UNL     1      42.941 -14.794   4.441  1.00  0.00     0.141 C 
BRANCH  15  16
HETATM   16  C   UNL     1      43.152 -16.146   3.807  1.00  0.00    -0.049 A 
HETATM   17  C   UNL     1      43.886 -17.116   4.505  1.00  0.00     0.008 A 
HETATM   18  C   UNL     1      43.994 -18.421   4.019  1.00  0.00     0.017 A 
HETATM   19  C   UNL     1      43.366 -18.788   2.822  1.00  0.00     0.047 A 
HETATM   20  C   UNL     1      42.632 -17.820   2.122  1.00  0.00     0.017 A 
HETATM   21  C   UNL     1      42.523 -16.513   2.611  1.00  0.00     0.008 A 
BRANCH  19  22
HETATM   22  C   UNL     1      43.422 -20.217   2.341  1.00  0.00     0.417 C 
HETATM   23  F   UNL     1      44.421 -20.447   1.444  1.00  0.00    -0.166 F 
HETATM   24  F   UNL     1      43.619 -21.110   3.352  1.00  0.00    -0.166 F 
HETATM   25  F   UNL     1      42.270 -20.602   1.725  1.00  0.00    -0.166 F 
ENDBRANCH  19  22
ENDBRANCH  15  16
ENDBRANCH  12  15
ENDBRANCH   1  11
BRANCH   8  26
HETATM   26  C   UNL     1      39.436 -14.279  -1.767  1.00  0.00     0.270 C 
HETATM   27  N   UNL     1      38.995 -15.481  -1.284  1.00  0.00    -0.365 N 
HETATM   28  H   UNL     1      38.455 -15.492  -0.428  1.00  0.00     0.159 HD
HETATM   29  H   UNL     1      39.262 -16.333  -1.753  1.00  0.00     0.159 HD
HETATM   30  O   UNL     1      40.132 -14.219  -2.775  1.00  0.00    -0.266 OA
ENDBRANCH   8  26
TORSDOF 5
ENDMDL
MODEL 3
REMARK VINA RESULT:      -8.8      1.898      3.032
REMARK  5 active torsions:
REMARK  status: ('A' for Active; 'I' for Inactive)
REMARK    1  A    between atoms: C_2  and  C_3 
REMARK    2  A    between atoms: C_3  and  C_4 
REMARK       I    between atoms: C_4  and  N_5 
REMARK    3  A    between atoms: N_5  and  C_6 
REMARK    4  A    between atoms: C_13  and  C_14 
REMARK       I    between atoms: C_14  and  N_15 
REMARK    5  A    between atoms: C_22  and  C_23 
ROOT
HETATM    1  C   UNL     1      40.264 -14.078  -0.083  1.00  0.00     0.035 A 
HETATM    2  C   UNL     1      39.800 -12.913   0.545  1.00  0.00     0.046 A 
HETATM    3  C   UNL     1      38.785 -12.148  -0.068  1.00  0.00     0.030 A 
HETATM    4  C   UNL     1      38.239 -12.596  -1.265  1.00  0.00     0.063 A 
HETATM    5  N   UNL     1      37.304 -11.660  -1.606  1.00  0.00    -0.277 N 
HETATM    6  H   UNL     1      36.704 -11.660  -2.424  1.00  0.00     0.189 HD
HETATM    7  N   UNL     1      37.214 -10.624  -0.755  1.00  0.00    -0.168 NA
HETATM    8  C   UNL     1      38.127 -10.911   0.202  1.00  0.00     0.156 A 
HETATM    9  C   UNL     1      38.652 -13.771  -1.898  1.00  0.00     0.034 A 
HETATM   10  C   UNL     1      39.688 -14.493  -1.289  1.00  0.00     0.032 A 
ENDROOT
BRANCH   1  11
HETATM   11  N   UNL     1      41.378 -14.802   0.394  1.00  0.00    -0.327 N 
HETATM   12  C   UNL     1      41.499 -15.377   1.648  1.00  0.00     0.226 C 
HETATM   13  O   UNL     1      40.569 -15.751   2.355  1.00  0.00    -0.273 OA
HETATM   14  H   UNL     1      42.170 -14.889  -0.232  1.00  0.00     0.169 HD
BRANCH  12  15
HETATM   15  C   UNL     1      42.939 -15.464   2.122  1.00  0.00     0.141 C 
BRANCH  15  16
HETATM   16  C   UNL     1      43.341 -16.727   2.842  1.00  0.00    -0.049 A 
HETATM   17  C   UNL     1      43.519 -16.688   4.234  1.00  0.00     0.008 A 
HETATM   18  C   UNL     1      43.759 -17.858   4.959  1.00  0.00     0.017 A 
HETATM   19  C   UNL     1      43.824 -19.097   4.309  1.00  0.00     0.047 A 
HETATM   20  C   UNL     1      43.647 -19.138   2.918  1.00  0.00     0.017 A 
HETATM   21  C   UNL     1      43.404 -17.966   2.193  1.00  0.00     0.008 A 
BRANCH  19  22
HETATM   22  C   UNL     1      44.008 -20.364   5.106  1.00  0.00     0.417 C 
HETATM   23  F   UNL     1      43.326 -21.427   4.598  1.00  0.00    -0.166 F 
HETATM   24  F   UNL     1      45.310 -20.760   5.181  1.00  0.00    -0.166 F 
HETATM   25  F   UNL     1      43.587 -20.230   6.395  1.00  0.00    -0.166 F 
ENDBRANCH  19  22
ENDBRANCH  15  16
ENDBRANCH  12  15
ENDBRANCH   1  11
BRANCH   8  26
HETATM   26  C   UNL     1      38.372  -9.995   1.325  1.00  0.00     0.270 C 
HETATM   27  N   UNL     1      37.764 -10.367   2.493  1.00  0.00    -0.365 N 
HETATM   28  H   UNL     1      37.190 -11.202   2.498  1.00  0.00     0.159 HD
HETATM   29  H   UNL     1      37.848  -9.778   3.307  1.00  0.00     0.159 HD
HETATM   30  O   UNL     1      39.039  -8.968   1.257  1.00  0.00    -0.266 OA
ENDBRANCH   8  26
TORSDOF 5
ENDMDL
MODEL 4
REMARK VINA RESULT:      -8.7      5.859      8.810
REMARK  5 active torsions:
REMARK  status: ('A' for Active; 'I' for Inactive)
REMARK    1  A    between atoms: C_2  and  C_3 
REMARK    2  A    between atoms: C_3  and  C_4 
REMARK       I    between atoms: C_4  and  N_5 
REMARK    3  A    between atoms: N_5  and  C_6 
REMARK    4  A    between atoms: C_13  and  C_14 
REMARK       I    between atoms: C_14  and  N_15 
REMARK    5  A    between atoms: C_22  and  C_23 
ROOT
HETATM    1  C   UNL     1      44.263 -12.459   6.747  1.00  0.00     0.035 A 
HETATM    2  C   UNL     1      43.659 -11.860   7.862  1.00  0.00     0.046 A 
HETATM    3  C   UNL     1      44.295 -10.774   8.499  1.00  0.00     0.030 A 
HETATM    4  C   UNL     1      45.490 -10.297   7.976  1.00  0.00     0.063 A 
HETATM    5  N   UNL     1      45.857  -9.267   8.796  1.00  0.00    -0.277 N 
HETATM    6  H   UNL     1      46.681  -8.682   8.717  1.00  0.00     0.189 HD
HETATM    7  N   UNL     1      45.023  -9.051   9.828  1.00  0.00    -0.168 NA
HETATM    8  C   UNL     1      44.052  -9.978   9.659  1.00  0.00     0.156 A 
HETATM    9  C   UNL     1      46.101 -10.847   6.846  1.00  0.00     0.034 A 
HETATM   10  C   UNL     1      45.469 -11.949   6.253  1.00  0.00     0.032 A 
ENDROOT
BRANCH   1  11
HETATM   11  N   UNL     1      43.763 -13.642   6.160  1.00  0.00    -0.327 N 
HETATM   12  C   UNL     1      43.102 -13.730   4.946  1.00  0.00     0.226 C 
HETATM   13  O   UNL     1      43.230 -12.954   4.005  1.00  0.00    -0.273 OA
HETATM   14  H   UNL     1      43.879 -14.499   6.686  1.00  0.00     0.169 HD
BRANCH  12  15
HETATM   15  C   UNL     1      42.123 -14.890   4.889  1.00  0.00     0.141 C 
BRANCH  15  16
HETATM   16  C   UNL     1      42.591 -16.139   4.185  1.00  0.00    -0.049 A 
HETATM   17  C   UNL     1      43.365 -17.069   4.896  1.00  0.00     0.008 A 
HETATM   18  C   UNL     1      43.707 -18.299   4.329  1.00  0.00     0.017 A 
HETATM   19  C   UNL     1      43.281 -18.630   3.037  1.00  0.00     0.047 A 
HETATM   20  C   UNL     1      42.509 -17.701   2.324  1.00  0.00     0.017 A 
HETATM   21  C   UNL     1      42.164 -16.470   2.893  1.00  0.00     0.008 A 
BRANCH  19  22
HETATM   22  C   UNL     1      43.591 -19.988   2.460  1.00  0.00     0.417 C 
HETATM   23  F   UNL     1      44.592 -19.969   1.536  1.00  0.00    -0.166 F 
HETATM   24  F   UNL     1      43.976 -20.892   3.405  1.00  0.00    -0.166 F 
HETATM   25  F   UNL     1      42.515 -20.542   1.834  1.00  0.00    -0.166 F 
ENDBRANCH  19  22
ENDBRANCH  15  16
ENDBRANCH  12  15
ENDBRANCH   1  11
BRANCH   8  26
HETATM   26  C   UNL     1      42.941 -10.105  10.612  1.00  0.00     0.270 C 
HETATM   27  N   UNL     1      43.154 -11.027  11.601  1.00  0.00    -0.365 N 
HETATM   28  H   UNL     1      44.019 -11.554  11.594  1.00  0.00     0.159 HD
HETATM   29  H   UNL     1      42.430 -11.205  12.279  1.00  0.00     0.159 HD
HETATM   30  O   UNL     1      41.891  -9.474  10.551  1.00  0.00    -0.266 OA
ENDBRANCH   8  26
TORSDOF 5
ENDMDL
MODEL 5
REMARK VINA RESULT:      -8.7      1.492      2.146
REMARK  5 active torsions:
REMARK  status: ('A' for Active; 'I' for Inactive)
REMARK    1  A    between atoms: C_2  and  C_3 
REMARK    2  A    between atoms: C_3  and  C_4 
REMARK       I    between atoms: C_4  and  N_5 
REMARK    3  A    between atoms: N_5  and  C_6 
REMARK    4  A    between atoms: C_13  and  C_14 
REMARK       I    between atoms: C_14  and  N_15 
REMARK    5  A    between atoms: C_22  and  C_23 
ROOT
HETATM    1  C   UNL     1      40.434 -13.866   1.412  1.00  0.00     0.035 A 
HETATM    2  C   UNL     1      40.000 -13.588   0.107  1.00  0.00     0.046 A 
HETATM    3  C   UNL     1      38.998 -12.616  -0.101  1.00  0.00     0.030 A 
HETATM    4  C   UNL     1      38.496 -11.926   0.995  1.00  0.00     0.063 A 
HETATM    5  N   UNL     1      37.556 -11.075   0.485  1.00  0.00    -0.277 N 
HETATM    6  H   UNL     1      36.983 -10.413   0.997  1.00  0.00     0.189 HD
HETATM    7  N   UNL     1      37.378 -11.171  -0.844  1.00  0.00    -0.168 NA
HETATM    8  C   UNL     1      38.263 -12.123  -1.221  1.00  0.00     0.156 A 
HETATM    9  C   UNL     1      38.931 -12.152   2.303  1.00  0.00     0.034 A 
HETATM   10  C   UNL     1      39.900 -13.149   2.489  1.00  0.00     0.032 A 
ENDROOT
BRANCH   1  11
HETATM   11  N   UNL     1      41.315 -14.929   1.706  1.00  0.00    -0.327 N 
HETATM   12  C   UNL     1      42.684 -14.825   1.883  1.00  0.00     0.226 C 
HETATM   13  O   UNL     1      43.282 -13.822   2.261  1.00  0.00    -0.273 OA
HETATM   14  H   UNL     1      40.910 -15.855   1.769  1.00  0.00     0.169 HD
BRANCH  12  15
HETATM   15  C   UNL     1      43.428 -16.095   1.506  1.00  0.00     0.141 C 
BRANCH  15  16
HETATM   16  C   UNL     1      43.440 -17.203   2.529  1.00  0.00    -0.049 A 
HETATM   17  C   UNL     1      43.408 -18.535   2.088  1.00  0.00     0.008 A 
HETATM   18  C   UNL     1      43.552 -19.592   2.990  1.00  0.00     0.017 A 
HETATM   19  C   UNL     1      43.734 -19.343   4.356  1.00  0.00     0.047 A 
HETATM   20  C   UNL     1      43.765 -18.012   4.799  1.00  0.00     0.017 A 
HETATM   21  C   UNL     1      43.623 -16.953   3.895  1.00  0.00     0.008 A 
BRANCH  19  22
HETATM   22  C   UNL     1      43.964 -20.485   5.313  1.00  0.00     0.417 C 
HETATM   23  F   UNL     1      45.252 -20.928   5.328  1.00  0.00    -0.166 F 
HETATM   24  F   UNL     1      43.667 -20.165   6.604  1.00  0.00    -0.166 F 
HETATM   25  F   UNL     1      43.199 -21.572   5.014  1.00  0.00    -0.166 F 
ENDBRANCH  19  22
ENDBRANCH  15  16
ENDBRANCH  12  15
ENDBRANCH   1  11
BRANCH   8  26
HETATM   26  C   UNL     1      38.367 -12.561  -2.620  1.00  0.00     0.270 C 
HETATM   27  N   UNL     1      37.170 -12.898  -3.191  1.00  0.00    -0.365 N 
HETATM   28  H   UNL     1      36.331 -12.847  -2.626  1.00  0.00     0.159 HD
HETATM   29  H   UNL     1      37.150 -13.244  -4.138  1.00  0.00     0.159 HD
HETATM   30  O   UNL     1      39.416 -12.649  -3.249  1.00  0.00    -0.266 OA
ENDBRANCH   8  26
TORSDOF 5
ENDMDL
MODEL 6
REMARK VINA RESULT:      -8.6      3.822      6.397
REMARK  5 active torsions:
REMARK  status: ('A' for Active; 'I' for Inactive)
REMARK    1  A    between atoms: C_2  and  C_3 
REMARK    2  A    between atoms: C_3  and  C_4 
REMARK       I    between atoms: C_4  and  N_5 
REMARK    3  A    between atoms: N_5  and  C_6 
REMARK    4  A    between atoms: C_13  and  C_14 
REMARK       I    between atoms: C_14  and  N_15 
REMARK    5  A    between atoms: C_22  and  C_23 
ROOT
HETATM    1  C   UNL     1      42.728 -12.702   3.031  1.00  0.00     0.035 A 
HETATM    2  C   UNL     1      43.245 -12.577   4.329  1.00  0.00     0.046 A 
HETATM    3  C   UNL     1      42.945 -11.428   5.090  1.00  0.00     0.030 A 
HETATM    4  C   UNL     1      42.104 -10.465   4.545  1.00  0.00     0.063 A 
HETATM    5  N   UNL     1      42.009  -9.490   5.499  1.00  0.00    -0.277 N 
HETATM    6  H   UNL     1      41.475  -8.630   5.448  1.00  0.00     0.189 HD
HETATM    7  N   UNL     1      42.739  -9.717   6.604  1.00  0.00    -0.168 NA
HETATM    8  C   UNL     1      43.325 -10.913   6.365  1.00  0.00     0.156 A 
HETATM    9  C   UNL     1      41.543 -10.575   3.271  1.00  0.00     0.034 A 
HETATM   10  C   UNL     1      41.887 -11.707   2.519  1.00  0.00     0.032 A 
ENDROOT
BRANCH   1  11
HETATM   11  N   UNL     1      43.112 -13.746   2.161  1.00  0.00    -0.327 N 
HETATM   12  C   UNL     1      42.374 -14.882   1.877  1.00  0.00     0.226 C 
HETATM   13  O   UNL     1      41.152 -14.974   1.940  1.00  0.00    -0.273 OA
HETATM   14  H   UNL     1      44.022 -13.664   1.722  1.00  0.00     0.169 HD
BRANCH  12  15
HETATM   15  C   UNL     1      43.241 -16.075   1.513  1.00  0.00     0.141 C 
BRANCH  15  16
HETATM   16  C   UNL     1      43.312 -17.195   2.521  1.00  0.00    -0.049 A 
HETATM   17  C   UNL     1      43.422 -18.516   2.062  1.00  0.00     0.008 A 
HETATM   18  C   UNL     1      43.625 -19.571   2.954  1.00  0.00     0.017 A 
HETATM   19  C   UNL     1      43.725 -19.329   4.330  1.00  0.00     0.047 A 
HETATM   20  C   UNL     1      43.614 -18.009   4.792  1.00  0.00     0.017 A 
HETATM   21  C   UNL     1      43.412 -16.953   3.896  1.00  0.00     0.008 A 
BRANCH  19  22
HETATM   22  C   UNL     1      44.019 -20.462   5.281  1.00  0.00     0.417 C 
HETATM   23  F   UNL     1      43.280 -21.580   5.036  1.00  0.00    -0.166 F 
HETATM   24  F   UNL     1      45.321 -20.863   5.244  1.00  0.00    -0.166 F 
HETATM   25  F   UNL     1      43.770 -20.127   6.578  1.00  0.00    -0.166 F 
ENDBRANCH  19  22
ENDBRANCH  15  16
ENDBRANCH  12  15
ENDBRANCH   1  11
BRANCH   8  26
HETATM   26  C   UNL     1      44.251 -11.518   7.333  1.00  0.00     0.270 C 
HETATM   27  N   UNL     1      45.523 -11.016   7.280  1.00  0.00    -0.365 N 
HETATM   28  H   UNL     1      45.737 -10.306   6.590  1.00  0.00     0.159 HD
HETATM   29  H   UNL     1      46.234 -11.398   7.884  1.00  0.00     0.159 HD
HETATM   30  O   UNL     1      43.955 -12.411   8.120  1.00  0.00    -0.266 OA
ENDBRANCH   8  26
TORSDOF 5
ENDMDL
MODEL 7
REMARK VINA RESULT:      -8.6      2.242      3.100
REMARK  5 active torsions:
REMARK  status: ('A' for Active; 'I' for Inactive)
REMARK    1  A    between atoms: C_2  and  C_3 
REMARK    2  A    between atoms: C_3  and  C_4 
REMARK       I    between atoms: C_4  and  N_5 
REMARK    3  A    between atoms: N_5  and  C_6 
REMARK    4  A    between atoms: C_13  and  C_14 
REMARK       I    between atoms: C_14  and  N_15 
REMARK    5  A    between atoms: C_22  and  C_23 
ROOT
HETATM    1  C   UNL     1      40.236 -13.707   1.723  1.00  0.00     0.035 A 
HETATM    2  C   UNL     1      39.401 -12.588   1.583  1.00  0.00     0.046 A 
HETATM    3  C   UNL     1      38.820 -12.306   0.329  1.00  0.00     0.030 A 
HETATM    4  C   UNL     1      39.056 -13.174  -0.730  1.00  0.00     0.063 A 
HETATM    5  N   UNL     1      38.377 -12.641  -1.790  1.00  0.00    -0.277 N 
HETATM    6  H   UNL     1      38.322 -13.011  -2.733  1.00  0.00     0.189 HD
HETATM    7  N   UNL     1      37.745 -11.486  -1.524  1.00  0.00    -0.168 NA
HETATM    8  C   UNL     1      38.011 -11.264  -0.216  1.00  0.00     0.156 A 
HETATM    9  C   UNL     1      39.853 -14.316  -0.616  1.00  0.00     0.034 A 
HETATM   10  C   UNL     1      40.451 -14.554   0.630  1.00  0.00     0.032 A 
ENDROOT
BRANCH   1  11
HETATM   11  N   UNL     1      40.972 -13.960   2.901  1.00  0.00    -0.327 N 
HETATM   12  C   UNL     1      42.309 -13.666   3.104  1.00  0.00     0.226 C 
HETATM   13  O   UNL     1      42.940 -12.779   2.537  1.00  0.00    -0.273 OA
HETATM   14  H   UNL     1      40.480 -14.419   3.658  1.00  0.00     0.169 HD
BRANCH  12  15
HETATM   15  C   UNL     1      42.978 -14.604   4.093  1.00  0.00     0.141 C 
BRANCH  15  16
HETATM   16  C   UNL     1      43.234 -16.014   3.623  1.00  0.00    -0.049 A 
HETATM   17  C   UNL     1      43.501 -17.010   4.576  1.00  0.00     0.008 A 
HETATM   18  C   UNL     1      43.612 -18.350   4.200  1.00  0.00     0.017 A 
HETATM   19  C   UNL     1      43.456 -18.729   2.861  1.00  0.00     0.047 A 
HETATM   20  C   UNL     1      43.190 -17.736   1.907  1.00  0.00     0.017 A 
HETATM   21  C   UNL     1      43.077 -16.393   2.284  1.00  0.00     0.008 A 
BRANCH  19  22
HETATM   22  C   UNL     1      43.502 -20.186   2.473  1.00  0.00     0.417 C 
HETATM   23  F   UNL     1      43.671 -21.023   3.534  1.00  0.00    -0.166 F 
HETATM   24  F   UNL     1      42.366 -20.606   1.848  1.00  0.00    -0.166 F 
HETATM   25  F   UNL     1      44.522 -20.461   1.613  1.00  0.00    -0.166 F 
ENDBRANCH  19  22
ENDBRANCH  15  16
ENDBRANCH  12  15
ENDBRANCH   1  11
BRANCH   8  26
HETATM   26  C   UNL     1      37.520 -10.062   0.471  1.00  0.00     0.270 C 
HETATM   27  N   UNL     1      36.417 -10.274   1.252  1.00  0.00    -0.365 N 
HETATM   28  H   UNL     1      36.016 -11.203   1.283  1.00  0.00     0.159 HD
HETATM   29  H   UNL     1      35.991  -9.497   1.733  1.00  0.00     0.159 HD
HETATM   30  O   UNL     1      38.015  -8.944   0.365  1.00  0.00    -0.266 OA
ENDBRANCH   8  26
TORSDOF 5
ENDMDL
MODEL 8
REMARK VINA RESULT:      -8.6      2.789      3.967
REMARK  5 active torsions:
REMARK  status: ('A' for Active; 'I' for Inactive)
REMARK    1  A    between atoms: C_2  and  C_3 
REMARK    2  A    between atoms: C_3  and  C_4 
REMARK       I    between atoms: C_4  and  N_5 
REMARK    3  A    between atoms: N_5  and  C_6 
REMARK    4  A    between atoms: C_13  and  C_14 
REMARK       I    between atoms: C_14  and  N_15 
REMARK    5  A    between atoms: C_22  and  C_23 
ROOT
HETATM    1  C   UNL     1      41.026 -13.929   5.357  1.00  0.00     0.035 A 
HETATM    2  C   UNL     1      40.952 -14.127   3.970  1.00  0.00     0.046 A 
HETATM    3  C   UNL     1      40.105 -13.307   3.194  1.00  0.00     0.030 A 
HETATM    4  C   UNL     1      39.396 -12.292   3.823  1.00  0.00     0.063 A 
HETATM    5  N   UNL     1      38.675 -11.688   2.830  1.00  0.00    -0.277 N 
HETATM    6  H   UNL     1      38.042 -10.902   2.921  1.00  0.00     0.189 HD
HETATM    7  N   UNL     1      38.828 -12.241   1.615  1.00  0.00    -0.168 NA
HETATM    8  C   UNL     1      39.710 -13.246   1.824  1.00  0.00     0.156 A 
HETATM    9  C   UNL     1      39.474 -12.044   5.196  1.00  0.00     0.034 A 
HETATM   10  C   UNL     1      40.292 -12.896   5.951  1.00  0.00     0.032 A 
ENDROOT
BRANCH   1  11
HETATM   11  N   UNL     1      41.728 -14.808   6.210  1.00  0.00    -0.327 N 
HETATM   12  C   UNL     1      43.097 -14.819   6.418  1.00  0.00     0.226 C 
HETATM   13  O   UNL     1      43.847 -13.856   6.290  1.00  0.00    -0.273 OA
HETATM   14  H   UNL     1      41.182 -15.508   6.696  1.00  0.00     0.169 HD
BRANCH  12  15
HETATM   15  C   UNL     1      43.629 -16.193   6.785  1.00  0.00     0.141 C 
BRANCH  15  16
HETATM   16  C   UNL     1      43.756 -17.193   5.664  1.00  0.00    -0.049 A 
HETATM   17  C   UNL     1      43.889 -18.554   5.979  1.00  0.00     0.008 A 
HETATM   18  C   UNL     1      43.875 -19.527   4.978  1.00  0.00     0.017 A 
HETATM   19  C   UNL     1      43.724 -19.163   3.634  1.00  0.00     0.047 A 
HETATM   20  C   UNL     1      43.592 -17.803   3.316  1.00  0.00     0.017 A 
HETATM   21  C   UNL     1      43.604 -16.829   4.320  1.00  0.00     0.008 A 
BRANCH  19  22
HETATM   22  C   UNL     1      43.635 -20.222   2.564  1.00  0.00     0.417 C 
HETATM   23  F   UNL     1      44.558 -20.073   1.575  1.00  0.00    -0.166 F 
HETATM   24  F   UNL     1      43.813 -21.484   3.050  1.00  0.00    -0.166 F 
HETATM   25  F   UNL     1      42.421 -20.231   1.945  1.00  0.00    -0.166 F 
ENDBRANCH  19  22
ENDBRANCH  15  16
ENDBRANCH  12  15
ENDBRANCH   1  11
BRANCH   8  26
HETATM   26  C   UNL     1      40.127 -14.137   0.733  1.00  0.00     0.270 C 
HETATM   27  N   UNL     1      39.692 -15.428   0.867  1.00  0.00    -0.365 N 
HETATM   28  H   UNL     1      39.153 -15.676   1.687  1.00  0.00     0.159 HD
HETATM   29  H   UNL     1      39.961 -16.117   0.182  1.00  0.00     0.159 HD
HETATM   30  O   UNL     1      40.822 -13.799  -0.220  1.00  0.00    -0.266 OA
ENDBRANCH   8  26
TORSDOF 5
ENDMDL
MODEL 9
REMARK VINA RESULT:      -8.4      4.617      6.413
REMARK  5 active torsions:
REMARK  status: ('A' for Active; 'I' for Inactive)
REMARK    1  A    between atoms: C_2  and  C_3 
REMARK    2  A    between atoms: C_3  and  C_4 
REMARK       I    between atoms: C_4  and  N_5 
REMARK    3  A    between atoms: N_5  and  C_6 
REMARK    4  A    between atoms: C_13  and  C_14 
REMARK       I    between atoms: C_14  and  N_15 
REMARK    5  A    between atoms: C_22  and  C_23 
ROOT
HETATM    1  C   UNL     1      40.564 -12.387   4.545  1.00  0.00     0.035 A 
HETATM    2  C   UNL     1      40.514 -11.697   5.766  1.00  0.00     0.046 A 
HETATM    3  C   UNL     1      39.641 -10.598   5.908  1.00  0.00     0.030 A 
HETATM    4  C   UNL     1      38.819 -10.253   4.843  1.00  0.00     0.063 A 
HETATM    5  N   UNL     1      38.108  -9.167   5.274  1.00  0.00    -0.277 N 
HETATM    6  H   UNL     1      37.407  -8.647   4.758  1.00  0.00     0.189 HD
HETATM    7  N   UNL     1      38.417  -8.755   6.514  1.00  0.00    -0.168 NA
HETATM    8  C   UNL     1      39.367  -9.629   6.920  1.00  0.00     0.156 A 
HETATM    9  C   UNL     1      38.817 -10.941   3.627  1.00  0.00     0.034 A 
HETATM   10  C   UNL     1      39.720 -12.006   3.496  1.00  0.00     0.032 A 
ENDROOT
BRANCH   1  11
HETATM   11  N   UNL     1      41.521 -13.392   4.284  1.00  0.00    -0.327 N 
HETATM   12  C   UNL     1      41.670 -14.576   4.986  1.00  0.00     0.226 C 
HETATM   13  O   UNL     1      40.785 -15.154   5.608  1.00  0.00    -0.273 OA
HETATM   14  H   UNL     1      42.171 -13.219   3.526  1.00  0.00     0.169 HD
BRANCH  12  15
HETATM   15  C   UNL     1      43.096 -15.099   4.967  1.00  0.00     0.141 C 
BRANCH  15  16
HETATM   16  C   UNL     1      43.332 -16.398   4.238  1.00  0.00    -0.049 A 
HETATM   17  C   UNL     1      43.889 -17.479   4.938  1.00  0.00     0.008 A 
HETATM   18  C   UNL     1      44.002 -18.737   4.343  1.00  0.00     0.017 A 
HETATM   19  C   UNL     1      43.558 -18.946   3.032  1.00  0.00     0.047 A 
HETATM   20  C   UNL     1      43.002 -17.867   2.329  1.00  0.00     0.017 A 
HETATM   21  C   UNL     1      42.887 -16.607   2.927  1.00  0.00     0.008 A 
BRANCH  19  22
HETATM   22  C   UNL     1      43.613 -20.324   2.421  1.00  0.00     0.417 C 
HETATM   23  F   UNL     1      43.868 -21.308   3.328  1.00  0.00    -0.166 F 
HETATM   24  F   UNL     1      42.450 -20.680   1.805  1.00  0.00    -0.166 F 
HETATM   25  F   UNL     1      44.583 -20.431   1.471  1.00  0.00    -0.166 F 
ENDBRANCH  19  22
ENDBRANCH  15  16
ENDBRANCH  12  15
ENDBRANCH   1  11
BRANCH   8  26
HETATM   26  C   UNL     1      40.008  -9.507   8.236  1.00  0.00     0.270 C 
HETATM   27  N   UNL     1      39.290 -10.057   9.263  1.00  0.00    -0.365 N 
HETATM   28  H   UNL     1      38.390 -10.474   9.057  1.00  0.00     0.159 HD
HETATM   29  H   UNL     1      39.637  -9.988  10.206  1.00  0.00     0.159 HD
HETATM   30  O   UNL     1      41.082  -8.950   8.442  1.00  0.00    -0.266 OA
ENDBRANCH   8  26
TORSDOF 5
ENDMDL
MODEL 10
REMARK VINA RESULT:      -8.3      3.213      5.094
REMARK  5 active torsions:
REMARK  status: ('A' for Active; 'I' for Inactive)
REMARK    1  A    between atoms: C_2  and  C_3 
REMARK    2  A    between atoms: C_3  and  C_4 
REMARK       I    between atoms: C_4  and  N_5 
REMARK    3  A    between atoms: N_5  and  C_6 
REMARK    4  A    between atoms: C_13  and  C_14 
REMARK       I    between atoms: C_14  and  N_15 
REMARK    5  A    between atoms: C_22  and  C_23 
ROOT
HETATM    1  C   UNL     1      40.726 -13.150   2.229  1.00  0.00     0.035 A 
HETATM    2  C   UNL     1      40.922 -12.618   3.512  1.00  0.00     0.046 A 
HETATM    3  C   UNL     1      40.040 -11.630   3.998  1.00  0.00     0.030 A 
HETATM    4  C   UNL     1      38.968 -11.239   3.204  1.00  0.00     0.063 A 
HETATM    5  N   UNL     1      38.312 -10.284   3.930  1.00  0.00    -0.277 N 
HETATM    6  H   UNL     1      37.477  -9.775   3.663  1.00  0.00     0.189 HD
HETATM    7  N   UNL     1      38.879  -9.995   5.113  1.00  0.00    -0.168 NA
HETATM    8  C   UNL     1      39.951 -10.819   5.169  1.00  0.00     0.156 A 
HETATM    9  C   UNL     1      38.723 -11.775   1.938  1.00  0.00     0.034 A 
HETATM   10  C   UNL     1      39.635 -12.727   1.461  1.00  0.00     0.032 A 
ENDROOT
BRANCH   1  11
HETATM   11  N   UNL     1      41.655 -14.023   1.622  1.00  0.00    -0.327 N 
HETATM   12  C   UNL     1      41.684 -15.401   1.754  1.00  0.00     0.226 C 
HETATM   13  O   UNL     1      40.718 -16.114   2.008  1.00  0.00    -0.273 OA
HETATM   14  H   UNL     1      42.380 -13.598   1.057  1.00  0.00     0.169 HD
BRANCH  12  15
HETATM   15  C   UNL     1      43.079 -15.981   1.603  1.00  0.00     0.141 C 
BRANCH  15  16
HETATM   16  C   UNL     1      43.429 -17.146   2.495  1.00  0.00    -0.049 A 
HETATM   17  C   UNL     1      43.649 -16.914   3.861  1.00  0.00     0.008 A 
HETATM   18  C   UNL     1      43.844 -17.976   4.746  1.00  0.00     0.017 A 
HETATM   19  C   UNL     1      43.820 -19.299   4.287  1.00  0.00     0.047 A 
HETATM   20  C   UNL     1      43.601 -19.534   2.921  1.00  0.00     0.017 A 
HETATM   21  C   UNL     1      43.404 -18.469   2.035  1.00  0.00     0.008 A 
BRANCH  19  22
HETATM   22  C   UNL     1      43.956 -20.444   5.260  1.00  0.00     0.417 C 
HETATM   23  F   UNL     1      43.217 -21.535   4.917  1.00  0.00    -0.166 F 
HETATM   24  F   UNL     1      45.239 -20.888   5.382  1.00  0.00    -0.166 F 
HETATM   25  F   UNL     1      43.559 -20.103   6.518  1.00  0.00    -0.166 F 
ENDBRANCH  19  22
ENDBRANCH  15  16
ENDBRANCH  12  15
ENDBRANCH   1  11
BRANCH   8  26
HETATM   26  C   UNL     1      40.877 -10.794   6.310  1.00  0.00     0.270 C 
HETATM   27  N   UNL     1      40.295 -10.434   7.495  1.00  0.00    -0.365 N 
HETATM   28  H   UNL     1      39.310 -10.197   7.500  1.00  0.00     0.159 HD
HETATM   29  H   UNL     1      40.863 -10.356   8.325  1.00  0.00     0.159 HD
HETATM   30  O   UNL     1      42.076 -11.047   6.244  1.00  0.00    -0.266 OA
ENDBRANCH   8  26
TORSDOF 5
ENDMDL
