MODEL 1
REMARK VINA RESULT:      -9.1      0.000      0.000
REMARK  10 active torsions:
REMARK  status: ('A' for Active; 'I' for Inactive)
REMARK    1  A    between atoms: C_4  and  C_5 
REMARK    2  A    between atoms: C_7  and  C_8 
REMARK    3  A    between atoms: C_8  and  C_9 
REMARK       I    between atoms: C_9  and  N_10 
REMARK    4  A    between atoms: N_10  and  C_11 
REMARK    5  A    between atoms: C_11  and  C_12 
REMARK    6  A    between atoms: C_12  and  N_13 
REMARK    7  A    between atoms: C_24  and  C_25 
REMARK    8  A    between atoms: C_25  and  O_26 
REMARK    9  A    between atoms: O_26  and  C_27 
REMARK   10  A    between atoms: C_27  and  C_28 
ROOT
HETATM    1  C   UNL     1      41.689 -12.526   3.397  1.00  0.00     0.166 C 
HETATM    2  N   UNL     1      40.402 -11.764   3.571  1.00  0.00    -0.318 N 
HETATM    3  C   UNL     1      39.890 -10.893   4.394  1.00  0.00     0.011 C 
HETATM    4  C   UNL     1      39.455 -11.960   2.347  1.00  0.00     0.170 C 
HETATM    5  S   UNL     1      38.174 -10.801   2.287  1.00  0.00    -0.086 SA
HETATM    6  C   UNL     1      38.654 -10.158   3.890  1.00  0.00     0.135 C 
HETATM    7  N   UNL     1      39.542 -12.887   1.470  1.00  0.00    -0.229 NA
HETATM    8  C   UNL     1      40.543 -13.818   1.575  1.00  0.00     0.048 C 
HETATM    9  C   UNL     1      40.451 -14.890   0.511  1.00  0.00     0.071 C 
HETATM   10  C   UNL     1      41.548 -13.712   2.472  1.00  0.00     0.069 C 
ENDROOT
BRANCH   3  11
HETATM   11  C   UNL     1      40.472 -10.498   5.729  1.00  0.00     0.156 C 
BRANCH  11  12
HETATM   12  C   UNL     1      39.545 -10.830   6.892  1.00  0.00     0.223 C 
HETATM   13  N   UNL     1      39.639 -10.002   7.980  1.00  0.00    -0.359 N 
HETATM   14  H   UNL     1      40.452  -9.391   8.034  1.00  0.00     0.162 HD
HETATM   15  O   UNL     1      38.744 -11.760   6.842  1.00  0.00    -0.273 OA
BRANCH  13  16
HETATM   16  C   UNL     1      38.974 -10.257   9.263  1.00  0.00     0.150 C 
BRANCH  16  17
HETATM   17  C   UNL     1      39.478  -9.435  10.474  1.00  0.00     0.253 C 
BRANCH  17  18
HETATM   18  N   UNL     1      40.498 -10.184  11.312  1.00  0.00    -0.077 N 
HETATM   19  H   UNL     1      40.483 -11.171  10.987  1.00  0.00     0.279 HD
HETATM   20  C   UNL     1      41.910  -9.696  11.125  1.00  0.00     0.269 C 
HETATM   21  C   UNL     1      40.130 -10.200  12.770  1.00  0.00     0.269 C 
ENDBRANCH  17  18
ENDBRANCH  16  17
ENDBRANCH  13  16
ENDBRANCH  11  12
ENDBRANCH   3  11
BRANCH   1  22
HETATM   22  C   UNL     1      42.434 -12.754   4.707  1.00  0.00    -0.024 A 
HETATM   23  C   UNL     1      43.650 -12.039   4.875  1.00  0.00     0.017 A 
HETATM   24  C   UNL     1      44.393 -12.103   6.059  1.00  0.00    -0.061 A 
HETATM   25  C   UNL     1      45.680 -11.341   6.195  1.00  0.00     0.048 C 
HETATM   26  C   UNL     1      43.953 -12.945   7.076  1.00  0.00     0.007 A 
HETATM   27  C   UNL     1      42.775 -13.681   6.924  1.00  0.00     0.008 A 
HETATM   28  C   UNL     1      41.989 -13.582   5.760  1.00  0.00    -0.053 A 
HETATM   29  C   UNL     1      40.754 -14.442   5.697  1.00  0.00     0.049 C 
ENDBRANCH   1  22
BRANCH  10  30
HETATM   30  C   UNL     1      42.674 -14.675   2.447  1.00  0.00     0.294 C 
HETATM   31  O   UNL     1      43.733 -14.419   1.902  1.00  0.00    -0.259 OA
BRANCH  30  32
HETATM   32  O   UNL     1      42.351 -15.790   3.133  1.00  0.00    -0.313 OA
BRANCH  32  33
HETATM   33  C   UNL     1      43.405 -16.343   3.939  1.00  0.00     0.217 C 
BRANCH  33  34
HETATM   34  C   UNL     1      43.506 -17.817   3.631  1.00  0.00    -0.034 A 
HETATM   35  C   UNL     1      43.104 -18.312   2.380  1.00  0.00     0.009 A 
HETATM   36  C   UNL     1      43.196 -19.674   2.086  1.00  0.00     0.001 A 
HETATM   37  C   UNL     1      43.705 -20.557   3.034  1.00  0.00     0.000 A 
HETATM   38  C   UNL     1      44.122 -20.079   4.275  1.00  0.00     0.001 A 
HETATM   39  C   UNL     1      44.021 -18.718   4.574  1.00  0.00     0.009 A 
ENDBRANCH  33  34
ENDBRANCH  32  33
ENDBRANCH  30  32
ENDBRANCH  10  30
TORSDOF 10
ENDMDL
MODEL 2
REMARK VINA RESULT:      -8.8      1.314      2.354
REMARK  10 active torsions:
REMARK  status: ('A' for Active; 'I' for Inactive)
REMARK    1  A    between atoms: C_4  and  C_5 
REMARK    2  A    between atoms: C_7  and  C_8 
REMARK    3  A    between atoms: C_8  and  C_9 
REMARK       I    between atoms: C_9  and  N_10 
REMARK    4  A    between atoms: N_10  and  C_11 
REMARK    5  A    between atoms: C_11  and  C_12 
REMARK    6  A    between atoms: C_12  and  N_13 
REMARK    7  A    between atoms: C_24  and  C_25 
REMARK    8  A    between atoms: C_25  and  O_26 
REMARK    9  A    between atoms: O_26  and  C_27 
REMARK   10  A    between atoms: C_27  and  C_28 
ROOT
HETATM    1  C   UNL     1      41.473 -12.250   3.711  1.00  0.00     0.166 C 
HETATM    2  N   UNL     1      40.227 -11.435   3.934  1.00  0.00    -0.318 N 
HETATM    3  C   UNL     1      39.581 -10.896   4.929  1.00  0.00     0.011 C 
HETATM    4  C   UNL     1      39.594 -10.980   2.582  1.00  0.00     0.170 C 
HETATM    5  S   UNL     1      38.433  -9.714   2.766  1.00  0.00    -0.086 SA
HETATM    6  C   UNL     1      38.547  -9.843   4.551  1.00  0.00     0.135 C 
HETATM    7  N   UNL     1      39.839 -11.484   1.431  1.00  0.00    -0.229 NA
HETATM    8  C   UNL     1      40.731 -12.520   1.328  1.00  0.00     0.048 C 
HETATM    9  C   UNL     1      40.839 -13.053  -0.084  1.00  0.00     0.071 C 
HETATM   10  C   UNL     1      41.493 -12.934   2.365  1.00  0.00     0.069 C 
ENDROOT
BRANCH   3  11
HETATM   11  C   UNL     1      39.844 -11.158   6.392  1.00  0.00     0.156 C 
BRANCH  11  12
HETATM   12  C   UNL     1      40.720 -10.088   7.030  1.00  0.00     0.223 C 
HETATM   13  N   UNL     1      40.552  -9.909   8.378  1.00  0.00    -0.359 N 
HETATM   14  H   UNL     1      39.722 -10.318   8.804  1.00  0.00     0.162 HD
HETATM   15  O   UNL     1      41.546  -9.449   6.381  1.00  0.00    -0.273 OA
BRANCH  13  16
HETATM   16  C   UNL     1      41.160  -8.813   9.141  1.00  0.00     0.150 C 
BRANCH  16  17
HETATM   17  C   UNL     1      42.465  -9.147   9.905  1.00  0.00     0.253 C 
BRANCH  17  18
HETATM   18  N   UNL     1      42.280 -10.244  10.937  1.00  0.00    -0.077 N 
HETATM   19  H   UNL     1      41.832 -11.043  10.446  1.00  0.00     0.279 HD
HETATM   20  C   UNL     1      43.573 -10.764  11.507  1.00  0.00     0.269 C 
HETATM   21  C   UNL     1      41.342  -9.831  12.039  1.00  0.00     0.269 C 
ENDBRANCH  17  18
ENDBRANCH  16  17
ENDBRANCH  13  16
ENDBRANCH  11  12
ENDBRANCH   3  11
BRANCH   1  22
HETATM   22  C   UNL     1      41.864 -13.091   4.921  1.00  0.00    -0.024 A 
HETATM   23  C   UNL     1      40.982 -14.149   5.267  1.00  0.00     0.017 A 
HETATM   24  C   UNL     1      41.260 -15.038   6.311  1.00  0.00    -0.061 A 
HETATM   25  C   UNL     1      40.296 -16.138   6.655  1.00  0.00     0.048 C 
HETATM   26  C   UNL     1      42.409 -14.836   7.069  1.00  0.00     0.007 A 
HETATM   27  C   UNL     1      43.279 -13.785   6.766  1.00  0.00     0.008 A 
HETATM   28  C   UNL     1      43.039 -12.917   5.684  1.00  0.00    -0.053 A 
HETATM   29  C   UNL     1      44.032 -11.806   5.469  1.00  0.00     0.049 C 
ENDBRANCH   1  22
BRANCH  10  30
HETATM   30  C   UNL     1      42.536 -13.966   2.156  1.00  0.00     0.294 C 
HETATM   31  O   UNL     1      43.710 -13.680   2.007  1.00  0.00    -0.259 OA
BRANCH  30  32
HETATM   32  O   UNL     1      41.991 -15.198   2.210  1.00  0.00    -0.313 OA
BRANCH  32  33
HETATM   33  C   UNL     1      42.770 -16.243   1.605  1.00  0.00     0.217 C 
BRANCH  33  34
HETATM   34  C   UNL     1      43.253 -17.162   2.701  1.00  0.00    -0.034 A 
HETATM   35  C   UNL     1      43.499 -16.665   3.990  1.00  0.00     0.009 A 
HETATM   36  C   UNL     1      43.945 -17.509   5.010  1.00  0.00     0.001 A 
HETATM   37  C   UNL     1      44.135 -18.864   4.757  1.00  0.00     0.000 A 
HETATM   38  C   UNL     1      43.880 -19.376   3.486  1.00  0.00     0.001 A 
HETATM   39  C   UNL     1      43.445 -18.530   2.462  1.00  0.00     0.009 A 
ENDBRANCH  33  34
ENDBRANCH  32  33
ENDBRANCH  30  32
ENDBRANCH  10  30
TORSDOF 10
ENDMDL
MODEL 3
REMARK VINA RESULT:      -8.3      2.363      7.600
REMARK  10 active torsions:
REMARK  status: ('A' for Active; 'I' for Inactive)
REMARK    1  A    between atoms: C_4  and  C_5 
REMARK    2  A    between atoms: C_7  and  C_8 
REMARK    3  A    between atoms: C_8  and  C_9 
REMARK       I    between atoms: C_9  and  N_10 
REMARK    4  A    between atoms: N_10  and  C_11 
REMARK    5  A    between atoms: C_11  and  C_12 
REMARK    6  A    between atoms: C_12  and  N_13 
REMARK    7  A    between atoms: C_24  and  C_25 
REMARK    8  A    between atoms: C_25  and  O_26 
REMARK    9  A    between atoms: O_26  and  C_27 
REMARK   10  A    between atoms: C_27  and  C_28 
ROOT
HETATM    1  C   UNL     1      40.795 -11.523   4.719  1.00  0.00     0.166 C 
HETATM    2  N   UNL     1      41.037 -11.453   3.234  1.00  0.00    -0.318 N 
HETATM    3  C   UNL     1      41.696 -12.111   2.323  1.00  0.00     0.011 C 
HETATM    4  C   UNL     1      40.137 -10.370   2.561  1.00  0.00     0.170 C 
HETATM    5  S   UNL     1      40.055 -10.527   0.843  1.00  0.00    -0.086 SA
HETATM    6  C   UNL     1      41.295 -11.821   0.882  1.00  0.00     0.135 C 
HETATM    7  N   UNL     1      39.533  -9.416   3.163  1.00  0.00    -0.229 NA
HETATM    8  C   UNL     1      39.659  -9.293   4.522  1.00  0.00     0.048 C 
HETATM    9  C   UNL     1      38.955  -8.067   5.060  1.00  0.00     0.071 C 
HETATM   10  C   UNL     1      40.262 -10.230   5.287  1.00  0.00     0.069 C 
ENDROOT
BRANCH   3  11
HETATM   11  C   UNL     1      42.726 -13.182   2.585  1.00  0.00     0.156 C 
BRANCH  11  12
HETATM   12  C   UNL     1      42.101 -14.553   2.807  1.00  0.00     0.223 C 
HETATM   13  N   UNL     1      42.929 -15.503   3.345  1.00  0.00    -0.359 N 
HETATM   14  H   UNL     1      43.929 -15.308   3.341  1.00  0.00     0.162 HD
HETATM   15  O   UNL     1      40.921 -14.782   2.549  1.00  0.00    -0.273 OA
BRANCH  13  16
HETATM   16  C   UNL     1      42.580 -16.924   3.463  1.00  0.00     0.150 C 
BRANCH  16  17
HETATM   17  C   UNL     1      43.080 -17.852   2.330  1.00  0.00     0.253 C 
BRANCH  17  18
HETATM   18  N   UNL     1      44.030 -18.927   2.823  1.00  0.00    -0.077 N 
HETATM   19  H   UNL     1      44.936 -18.769   2.338  1.00  0.00     0.279 HD
HETATM   20  C   UNL     1      44.317 -18.850   4.299  1.00  0.00     0.269 C 
HETATM   21  C   UNL     1      43.568 -20.307   2.443  1.00  0.00     0.269 C 
ENDBRANCH  17  18
ENDBRANCH  16  17
ENDBRANCH  13  16
ENDBRANCH  11  12
ENDBRANCH   3  11
BRANCH   1  22
HETATM   22  C   UNL     1      41.928 -12.199   5.480  1.00  0.00    -0.024 A 
HETATM   23  C   UNL     1      43.171 -11.510   5.508  1.00  0.00     0.017 A 
HETATM   24  C   UNL     1      44.269 -11.987   6.230  1.00  0.00    -0.061 A 
HETATM   25  C   UNL     1      45.571 -11.236   6.226  1.00  0.00     0.048 C 
HETATM   26  C   UNL     1      44.154 -13.207   6.890  1.00  0.00     0.007 A 
HETATM   27  C   UNL     1      42.952 -13.918   6.855  1.00  0.00     0.008 A 
HETATM   28  C   UNL     1      41.822 -13.422   6.178  1.00  0.00    -0.053 A 
HETATM   29  C   UNL     1      40.589 -14.287   6.186  1.00  0.00     0.049 C 
ENDBRANCH   1  22
BRANCH  10  30
HETATM   30  C   UNL     1      40.246 -10.107   6.764  1.00  0.00     0.294 C 
HETATM   31  O   UNL     1      39.431 -10.692   7.454  1.00  0.00    -0.259 OA
BRANCH  30  32
HETATM   32  O   UNL     1      41.262  -9.323   7.179  1.00  0.00    -0.313 OA
BRANCH  32  33
HETATM   33  C   UNL     1      41.460  -9.275   8.602  1.00  0.00     0.217 C 
BRANCH  33  34
HETATM   34  C   UNL     1      42.946  -9.324   8.869  1.00  0.00    -0.034 A 
HETATM   35  C   UNL     1      43.804  -8.370   8.299  1.00  0.00     0.009 A 
HETATM   36  C   UNL     1      45.178  -8.407   8.543  1.00  0.00     0.001 A 
HETATM   37  C   UNL     1      45.711  -9.390   9.372  1.00  0.00     0.000 A 
HETATM   38  C   UNL     1      44.870 -10.335   9.957  1.00  0.00     0.001 A 
HETATM   39  C   UNL     1      43.496 -10.305   9.705  1.00  0.00     0.009 A 
ENDBRANCH  33  34
ENDBRANCH  32  33
ENDBRANCH  30  32
ENDBRANCH  10  30
TORSDOF 10
ENDMDL
MODEL 4
REMARK VINA RESULT:      -8.3      1.958      2.493
REMARK  10 active torsions:
REMARK  status: ('A' for Active; 'I' for Inactive)
REMARK    1  A    between atoms: C_4  and  C_5 
REMARK    2  A    between atoms: C_7  and  C_8 
REMARK    3  A    between atoms: C_8  and  C_9 
REMARK       I    between atoms: C_9  and  N_10 
REMARK    4  A    between atoms: N_10  and  C_11 
REMARK    5  A    between atoms: C_11  and  C_12 
REMARK    6  A    between atoms: C_12  and  N_13 
REMARK    7  A    between atoms: C_24  and  C_25 
REMARK    8  A    between atoms: C_25  and  O_26 
REMARK    9  A    between atoms: O_26  and  C_27 
REMARK   10  A    between atoms: C_27  and  C_28 
ROOT
HETATM    1  C   UNL     1      41.902 -11.869   2.367  1.00  0.00     0.166 C 
HETATM    2  N   UNL     1      40.968 -10.710   2.136  1.00  0.00    -0.318 N 
HETATM    3  C   UNL     1      40.679  -9.568   2.691  1.00  0.00     0.011 C 
HETATM    4  C   UNL     1      40.230 -10.839   0.767  1.00  0.00     0.170 C 
HETATM    5  S   UNL     1      39.484  -9.366   0.257  1.00  0.00    -0.086 SA
HETATM    6  C   UNL     1      39.894  -8.593   1.822  1.00  0.00     0.135 C 
HETATM    7  N   UNL     1      40.119 -11.906   0.071  1.00  0.00    -0.229 NA
HETATM    8  C   UNL     1      40.683 -13.069   0.530  1.00  0.00     0.048 C 
HETATM    9  C   UNL     1      40.385 -14.250  -0.367  1.00  0.00     0.071 C 
HETATM   10  C   UNL     1      41.496 -13.110   1.609  1.00  0.00     0.069 C 
ENDROOT
BRANCH   3  11
HETATM   11  C   UNL     1      41.136  -9.113   4.055  1.00  0.00     0.156 C 
BRANCH  11  12
HETATM   12  C   UNL     1      40.066  -9.303   5.124  1.00  0.00     0.223 C 
HETATM   13  N   UNL     1      40.518  -9.328   6.417  1.00  0.00    -0.359 N 
HETATM   14  H   UNL     1      41.518  -9.452   6.561  1.00  0.00     0.162 HD
HETATM   15  O   UNL     1      38.873  -9.394   4.843  1.00  0.00    -0.273 OA
BRANCH  13  16
HETATM   16  C   UNL     1      39.682  -9.682   7.570  1.00  0.00     0.150 C 
BRANCH  16  17
HETATM   17  C   UNL     1      39.947  -8.899   8.879  1.00  0.00     0.253 C 
BRANCH  17  18
HETATM   18  N   UNL     1      40.635  -9.737   9.940  1.00  0.00    -0.077 N 
HETATM   19  H   UNL     1      40.658 -10.713   9.580  1.00  0.00     0.279 HD
HETATM   20  C   UNL     1      42.065  -9.342  10.192  1.00  0.00     0.269 C 
HETATM   21  C   UNL     1      39.858  -9.768  11.228  1.00  0.00     0.269 C 
ENDBRANCH  17  18
ENDBRANCH  16  17
ENDBRANCH  13  16
ENDBRANCH  11  12
ENDBRANCH   3  11
BRANCH   1  22
HETATM   22  C   UNL     1      42.287 -12.046   3.831  1.00  0.00    -0.024 A 
HETATM   23  C   UNL     1      43.624 -11.714   4.178  1.00  0.00     0.017 A 
HETATM   24  C   UNL     1      44.084 -11.764   5.498  1.00  0.00    -0.061 A 
HETATM   25  C   UNL     1      45.509 -11.416   5.823  1.00  0.00     0.048 C 
HETATM   26  C   UNL     1      43.218 -12.214   6.489  1.00  0.00     0.007 A 
HETATM   27  C   UNL     1      41.906 -12.574   6.169  1.00  0.00     0.008 A 
HETATM   28  C   UNL     1      41.413 -12.475   4.854  1.00  0.00    -0.053 A 
HETATM   29  C   UNL     1      39.992 -12.915   4.624  1.00  0.00     0.049 C 
ENDBRANCH   1  22
BRANCH  10  30
HETATM   30  C   UNL     1      42.184 -14.370   1.975  1.00  0.00     0.294 C 
HETATM   31  O   UNL     1      43.357 -14.567   1.711  1.00  0.00    -0.259 OA
BRANCH  30  32
HETATM   32  O   UNL     1      41.346 -15.181   2.651  1.00  0.00    -0.313 OA
BRANCH  32  33
HETATM   33  C   UNL     1      41.929 -16.403   3.135  1.00  0.00     0.217 C 
BRANCH  33  34
HETATM   34  C   UNL     1      42.236 -16.226   4.603  1.00  0.00    -0.034 A 
HETATM   35  C   UNL     1      43.552 -15.990   5.031  1.00  0.00     0.009 A 
HETATM   36  C   UNL     1      43.844 -15.824   6.386  1.00  0.00     0.001 A 
HETATM   37  C   UNL     1      42.822 -15.876   7.329  1.00  0.00     0.000 A 
HETATM   38  C   UNL     1      41.509 -16.094   6.918  1.00  0.00     0.001 A 
HETATM   39  C   UNL     1      41.217 -16.271   5.563  1.00  0.00     0.009 A 
ENDBRANCH  33  34
ENDBRANCH  32  33
ENDBRANCH  30  32
ENDBRANCH  10  30
TORSDOF 10
ENDMDL
MODEL 5
REMARK VINA RESULT:      -8.1      2.486      3.604
REMARK  10 active torsions:
REMARK  status: ('A' for Active; 'I' for Inactive)
REMARK    1  A    between atoms: C_4  and  C_5 
REMARK    2  A    between atoms: C_7  and  C_8 
REMARK    3  A    between atoms: C_8  and  C_9 
REMARK       I    between atoms: C_9  and  N_10 
REMARK    4  A    between atoms: N_10  and  C_11 
REMARK    5  A    between atoms: C_11  and  C_12 
REMARK    6  A    between atoms: C_12  and  N_13 
REMARK    7  A    between atoms: C_24  and  C_25 
REMARK    8  A    between atoms: C_25  and  O_26 
REMARK    9  A    between atoms: O_26  and  C_27 
REMARK   10  A    between atoms: C_27  and  C_28 
ROOT
HETATM    1  C   UNL     1      40.409 -11.164   3.613  1.00  0.00     0.166 C 
HETATM    2  N   UNL     1      39.637 -10.343   4.612  1.00  0.00    -0.318 N 
HETATM    3  C   UNL     1      39.712 -10.020   5.872  1.00  0.00     0.011 C 
HETATM    4  C   UNL     1      38.498  -9.530   3.921  1.00  0.00     0.170 C 
HETATM    5  S   UNL     1      37.863  -8.269   4.917  1.00  0.00    -0.086 SA
HETATM    6  C   UNL     1      38.853  -8.836   6.301  1.00  0.00     0.135 C 
HETATM    7  N   UNL     1      38.015  -9.753   2.758  1.00  0.00    -0.229 NA
HETATM    8  C   UNL     1      38.511 -10.792   2.013  1.00  0.00     0.048 C 
HETATM    9  C   UNL     1      37.773 -10.971   0.705  1.00  0.00     0.071 C 
HETATM   10  C   UNL     1      39.604 -11.498   2.381  1.00  0.00     0.069 C 
ENDROOT
BRANCH   3  11
HETATM   11  C   UNL     1      40.635 -10.648   6.887  1.00  0.00     0.156 C 
BRANCH  11  12
HETATM   12  C   UNL     1      41.946  -9.886   7.035  1.00  0.00     0.223 C 
HETATM   13  N   UNL     1      42.658 -10.148   8.176  1.00  0.00    -0.359 N 
HETATM   14  H   UNL     1      42.173 -10.633   8.929  1.00  0.00     0.162 HD
HETATM   15  O   UNL     1      42.352  -9.112   6.172  1.00  0.00    -0.273 OA
BRANCH  13  16
HETATM   16  C   UNL     1      43.844  -9.391   8.595  1.00  0.00     0.150 C 
BRANCH  16  17
HETATM   17  C   UNL     1      44.600  -9.927   9.835  1.00  0.00     0.253 C 
BRANCH  17  18
HETATM   18  N   UNL     1      44.033  -9.407  11.143  1.00  0.00    -0.077 N 
HETATM   19  H   UNL     1      44.845  -9.208  11.761  1.00  0.00     0.279 HD
HETATM   20  C   UNL     1      43.278  -8.112  11.003  1.00  0.00     0.269 C 
HETATM   21  C   UNL     1      43.193 -10.438  11.845  1.00  0.00     0.269 C 
ENDBRANCH  17  18
ENDBRANCH  16  17
ENDBRANCH  13  16
ENDBRANCH  11  12
ENDBRANCH   3  11
BRANCH   1  22
HETATM   22  C   UNL     1      41.200 -12.299   4.253  1.00  0.00    -0.024 A 
HETATM   23  C   UNL     1      40.446 -13.276   4.956  1.00  0.00     0.017 A 
HETATM   24  C   UNL     1      41.041 -14.406   5.528  1.00  0.00    -0.061 A 
HETATM   25  C   UNL     1      40.211 -15.412   6.274  1.00  0.00     0.048 C 
HETATM   26  C   UNL     1      42.425 -14.538   5.456  1.00  0.00     0.007 A 
HETATM   27  C   UNL     1      43.192 -13.576   4.794  1.00  0.00     0.008 A 
HETATM   28  C   UNL     1      42.600 -12.463   4.167  1.00  0.00    -0.053 A 
HETATM   29  C   UNL     1      43.528 -11.479   3.507  1.00  0.00     0.049 C 
ENDBRANCH   1  22
BRANCH  10  30
HETATM   30  C   UNL     1      40.172 -12.519   1.469  1.00  0.00     0.294 C 
HETATM   31  O   UNL     1      41.034 -12.248   0.651  1.00  0.00    -0.259 OA
BRANCH  30  32
HETATM   32  O   UNL     1      39.634 -13.728   1.727  1.00  0.00    -0.313 OA
BRANCH  32  33
HETATM   33  C   UNL     1      40.061 -14.789   0.857  1.00  0.00     0.217 C 
BRANCH  33  34
HETATM   34  C   UNL     1      41.194 -15.523   1.535  1.00  0.00    -0.034 A 
HETATM   35  C   UNL     1      42.528 -15.229   1.212  1.00  0.00     0.009 A 
HETATM   36  C   UNL     1      43.580 -15.902   1.835  1.00  0.00     0.001 A 
HETATM   37  C   UNL     1      43.313 -16.868   2.801  1.00  0.00     0.000 A 
HETATM   38  C   UNL     1      41.994 -17.161   3.144  1.00  0.00     0.001 A 
HETATM   39  C   UNL     1      40.940 -16.495   2.513  1.00  0.00     0.009 A 
ENDBRANCH  33  34
ENDBRANCH  32  33
ENDBRANCH  30  32
ENDBRANCH  10  30
TORSDOF 10
ENDMDL
MODEL 6
REMARK VINA RESULT:      -8.0      1.843      2.257
REMARK  10 active torsions:
REMARK  status: ('A' for Active; 'I' for Inactive)
REMARK    1  A    between atoms: C_4  and  C_5 
REMARK    2  A    between atoms: C_7  and  C_8 
REMARK    3  A    between atoms: C_8  and  C_9 
REMARK       I    between atoms: C_9  and  N_10 
REMARK    4  A    between atoms: N_10  and  C_11 
REMARK    5  A    between atoms: C_11  and  C_12 
REMARK    6  A    between atoms: C_12  and  N_13 
REMARK    7  A    between atoms: C_24  and  C_25 
REMARK    8  A    between atoms: C_25  and  O_26 
REMARK    9  A    between atoms: O_26  and  C_27 
REMARK   10  A    between atoms: C_27  and  C_28 
ROOT
HETATM    1  C   UNL     1      41.674 -12.531   3.373  1.00  0.00     0.166 C 
HETATM    2  N   UNL     1      40.367 -11.803   3.541  1.00  0.00    -0.318 N 
HETATM    3  C   UNL     1      39.811 -10.985   4.388  1.00  0.00     0.011 C 
HETATM    4  C   UNL     1      39.466 -11.952   2.276  1.00  0.00     0.170 C 
HETATM    5  S   UNL     1      38.165 -10.816   2.230  1.00  0.00    -0.086 SA
HETATM    6  C   UNL     1      38.578 -10.247   3.880  1.00  0.00     0.135 C 
HETATM    7  N   UNL     1      39.601 -12.832   1.357  1.00  0.00    -0.229 NA
HETATM    8  C   UNL     1      40.617 -13.749   1.449  1.00  0.00     0.048 C 
HETATM    9  C   UNL     1      40.582 -14.766   0.330  1.00  0.00     0.071 C 
HETATM   10  C   UNL     1      41.588 -13.670   2.386  1.00  0.00     0.069 C 
ENDROOT
BRANCH   3  11
HETATM   11  C   UNL     1      40.339 -10.648   5.761  1.00  0.00     0.156 C 
BRANCH  11  12
HETATM   12  C   UNL     1      41.216  -9.402   5.761  1.00  0.00     0.223 C 
HETATM   13  N   UNL     1      41.604  -8.949   6.994  1.00  0.00    -0.359 N 
HETATM   14  H   UNL     1      41.107  -9.316   7.805  1.00  0.00     0.162 HD
HETATM   15  O   UNL     1      41.579  -8.860   4.719  1.00  0.00    -0.273 OA
BRANCH  13  16
HETATM   16  C   UNL     1      42.290  -7.671   7.220  1.00  0.00     0.150 C 
BRANCH  16  17
HETATM   17  C   UNL     1      42.593  -7.305   8.694  1.00  0.00     0.253 C 
BRANCH  17  18
HETATM   18  N   UNL     1      41.816  -6.093   9.172  1.00  0.00    -0.077 N 
HETATM   19  H   UNL     1      41.038  -6.452   9.761  1.00  0.00     0.279 HD
HETATM   20  C   UNL     1      42.618  -5.165  10.045  1.00  0.00     0.269 C 
HETATM   21  C   UNL     1      41.186  -5.339   8.033  1.00  0.00     0.269 C 
ENDBRANCH  17  18
ENDBRANCH  16  17
ENDBRANCH  13  16
ENDBRANCH  11  12
ENDBRANCH   3  11
BRANCH   1  22
HETATM   22  C   UNL     1      42.378 -12.812   4.695  1.00  0.00    -0.024 A 
HETATM   23  C   UNL     1      43.587 -12.103   4.931  1.00  0.00     0.017 A 
HETATM   24  C   UNL     1      44.292 -12.216   6.134  1.00  0.00    -0.061 A 
HETATM   25  C   UNL     1      45.573 -11.458   6.341  1.00  0.00     0.048 C 
HETATM   26  C   UNL     1      43.824 -13.100   7.101  1.00  0.00     0.007 A 
HETATM   27  C   UNL     1      42.653 -13.830   6.882  1.00  0.00     0.008 A 
HETATM   28  C   UNL     1      41.903 -13.685   5.699  1.00  0.00    -0.053 A 
HETATM   29  C   UNL     1      40.674 -14.542   5.562  1.00  0.00     0.049 C 
ENDBRANCH   1  22
BRANCH  10  30
HETATM   30  C   UNL     1      42.733 -14.611   2.351  1.00  0.00     0.294 C 
HETATM   31  O   UNL     1      43.811 -14.301   1.875  1.00  0.00    -0.259 OA
BRANCH  30  32
HETATM   32  O   UNL     1      42.401 -15.774   2.947  1.00  0.00    -0.313 OA
BRANCH  32  33
HETATM   33  C   UNL     1      43.404 -16.328   3.815  1.00  0.00     0.217 C 
BRANCH  33  34
HETATM   34  C   UNL     1      43.509 -17.806   3.526  1.00  0.00    -0.034 A 
HETATM   35  C   UNL     1      44.039 -18.683   4.485  1.00  0.00     0.009 A 
HETATM   36  C   UNL     1      44.138 -20.052   4.226  1.00  0.00     0.001 A 
HETATM   37  C   UNL     1      43.694 -20.563   3.010  1.00  0.00     0.000 A 
HETATM   38  C   UNL     1      43.151 -19.707   2.054  1.00  0.00     0.001 A 
HETATM   39  C   UNL     1      43.061 -18.336   2.308  1.00  0.00     0.009 A 
ENDBRANCH  33  34
ENDBRANCH  32  33
ENDBRANCH  30  32
ENDBRANCH  10  30
TORSDOF 10
ENDMDL
MODEL 7
REMARK VINA RESULT:      -7.9      3.061      6.601
REMARK  10 active torsions:
REMARK  status: ('A' for Active; 'I' for Inactive)
REMARK    1  A    between atoms: C_4  and  C_5 
REMARK    2  A    between atoms: C_7  and  C_8 
REMARK    3  A    between atoms: C_8  and  C_9 
REMARK       I    between atoms: C_9  and  N_10 
REMARK    4  A    between atoms: N_10  and  C_11 
REMARK    5  A    between atoms: C_11  and  C_12 
REMARK    6  A    between atoms: C_12  and  N_13 
REMARK    7  A    between atoms: C_24  and  C_25 
REMARK    8  A    between atoms: C_25  and  O_26 
REMARK    9  A    between atoms: O_26  and  C_27 
REMARK   10  A    between atoms: C_27  and  C_28 
ROOT
HETATM    1  C   UNL     1      41.070 -10.899   3.016  1.00  0.00     0.166 C 
HETATM    2  N   UNL     1      40.438 -10.830   4.382  1.00  0.00    -0.318 N 
HETATM    3  C   UNL     1      40.181 -11.631   5.377  1.00  0.00     0.011 C 
HETATM    4  C   UNL     1      40.123  -9.357   4.789  1.00  0.00     0.170 C 
HETATM    5  S   UNL     1      39.800  -9.173   6.477  1.00  0.00    -0.086 SA
HETATM    6  C   UNL     1      39.849 -10.952   6.700  1.00  0.00     0.135 C 
HETATM    7  N   UNL     1      40.056  -8.356   3.995  1.00  0.00    -0.229 NA
HETATM    8  C   UNL     1      40.271  -8.547   2.655  1.00  0.00     0.048 C 
HETATM    9  C   UNL     1      40.069  -7.282   1.850  1.00  0.00     0.071 C 
HETATM   10  C   UNL     1      40.714  -9.718   2.146  1.00  0.00     0.069 C 
ENDROOT
BRANCH   3  11
HETATM   11  C   UNL     1      40.283 -13.136   5.343  1.00  0.00     0.156 C 
BRANCH  11  12
HETATM   12  C   UNL     1      41.585 -13.647   5.946  1.00  0.00     0.223 C 
HETATM   13  N   UNL     1      41.506 -14.851   6.595  1.00  0.00    -0.359 N 
HETATM   14  H   UNL     1      40.576 -15.196   6.829  1.00  0.00     0.162 HD
HETATM   15  O   UNL     1      42.644 -13.034   5.828  1.00  0.00    -0.273 OA
BRANCH  13  16
HETATM   16  C   UNL     1      42.594 -15.424   7.396  1.00  0.00     0.150 C 
BRANCH  16  17
HETATM   17  C   UNL     1      43.626 -16.291   6.634  1.00  0.00     0.253 C 
BRANCH  17  18
HETATM   18  N   UNL     1      42.985 -17.423   5.853  1.00  0.00    -0.077 N 
HETATM   19  H   UNL     1      41.965 -17.383   6.054  1.00  0.00     0.279 HD
HETATM   20  C   UNL     1      43.130 -17.286   4.361  1.00  0.00     0.269 C 
HETATM   21  C   UNL     1      43.466 -18.771   6.313  1.00  0.00     0.269 C 
ENDBRANCH  17  18
ENDBRANCH  16  17
ENDBRANCH  13  16
ENDBRANCH  11  12
ENDBRANCH   3  11
BRANCH   1  22
HETATM   22  C   UNL     1      40.975 -12.282   2.381  1.00  0.00    -0.024 A 
HETATM   23  C   UNL     1      42.192 -13.004   2.257  1.00  0.00     0.017 A 
HETATM   24  C   UNL     1      42.234 -14.310   1.757  1.00  0.00    -0.061 A 
HETATM   25  C   UNL     1      43.542 -15.038   1.630  1.00  0.00     0.048 C 
HETATM   26  C   UNL     1      41.050 -14.891   1.312  1.00  0.00     0.007 A 
HETATM   27  C   UNL     1      39.844 -14.190   1.397  1.00  0.00     0.008 A 
HETATM   28  C   UNL     1      39.780 -12.897   1.949  1.00  0.00    -0.053 A 
HETATM   29  C   UNL     1      38.431 -12.229   1.966  1.00  0.00     0.049 C 
ENDBRANCH   1  22
BRANCH  10  30
HETATM   30  C   UNL     1      41.059  -9.822   0.708  1.00  0.00     0.294 C 
HETATM   31  O   UNL     1      42.213  -9.824   0.317  1.00  0.00    -0.259 OA
BRANCH  30  32
HETATM   32  O   UNL     1      39.940  -9.955  -0.032  1.00  0.00    -0.313 OA
BRANCH  32  33
HETATM   33  C   UNL     1      40.155 -10.223  -1.428  1.00  0.00     0.217 C 
BRANCH  33  34
HETATM   34  C   UNL     1      39.713 -11.640  -1.706  1.00  0.00    -0.034 A 
HETATM   35  C   UNL     1      38.349 -11.973  -1.713  1.00  0.00     0.009 A 
HETATM   36  C   UNL     1      37.933 -13.281  -1.971  1.00  0.00     0.001 A 
HETATM   37  C   UNL     1      38.875 -14.270  -2.240  1.00  0.00     0.000 A 
HETATM   38  C   UNL     1      40.232 -13.952  -2.252  1.00  0.00     0.001 A 
HETATM   39  C   UNL     1      40.650 -12.646  -1.984  1.00  0.00     0.009 A 
ENDBRANCH  33  34
ENDBRANCH  32  33
ENDBRANCH  30  32
ENDBRANCH  10  30
TORSDOF 10
ENDMDL
MODEL 8
REMARK VINA RESULT:      -7.7      3.554      8.009
REMARK  10 active torsions:
REMARK  status: ('A' for Active; 'I' for Inactive)
REMARK    1  A    between atoms: C_4  and  C_5 
REMARK    2  A    between atoms: C_7  and  C_8 
REMARK    3  A    between atoms: C_8  and  C_9 
REMARK       I    between atoms: C_9  and  N_10 
REMARK    4  A    between atoms: N_10  and  C_11 
REMARK    5  A    between atoms: C_11  and  C_12 
REMARK    6  A    between atoms: C_12  and  N_13 
REMARK    7  A    between atoms: C_24  and  C_25 
REMARK    8  A    between atoms: C_25  and  O_26 
REMARK    9  A    between atoms: O_26  and  C_27 
REMARK   10  A    between atoms: C_27  and  C_28 
ROOT
HETATM    1  C   UNL     1      42.542 -14.292   4.464  1.00  0.00     0.166 C 
HETATM    2  N   UNL     1      42.108 -15.454   3.610  1.00  0.00    -0.318 N 
HETATM    3  C   UNL     1      41.216 -15.710   2.695  1.00  0.00     0.011 C 
HETATM    4  C   UNL     1      43.086 -16.662   3.752  1.00  0.00     0.170 C 
HETATM    5  S   UNL     1      42.892 -17.843   2.507  1.00  0.00    -0.086 SA
HETATM    6  C   UNL     1      41.453 -16.976   1.880  1.00  0.00     0.135 C 
HETATM    7  N   UNL     1      43.935 -16.834   4.694  1.00  0.00    -0.229 NA
HETATM    8  C   UNL     1      44.028 -15.899   5.693  1.00  0.00     0.048 C 
HETATM    9  C   UNL     1      45.015 -16.298   6.768  1.00  0.00     0.071 C 
HETATM   10  C   UNL     1      43.379 -14.715   5.647  1.00  0.00     0.069 C 
ENDROOT
BRANCH   3  11
HETATM   11  C   UNL     1      40.055 -14.821   2.327  1.00  0.00     0.156 C 
BRANCH  11  12
HETATM   12  C   UNL     1      40.162 -14.276   0.908  1.00  0.00     0.223 C 
HETATM   13  N   UNL     1      40.809 -13.075   0.781  1.00  0.00    -0.359 N 
HETATM   14  H   UNL     1      40.959 -12.532   1.629  1.00  0.00     0.162 HD
HETATM   15  O   UNL     1      39.725 -14.892  -0.062  1.00  0.00    -0.273 OA
BRANCH  13  16
HETATM   16  C   UNL     1      40.857 -12.297  -0.463  1.00  0.00     0.150 C 
BRANCH  16  17
HETATM   17  C   UNL     1      39.557 -11.556  -0.861  1.00  0.00     0.253 C 
BRANCH  17  18
HETATM   18  N   UNL     1      38.981 -12.038  -2.179  1.00  0.00    -0.077 N 
HETATM   19  H   UNL     1      38.825 -11.192  -2.763  1.00  0.00     0.279 HD
HETATM   20  C   UNL     1      39.915 -12.926  -2.958  1.00  0.00     0.269 C 
HETATM   21  C   UNL     1      37.642 -12.699  -2.003  1.00  0.00     0.269 C 
ENDBRANCH  17  18
ENDBRANCH  16  17
ENDBRANCH  13  16
ENDBRANCH  11  12
ENDBRANCH   3  11
BRANCH   1  22
HETATM   22  C   UNL     1      41.424 -13.291   4.728  1.00  0.00    -0.024 A 
HETATM   23  C   UNL     1      41.511 -12.050   4.043  1.00  0.00     0.017 A 
HETATM   24  C   UNL     1      40.515 -11.073   4.142  1.00  0.00    -0.061 A 
HETATM   25  C   UNL     1      40.649  -9.768   3.411  1.00  0.00     0.048 C 
HETATM   26  C   UNL     1      39.436 -11.306   4.990  1.00  0.00     0.007 A 
HETATM   27  C   UNL     1      39.341 -12.508   5.697  1.00  0.00     0.008 A 
HETATM   28  C   UNL     1      40.308 -13.521   5.563  1.00  0.00    -0.053 A 
HETATM   29  C   UNL     1      40.115 -14.762   6.394  1.00  0.00     0.049 C 
ENDBRANCH   1  22
BRANCH  10  30
HETATM   30  C   UNL     1      43.627 -13.690   6.689  1.00  0.00     0.294 C 
HETATM   31  O   UNL     1      43.340 -13.872   7.858  1.00  0.00    -0.259 OA
BRANCH  30  32
HETATM   32  O   UNL     1      44.235 -12.613   6.149  1.00  0.00    -0.313 OA
BRANCH  32  33
HETATM   33  C   UNL     1      45.044 -11.845   7.056  1.00  0.00     0.217 C 
BRANCH  33  34
HETATM   34  C   UNL     1      44.310 -10.563   7.366  1.00  0.00    -0.034 A 
HETATM   35  C   UNL     1      43.038 -10.320   6.823  1.00  0.00     0.009 A 
HETATM   36  C   UNL     1      42.352  -9.138   7.106  1.00  0.00     0.001 A 
HETATM   37  C   UNL     1      42.923  -8.188   7.949  1.00  0.00     0.000 A 
HETATM   38  C   UNL     1      44.178  -8.420   8.508  1.00  0.00     0.001 A 
HETATM   39  C   UNL     1      44.869  -9.599   8.217  1.00  0.00     0.009 A 
ENDBRANCH  33  34
ENDBRANCH  32  33
ENDBRANCH  30  32
ENDBRANCH  10  30
TORSDOF 10
ENDMDL
MODEL 9
REMARK VINA RESULT:      -7.7      3.007      4.000
REMARK  10 active torsions:
REMARK  status: ('A' for Active; 'I' for Inactive)
REMARK    1  A    between atoms: C_4  and  C_5 
REMARK    2  A    between atoms: C_7  and  C_8 
REMARK    3  A    between atoms: C_8  and  C_9 
REMARK       I    between atoms: C_9  and  N_10 
REMARK    4  A    between atoms: N_10  and  C_11 
REMARK    5  A    between atoms: C_11  and  C_12 
REMARK    6  A    between atoms: C_12  and  N_13 
REMARK    7  A    between atoms: C_24  and  C_25 
REMARK    8  A    between atoms: C_25  and  O_26 
REMARK    9  A    between atoms: O_26  and  C_27 
REMARK   10  A    between atoms: C_27  and  C_28 
ROOT
HETATM    1  C   UNL     1      41.541 -11.924   2.122  1.00  0.00     0.166 C 
HETATM    2  N   UNL     1      40.565 -10.818   1.821  1.00  0.00    -0.318 N 
HETATM    3  C   UNL     1      40.198  -9.677   2.331  1.00  0.00     0.011 C 
HETATM    4  C   UNL     1      39.893 -11.017   0.426  1.00  0.00     0.170 C 
HETATM    5  S   UNL     1      39.101  -9.595  -0.155  1.00  0.00    -0.086 SA
HETATM    6  C   UNL     1      39.406  -8.764   1.403  1.00  0.00     0.135 C 
HETATM    7  N   UNL     1      39.862 -12.106  -0.244  1.00  0.00    -0.229 NA
HETATM    8  C   UNL     1      40.460 -13.228   0.270  1.00  0.00     0.048 C 
HETATM    9  C   UNL     1      40.257 -14.445  -0.606  1.00  0.00     0.071 C 
HETATM   10  C   UNL     1      41.227 -13.202   1.383  1.00  0.00     0.069 C 
ENDROOT
BRANCH   3  11
HETATM   11  C   UNL     1      40.574  -9.165   3.700  1.00  0.00     0.156 C 
BRANCH  11  12
HETATM   12  C   UNL     1      39.358  -8.819   4.549  1.00  0.00     0.223 C 
HETATM   13  N   UNL     1      39.340  -7.552   5.071  1.00  0.00    -0.359 N 
HETATM   14  H   UNL     1      40.213  -7.028   5.056  1.00  0.00     0.162 HD
HETATM   15  O   UNL     1      38.437  -9.614   4.727  1.00  0.00    -0.273 OA
BRANCH  13  16
HETATM   16  C   UNL     1      38.359  -7.086   6.058  1.00  0.00     0.150 C 
BRANCH  16  17
HETATM   17  C   UNL     1      37.110  -6.362   5.498  1.00  0.00     0.253 C 
BRANCH  17  18
HETATM   18  N   UNL     1      36.167  -7.295   4.762  1.00  0.00    -0.077 N 
HETATM   19  H   UNL     1      36.479  -8.263   4.976  1.00  0.00     0.279 HD
HETATM   20  C   UNL     1      34.737  -7.197   5.223  1.00  0.00     0.269 C 
HETATM   21  C   UNL     1      36.256  -7.129   3.270  1.00  0.00     0.269 C 
ENDBRANCH  17  18
ENDBRANCH  16  17
ENDBRANCH  13  16
ENDBRANCH  11  12
ENDBRANCH   3  11
BRANCH   1  22
HETATM   22  C   UNL     1      41.871 -12.045   3.605  1.00  0.00    -0.024 A 
HETATM   23  C   UNL     1      43.202 -11.725   3.985  1.00  0.00     0.017 A 
HETATM   24  C   UNL     1      43.615 -11.726   5.321  1.00  0.00    -0.061 A 
HETATM   25  C   UNL     1      45.035 -11.393   5.683  1.00  0.00     0.048 C 
HETATM   26  C   UNL     1      42.704 -12.115   6.300  1.00  0.00     0.007 A 
HETATM   27  C   UNL     1      41.397 -12.461   5.949  1.00  0.00     0.008 A 
HETATM   28  C   UNL     1      40.953 -12.410   4.614  1.00  0.00    -0.053 A 
HETATM   29  C   UNL     1      39.532 -12.831   4.352  1.00  0.00     0.049 C 
ENDBRANCH   1  22
BRANCH  10  30
HETATM   30  C   UNL     1      41.958 -14.418   1.811  1.00  0.00     0.294 C 
HETATM   31  O   UNL     1      43.150 -14.562   1.608  1.00  0.00    -0.259 OA
BRANCH  30  32
HETATM   32  O   UNL     1      41.128 -15.254   2.468  1.00  0.00    -0.313 OA
BRANCH  32  33
HETATM   33  C   UNL     1      41.749 -16.426   3.021  1.00  0.00     0.217 C 
BRANCH  33  34
HETATM   34  C   UNL     1      41.992 -16.179   4.491  1.00  0.00    -0.034 A 
HETATM   35  C   UNL     1      43.281 -15.879   4.959  1.00  0.00     0.009 A 
HETATM   36  C   UNL     1      43.514 -15.648   6.316  1.00  0.00     0.001 A 
HETATM   37  C   UNL     1      42.457 -15.698   7.221  1.00  0.00     0.000 A 
HETATM   38  C   UNL     1      41.169 -15.979   6.770  1.00  0.00     0.001 A 
HETATM   39  C   UNL     1      40.937 -16.222   5.413  1.00  0.00     0.009 A 
ENDBRANCH  33  34
ENDBRANCH  32  33
ENDBRANCH  30  32
ENDBRANCH  10  30
TORSDOF 10
ENDMDL
MODEL 10
REMARK VINA RESULT:      -7.7      2.132      2.742
REMARK  10 active torsions:
REMARK  status: ('A' for Active; 'I' for Inactive)
REMARK    1  A    between atoms: C_4  and  C_5 
REMARK    2  A    between atoms: C_7  and  C_8 
REMARK    3  A    between atoms: C_8  and  C_9 
REMARK       I    between atoms: C_9  and  N_10 
REMARK    4  A    between atoms: N_10  and  C_11 
REMARK    5  A    between atoms: C_11  and  C_12 
REMARK    6  A    between atoms: C_12  and  N_13 
REMARK    7  A    between atoms: C_24  and  C_25 
REMARK    8  A    between atoms: C_25  and  O_26 
REMARK    9  A    between atoms: O_26  and  C_27 
REMARK   10  A    between atoms: C_27  and  C_28 
ROOT
HETATM    1  C   UNL     1      40.588 -10.667   3.797  1.00  0.00     0.166 C 
HETATM    2  N   UNL     1      39.626  -9.779   4.540  1.00  0.00    -0.318 N 
HETATM    3  C   UNL     1      39.540  -9.192   5.700  1.00  0.00     0.011 C 
HETATM    4  C   UNL     1      38.460  -9.305   3.617  1.00  0.00     0.170 C 
HETATM    5  S   UNL     1      37.575  -7.973   4.270  1.00  0.00    -0.086 SA
HETATM    6  C   UNL     1      38.497  -8.086   5.803  1.00  0.00     0.135 C 
HETATM    7  N   UNL     1      38.121  -9.836   2.503  1.00  0.00    -0.229 NA
HETATM    8  C   UNL     1      38.816 -10.923   2.038  1.00  0.00     0.048 C 
HETATM    9  C   UNL     1      38.232 -11.478   0.757  1.00  0.00     0.071 C 
HETATM   10  C   UNL     1      39.952 -11.366   2.620  1.00  0.00     0.069 C 
ENDROOT
BRANCH   3  11
HETATM   11  C   UNL     1      40.438  -9.451   6.884  1.00  0.00     0.156 C 
BRANCH  11  12
HETATM   12  C   UNL     1      39.671  -9.946   8.103  1.00  0.00     0.223 C 
HETATM   13  N   UNL     1      40.051  -9.406   9.304  1.00  0.00    -0.359 N 
HETATM   14  H   UNL     1      40.940  -8.910   9.333  1.00  0.00     0.162 HD
HETATM   15  O   UNL     1      38.748 -10.753   8.010  1.00  0.00    -0.273 OA
BRANCH  13  16
HETATM   16  C   UNL     1      39.569  -9.881  10.606  1.00  0.00     0.150 C 
BRANCH  16  17
HETATM   17  C   UNL     1      40.589  -9.850  11.771  1.00  0.00     0.253 C 
BRANCH  17  18
HETATM   18  N   UNL     1      40.515  -8.573  12.587  1.00  0.00    -0.077 N 
HETATM   19  H   UNL     1      40.792  -8.823  13.557  1.00  0.00     0.279 HD
HETATM   20  C   UNL     1      41.475  -7.507  12.131  1.00  0.00     0.269 C 
HETATM   21  C   UNL     1      39.114  -8.030  12.661  1.00  0.00     0.269 C 
ENDBRANCH  17  18
ENDBRANCH  16  17
ENDBRANCH  13  16
ENDBRANCH  11  12
ENDBRANCH   3  11
BRANCH   1  22
HETATM   22  C   UNL     1      41.458 -11.513   4.719  1.00  0.00    -0.024 A 
HETATM   23  C   UNL     1      42.839 -11.186   4.762  1.00  0.00     0.017 A 
HETATM   24  C   UNL     1      43.732 -11.838   5.619  1.00  0.00    -0.061 A 
HETATM   25  C   UNL     1      45.189 -11.471   5.627  1.00  0.00     0.048 C 
HETATM   26  C   UNL     1      43.257 -12.881   6.408  1.00  0.00     0.007 A 
HETATM   27  C   UNL     1      41.907 -13.241   6.363  1.00  0.00     0.008 A 
HETATM   28  C   UNL     1      40.988 -12.556   5.546  1.00  0.00    -0.053 A 
HETATM   29  C   UNL     1      39.565 -13.049   5.561  1.00  0.00     0.049 C 
ENDBRANCH   1  22
BRANCH  10  30
HETATM   30  C   UNL     1      40.732 -12.459   1.992  1.00  0.00     0.294 C 
HETATM   31  O   UNL     1      41.753 -12.247   1.363  1.00  0.00    -0.259 OA
BRANCH  30  32
HETATM   32  O   UNL     1      40.170 -13.653   2.270  1.00  0.00    -0.313 OA
BRANCH  32  33
HETATM   33  C   UNL     1      40.932 -14.801   1.860  1.00  0.00     0.217 C 
BRANCH  33  34
HETATM   34  C   UNL     1      41.504 -15.449   3.099  1.00  0.00    -0.034 A 
HETATM   35  C   UNL     1      42.886 -15.423   3.342  1.00  0.00     0.009 A 
HETATM   36  C   UNL     1      43.423 -16.018   4.485  1.00  0.00     0.001 A 
HETATM   37  C   UNL     1      42.583 -16.635   5.408  1.00  0.00     0.000 A 
HETATM   38  C   UNL     1      41.207 -16.656   5.188  1.00  0.00     0.001 A 
HETATM   39  C   UNL     1      40.670 -16.069   4.039  1.00  0.00     0.009 A 
ENDBRANCH  33  34
ENDBRANCH  32  33
ENDBRANCH  30  32
ENDBRANCH  10  30
TORSDOF 10
ENDMDL
