MODEL 1
REMARK VINA RESULT:      -8.4      0.000      0.000
REMARK  6 active torsions:
REMARK  status: ('A' for Active; 'I' for Inactive)
REMARK    1  A    between atoms: C_5  and  C_6 
REMARK    2  A    between atoms: C_6  and  O_7 
REMARK    3  A    between atoms: C_6  and  C_8 
REMARK    4  A    between atoms: C_8  and  N_9 
REMARK    5  A    between atoms: C_11  and  C_12 
REMARK    6  A    between atoms: C_13  and  O_14 
ROOT
HETATM    1  N   UNL     1      41.843 -14.897   2.228  1.00  0.00    -0.395 N 
HETATM    2  H   UNL     1      41.345 -14.757   3.121  1.00  0.00     0.159 HD
HETATM    3  C   UNL     1      42.778 -15.780   2.224  1.00  0.00     0.098 C 
ENDROOT
BRANCH   1   4
HETATM    4  C   UNL     1      41.400 -14.078   1.073  1.00  0.00     0.155 C 
BRANCH   4   5
HETATM    5  C   UNL     1      40.365 -14.848   0.235  1.00  0.00     0.170 C 
BRANCH   5   6
HETATM    6  C   UNL     1      39.493 -13.951  -0.607  1.00  0.00    -0.011 A 
HETATM    7  C   UNL     1      39.204 -12.659  -0.177  1.00  0.00     0.126 A 
HETATM    8  N   UNL     1      38.400 -11.802  -0.838  1.00  0.00    -0.265 NA
HETATM    9  C   UNL     1      37.876 -12.207  -2.016  1.00  0.00     0.030 A 
HETATM   10  C   UNL     1      37.035 -11.222  -2.773  1.00  0.00     0.070 C 
HETATM   11  C   UNL     1      38.119 -13.471  -2.539  1.00  0.00     0.027 A 
HETATM   12  C   UNL     1      38.925 -14.353  -1.821  1.00  0.00     0.013 A 
ENDBRANCH   5   6
BRANCH   5  13
HETATM   13  O   UNL     1      39.586 -15.662   1.116  1.00  0.00    -0.389 OA
HETATM   14  H   UNL     1      40.214 -16.197   1.641  1.00  0.00     0.210 HD
ENDBRANCH   5  13
ENDBRANCH   4   5
ENDBRANCH   1   4
BRANCH   3  15
HETATM   15  C   UNL     1      43.181 -16.560   3.421  1.00  0.00     0.023 A 
HETATM   16  C   UNL     1      43.390 -15.902   4.651  1.00  0.00     0.078 A 
HETATM   17  C   UNL     1      43.821 -16.601   5.771  1.00  0.00     0.038 A 
HETATM   18  C   UNL     1      44.045 -17.971   5.674  1.00  0.00     0.015 A 
HETATM   19  C   UNL     1      43.831 -18.662   4.473  1.00  0.00    -0.025 A 
HETATM   20  C   UNL     1      43.386 -17.969   3.315  1.00  0.00    -0.012 A 
HETATM   21  C   UNL     1      44.059 -20.046   4.430  1.00  0.00     0.012 A 
HETATM   22  C   UNL     1      43.171 -18.748   2.146  1.00  0.00     0.013 A 
HETATM   23  C   UNL     1      43.399 -20.127   2.124  1.00  0.00     0.001 A 
HETATM   24  C   UNL     1      43.846 -20.775   3.265  1.00  0.00     0.001 A 
BRANCH  16  25
HETATM   25  O   UNL     1      43.169 -14.549   4.757  1.00  0.00    -0.360 OA
HETATM   26  H   UNL     1      42.609 -14.393   5.547  1.00  0.00     0.217 HD
ENDBRANCH  16  25
ENDBRANCH   3  15
TORSDOF 6
ENDMDL
MODEL 2
REMARK VINA RESULT:      -8.3      5.108      8.208
REMARK  6 active torsions:
REMARK  status: ('A' for Active; 'I' for Inactive)
REMARK    1  A    between atoms: C_5  and  C_6 
REMARK    2  A    between atoms: C_6  and  O_7 
REMARK    3  A    between atoms: C_6  and  C_8 
REMARK    4  A    between atoms: C_8  and  N_9 
REMARK    5  A    between atoms: C_11  and  C_12 
REMARK    6  A    between atoms: C_13  and  O_14 
ROOT
HETATM    1  N   UNL     1      43.904 -13.554   6.294  1.00  0.00    -0.395 N 
HETATM    2  H   UNL     1      44.797 -13.981   6.586  1.00  0.00     0.159 HD
HETATM    3  C   UNL     1      42.981 -14.362   5.906  1.00  0.00     0.098 C 
ENDROOT
BRANCH   1   4
HETATM    4  C   UNL     1      43.802 -12.077   6.381  1.00  0.00     0.155 C 
BRANCH   4   5
HETATM    5  C   UNL     1      45.043 -11.493   7.076  1.00  0.00     0.170 C 
BRANCH   5   6
HETATM    6  C   UNL     1      44.715 -10.701   8.317  1.00  0.00    -0.011 A 
HETATM    7  C   UNL     1      43.401 -10.311   8.566  1.00  0.00     0.126 A 
HETATM    8  N   UNL     1      43.019  -9.566   9.622  1.00  0.00    -0.265 NA
HETATM    9  C   UNL     1      43.965  -9.209  10.521  1.00  0.00     0.030 A 
HETATM   10  C   UNL     1      43.517  -8.434  11.724  1.00  0.00     0.070 C 
HETATM   11  C   UNL     1      45.300  -9.563  10.370  1.00  0.00     0.027 A 
HETATM   12  C   UNL     1      45.678 -10.305   9.252  1.00  0.00     0.013 A 
ENDBRANCH   5   6
BRANCH   5  13
HETATM   13  O   UNL     1      45.766 -10.705   6.126  1.00  0.00    -0.389 OA
HETATM   14  H   UNL     1      45.584  -9.767   6.335  1.00  0.00     0.210 HD
ENDBRANCH   5  13
ENDBRANCH   4   5
ENDBRANCH   1   4
BRANCH   3  15
HETATM   15  C   UNL     1      43.152 -15.835   5.833  1.00  0.00     0.023 A 
HETATM   16  C   UNL     1      43.243 -16.592   7.019  1.00  0.00     0.078 A 
HETATM   17  C   UNL     1      43.460 -17.963   6.976  1.00  0.00     0.038 A 
HETATM   18  C   UNL     1      43.586 -18.595   5.743  1.00  0.00     0.015 A 
HETATM   19  C   UNL     1      43.484 -17.877   4.543  1.00  0.00    -0.025 A 
HETATM   20  C   UNL     1      43.259 -16.474   4.561  1.00  0.00    -0.012 A 
HETATM   21  C   UNL     1      43.606 -18.562   3.323  1.00  0.00     0.012 A 
HETATM   22  C   UNL     1      43.145 -15.828   3.300  1.00  0.00     0.013 A 
HETATM   23  C   UNL     1      43.265 -16.528   2.096  1.00  0.00     0.001 A 
HETATM   24  C   UNL     1      43.499 -17.894   2.108  1.00  0.00     0.001 A 
BRANCH  16  25
HETATM   25  O   UNL     1      43.117 -15.977   8.242  1.00  0.00    -0.360 OA
HETATM   26  H   UNL     1      43.917 -16.186   8.771  1.00  0.00     0.217 HD
ENDBRANCH  16  25
ENDBRANCH   3  15
TORSDOF 6
ENDMDL
MODEL 3
REMARK VINA RESULT:      -8.1      4.960      8.160
REMARK  6 active torsions:
REMARK  status: ('A' for Active; 'I' for Inactive)
REMARK    1  A    between atoms: C_5  and  C_6 
REMARK    2  A    between atoms: C_6  and  O_7 
REMARK    3  A    between atoms: C_6  and  C_8 
REMARK    4  A    between atoms: C_8  and  N_9 
REMARK    5  A    between atoms: C_11  and  C_12 
REMARK    6  A    between atoms: C_13  and  O_14 
ROOT
HETATM    1  N   UNL     1      43.579 -12.461   4.749  1.00  0.00    -0.395 N 
HETATM    2  H   UNL     1      44.234 -12.361   3.958  1.00  0.00     0.159 HD
HETATM    3  C   UNL     1      42.892 -13.548   4.792  1.00  0.00     0.098 C 
ENDROOT
BRANCH   1   4
HETATM    4  C   UNL     1      43.535 -11.353   5.734  1.00  0.00     0.155 C 
BRANCH   4   5
HETATM    5  C   UNL     1      44.780 -11.388   6.637  1.00  0.00     0.170 C 
BRANCH   5   6
HETATM    6  C   UNL     1      44.580 -10.686   7.957  1.00  0.00    -0.011 A 
HETATM    7  C   UNL     1      43.308 -10.264   8.334  1.00  0.00     0.126 A 
HETATM    8  N   UNL     1      43.038  -9.591   9.470  1.00  0.00    -0.265 NA
HETATM    9  C   UNL     1      44.062  -9.348  10.320  1.00  0.00     0.030 A 
HETATM   10  C   UNL     1      43.739  -8.655  11.611  1.00  0.00     0.070 C 
HETATM   11  C   UNL     1      45.364  -9.744  10.042  1.00  0.00     0.027 A 
HETATM   12  C   UNL     1      45.625 -10.409   8.844  1.00  0.00     0.013 A 
ENDBRANCH   5   6
BRANCH   5  13
HETATM   13  O   UNL     1      45.882 -10.837   5.911  1.00  0.00    -0.389 OA
HETATM   14  H   UNL     1      45.693 -10.970   4.960  1.00  0.00     0.210 HD
ENDBRANCH   5  13
ENDBRANCH   4   5
ENDBRANCH   1   4
BRANCH   3  15
HETATM   15  C   UNL     1      42.976 -14.617   3.765  1.00  0.00     0.023 A 
HETATM   16  C   UNL     1      42.673 -14.323   2.419  1.00  0.00     0.078 A 
HETATM   17  C   UNL     1      42.689 -15.318   1.450  1.00  0.00     0.038 A 
HETATM   18  C   UNL     1      43.013 -16.621   1.816  1.00  0.00     0.015 A 
HETATM   19  C   UNL     1      43.336 -16.946   3.141  1.00  0.00    -0.025 A 
HETATM   20  C   UNL     1      43.330 -15.945   4.149  1.00  0.00    -0.012 A 
HETATM   21  C   UNL     1      43.668 -18.273   3.458  1.00  0.00     0.012 A 
HETATM   22  C   UNL     1      43.693 -16.355   5.461  1.00  0.00     0.013 A 
HETATM   23  C   UNL     1      44.025 -17.681   5.757  1.00  0.00     0.001 A 
HETATM   24  C   UNL     1      44.009 -18.640   4.756  1.00  0.00     0.001 A 
BRANCH  16  25
HETATM   25  O   UNL     1      42.354 -13.038   2.047  1.00  0.00    -0.360 OA
HETATM   26  H   UNL     1      42.214 -12.512   2.863  1.00  0.00     0.217 HD
ENDBRANCH  16  25
ENDBRANCH   3  15
TORSDOF 6
ENDMDL
MODEL 4
REMARK VINA RESULT:      -8.1      2.122      2.438
REMARK  6 active torsions:
REMARK  status: ('A' for Active; 'I' for Inactive)
REMARK    1  A    between atoms: C_5  and  C_6 
REMARK    2  A    between atoms: C_6  and  O_7 
REMARK    3  A    between atoms: C_6  and  C_8 
REMARK    4  A    between atoms: C_8  and  N_9 
REMARK    5  A    between atoms: C_11  and  C_12 
REMARK    6  A    between atoms: C_13  and  O_14 
ROOT
HETATM    1  N   UNL     1      41.540 -15.229   1.743  1.00  0.00    -0.395 N 
HETATM    2  H   UNL     1      41.074 -15.006   2.636  1.00  0.00     0.159 HD
HETATM    3  C   UNL     1      42.532 -16.046   1.802  1.00  0.00     0.098 C 
ENDROOT
BRANCH   1   4
HETATM    4  C   UNL     1      40.994 -14.595   0.518  1.00  0.00     0.155 C 
BRANCH   4   5
HETATM    5  C   UNL     1      40.276 -13.280   0.869  1.00  0.00     0.170 C 
BRANCH   5   6
HETATM    6  C   UNL     1      40.857 -12.078   0.167  1.00  0.00    -0.011 A 
HETATM    7  C   UNL     1      41.388 -11.028   0.912  1.00  0.00     0.126 A 
HETATM    8  N   UNL     1      41.887  -9.896   0.376  1.00  0.00    -0.265 NA
HETATM    9  C   UNL     1      41.914  -9.791  -0.972  1.00  0.00     0.030 A 
HETATM   10  C   UNL     1      42.530  -8.555  -1.557  1.00  0.00     0.070 C 
HETATM   11  C   UNL     1      41.423 -10.792  -1.801  1.00  0.00     0.027 A 
HETATM   12  C   UNL     1      40.881 -11.940  -1.225  1.00  0.00     0.013 A 
ENDBRANCH   5   6
BRANCH   5  13
HETATM   13  O   UNL     1      40.295 -13.119   2.289  1.00  0.00    -0.389 OA
HETATM   14  H   UNL     1      40.252 -14.016   2.679  1.00  0.00     0.210 HD
ENDBRANCH   5  13
ENDBRANCH   4   5
ENDBRANCH   1   4
BRANCH   3  15
HETATM   15  C   UNL     1      43.038 -16.638   3.066  1.00  0.00     0.023 A 
HETATM   16  C   UNL     1      43.278 -15.812   4.183  1.00  0.00     0.078 A 
HETATM   17  C   UNL     1      43.804 -16.333   5.358  1.00  0.00     0.038 A 
HETATM   18  C   UNL     1      44.094 -17.692   5.430  1.00  0.00     0.015 A 
HETATM   19  C   UNL     1      43.852 -18.547   4.346  1.00  0.00    -0.025 A 
HETATM   20  C   UNL     1      43.310 -18.038   3.135  1.00  0.00    -0.012 A 
HETATM   21  C   UNL     1      44.149 -19.914   4.473  1.00  0.00     0.012 A 
HETATM   22  C   UNL     1      43.075 -18.977   2.095  1.00  0.00     0.013 A 
HETATM   23  C   UNL     1      43.373 -20.335   2.241  1.00  0.00     0.001 A 
HETATM   24  C   UNL     1      43.913 -20.802   3.429  1.00  0.00     0.001 A 
BRANCH  16  25
HETATM   25  O   UNL     1      42.993 -14.468   4.122  1.00  0.00    -0.360 OA
HETATM   26  H   UNL     1      42.085 -14.366   3.766  1.00  0.00     0.217 HD
ENDBRANCH  16  25
ENDBRANCH   3  15
TORSDOF 6
ENDMDL
MODEL 5
REMARK VINA RESULT:      -8.1      1.582      1.897
REMARK  6 active torsions:
REMARK  status: ('A' for Active; 'I' for Inactive)
REMARK    1  A    between atoms: C_5  and  C_6 
REMARK    2  A    between atoms: C_6  and  O_7 
REMARK    3  A    between atoms: C_6  and  C_8 
REMARK    4  A    between atoms: C_8  and  N_9 
REMARK    5  A    between atoms: C_11  and  C_12 
REMARK    6  A    between atoms: C_13  and  O_14 
ROOT
HETATM    1  N   UNL     1      42.397 -13.355   2.913  1.00  0.00    -0.395 N 
HETATM    2  H   UNL     1      43.240 -12.989   3.382  1.00  0.00     0.159 HD
HETATM    3  C   UNL     1      42.052 -14.559   3.207  1.00  0.00     0.098 C 
ENDROOT
BRANCH   1   4
HETATM    4  C   UNL     1      41.691 -12.440   1.982  1.00  0.00     0.155 C 
BRANCH   4   5
HETATM    5  C   UNL     1      40.192 -12.781   1.930  1.00  0.00     0.170 C 
BRANCH   5   6
HETATM    6  C   UNL     1      39.736 -13.257   0.573  1.00  0.00    -0.011 A 
HETATM    7  C   UNL     1      38.976 -12.418  -0.239  1.00  0.00     0.126 A 
HETATM    8  N   UNL     1      38.486 -12.771  -1.444  1.00  0.00    -0.265 NA
HETATM    9  C   UNL     1      38.788 -14.002  -1.915  1.00  0.00     0.030 A 
HETATM   10  C   UNL     1      38.291 -14.358  -3.285  1.00  0.00     0.070 C 
HETATM   11  C   UNL     1      39.554 -14.905  -1.188  1.00  0.00     0.027 A 
HETATM   12  C   UNL     1      40.021 -14.531   0.072  1.00  0.00     0.013 A 
ENDBRANCH   5   6
BRANCH   5  13
HETATM   13  O   UNL     1      39.452 -11.636   2.361  1.00  0.00    -0.389 OA
HETATM   14  H   UNL     1      39.996 -11.181   3.035  1.00  0.00     0.210 HD
ENDBRANCH   5  13
ENDBRANCH   4   5
ENDBRANCH   1   4
BRANCH   3  15
HETATM   15  C   UNL     1      42.812 -15.428   4.142  1.00  0.00     0.023 A 
HETATM   16  C   UNL     1      43.221 -14.926   5.395  1.00  0.00     0.078 A 
HETATM   17  C   UNL     1      43.980 -15.700   6.261  1.00  0.00     0.038 A 
HETATM   18  C   UNL     1      44.338 -16.991   5.885  1.00  0.00     0.015 A 
HETATM   19  C   UNL     1      43.935 -17.530   4.655  1.00  0.00    -0.025 A 
HETATM   20  C   UNL     1      43.155 -16.758   3.754  1.00  0.00    -0.012 A 
HETATM   21  C   UNL     1      44.311 -18.842   4.328  1.00  0.00     0.012 A 
HETATM   22  C   UNL     1      42.770 -17.389   2.539  1.00  0.00     0.013 A 
HETATM   23  C   UNL     1      43.150 -18.698   2.232  1.00  0.00     0.001 A 
HETATM   24  C   UNL     1      43.923 -19.424   3.125  1.00  0.00     0.001 A 
BRANCH  16  25
HETATM   25  O   UNL     1      42.870 -13.652   5.776  1.00  0.00    -0.360 OA
HETATM   26  H   UNL     1      42.871 -13.084   4.975  1.00  0.00     0.217 HD
ENDBRANCH  16  25
ENDBRANCH   3  15
TORSDOF 6
ENDMDL
MODEL 6
REMARK VINA RESULT:      -8.0      2.512      4.082
REMARK  6 active torsions:
REMARK  status: ('A' for Active; 'I' for Inactive)
REMARK    1  A    between atoms: C_5  and  C_6 
REMARK    2  A    between atoms: C_6  and  O_7 
REMARK    3  A    between atoms: C_6  and  C_8 
REMARK    4  A    between atoms: C_8  and  N_9 
REMARK    5  A    between atoms: C_11  and  C_12 
REMARK    6  A    between atoms: C_13  and  O_14 
ROOT
HETATM    1  N   UNL     1      41.312 -15.166   2.468  1.00  0.00    -0.395 N 
HETATM    2  H   UNL     1      40.768 -15.305   3.333  1.00  0.00     0.159 HD
HETATM    3  C   UNL     1      42.458 -15.748   2.411  1.00  0.00     0.098 C 
ENDROOT
BRANCH   1   4
HETATM    4  C   UNL     1      40.692 -14.337   1.405  1.00  0.00     0.155 C 
BRANCH   4   5
HETATM    5  C   UNL     1      39.921 -13.159   2.025  1.00  0.00     0.170 C 
BRANCH   5   6
HETATM    6  C   UNL     1      40.716 -12.404   3.061  1.00  0.00    -0.011 A 
HETATM    7  C   UNL     1      40.251 -12.322   4.371  1.00  0.00     0.126 A 
HETATM    8  N   UNL     1      40.868 -11.634   5.352  1.00  0.00    -0.265 NA
HETATM    9  C   UNL     1      42.036 -11.019   5.057  1.00  0.00     0.030 A 
HETATM   10  C   UNL     1      42.745 -10.310   6.172  1.00  0.00     0.070 C 
HETATM   11  C   UNL     1      42.590 -11.057   3.783  1.00  0.00     0.027 A 
HETATM   12  C   UNL     1      41.917 -11.746   2.775  1.00  0.00     0.013 A 
ENDBRANCH   5   6
BRANCH   5  13
HETATM   13  O   UNL     1      38.693 -13.656   2.565  1.00  0.00    -0.389 OA
HETATM   14  H   UNL     1      38.119 -12.881   2.731  1.00  0.00     0.210 HD
ENDBRANCH   5  13
ENDBRANCH   4   5
ENDBRANCH   1   4
BRANCH   3  15
HETATM   15  C   UNL     1      43.027 -16.558   3.517  1.00  0.00     0.023 A 
HETATM   16  C   UNL     1      43.347 -15.944   4.746  1.00  0.00     0.078 A 
HETATM   17  C   UNL     1      43.932 -16.669   5.776  1.00  0.00     0.038 A 
HETATM   18  C   UNL     1      44.201 -18.022   5.590  1.00  0.00     0.015 A 
HETATM   19  C   UNL     1      43.880 -18.670   4.388  1.00  0.00    -0.025 A 
HETATM   20  C   UNL     1      43.278 -17.950   3.322  1.00  0.00    -0.012 A 
HETATM   21  C   UNL     1      44.159 -20.039   4.254  1.00  0.00     0.012 A 
HETATM   22  C   UNL     1      42.964 -18.688   2.148  1.00  0.00     0.013 A 
HETATM   23  C   UNL     1      43.246 -20.053   2.035  1.00  0.00     0.001 A 
HETATM   24  C   UNL     1      43.847 -20.727   3.087  1.00  0.00     0.001 A 
BRANCH  16  25
HETATM   25  O   UNL     1      43.083 -14.608   4.940  1.00  0.00    -0.360 OA
HETATM   26  H   UNL     1      43.905 -14.180   5.260  1.00  0.00     0.217 HD
ENDBRANCH  16  25
ENDBRANCH   3  15
TORSDOF 6
ENDMDL
MODEL 7
REMARK VINA RESULT:      -7.9      2.076      2.265
REMARK  6 active torsions:
REMARK  status: ('A' for Active; 'I' for Inactive)
REMARK    1  A    between atoms: C_5  and  C_6 
REMARK    2  A    between atoms: C_6  and  O_7 
REMARK    3  A    between atoms: C_6  and  C_8 
REMARK    4  A    between atoms: C_8  and  N_9 
REMARK    5  A    between atoms: C_11  and  C_12 
REMARK    6  A    between atoms: C_13  and  O_14 
ROOT
HETATM    1  N   UNL     1      40.579 -14.230   2.799  1.00  0.00    -0.395 N 
HETATM    2  H   UNL     1      41.268 -13.631   3.280  1.00  0.00     0.159 HD
HETATM    3  C   UNL     1      40.429 -15.420   3.265  1.00  0.00     0.098 C 
ENDROOT
BRANCH   1   4
HETATM    4  C   UNL     1      39.846 -13.633   1.656  1.00  0.00     0.155 C 
BRANCH   4   5
HETATM    5  C   UNL     1      40.370 -14.202   0.326  1.00  0.00     0.170 C 
BRANCH   5   6
HETATM    6  C   UNL     1      40.480 -13.166  -0.764  1.00  0.00    -0.011 A 
HETATM    7  C   UNL     1      40.840 -11.859  -0.447  1.00  0.00     0.126 A 
HETATM    8  N   UNL     1      40.921 -10.856  -1.344  1.00  0.00    -0.265 NA
HETATM    9  C   UNL     1      40.679 -11.147  -2.642  1.00  0.00     0.030 A 
HETATM   10  C   UNL     1      40.835 -10.038  -3.640  1.00  0.00     0.070 C 
HETATM   11  C   UNL     1      40.330 -12.425  -3.061  1.00  0.00     0.027 A 
HETATM   12  C   UNL     1      40.218 -13.439  -2.111  1.00  0.00     0.013 A 
ENDBRANCH   5   6
BRANCH   5  13
HETATM   13  O   UNL     1      39.526 -15.289  -0.065  1.00  0.00    -0.389 OA
HETATM   14  H   UNL     1      38.636 -15.104   0.297  1.00  0.00     0.210 HD
ENDBRANCH   5  13
ENDBRANCH   4   5
ENDBRANCH   1   4
BRANCH   3  15
HETATM   15  C   UNL     1      41.205 -15.961   4.409  1.00  0.00     0.023 A 
HETATM   16  C   UNL     1      40.905 -15.543   5.722  1.00  0.00     0.078 A 
HETATM   17  C   UNL     1      41.654 -15.991   6.803  1.00  0.00     0.038 A 
HETATM   18  C   UNL     1      42.711 -16.868   6.582  1.00  0.00     0.015 A 
HETATM   19  C   UNL     1      43.027 -17.319   5.293  1.00  0.00    -0.025 A 
HETATM   20  C   UNL     1      42.274 -16.878   4.172  1.00  0.00    -0.012 A 
HETATM   21  C   UNL     1      44.096 -18.214   5.123  1.00  0.00     0.012 A 
HETATM   22  C   UNL     1      42.646 -17.401   2.904  1.00  0.00     0.013 A 
HETATM   23  C   UNL     1      43.710 -18.295   2.756  1.00  0.00     0.001 A 
HETATM   24  C   UNL     1      44.437 -18.698   3.865  1.00  0.00     0.001 A 
BRANCH  16  25
HETATM   25  O   UNL     1      39.861 -14.678   5.950  1.00  0.00    -0.360 OA
HETATM   26  H   UNL     1      39.024 -15.159   5.774  1.00  0.00     0.217 HD
ENDBRANCH  16  25
ENDBRANCH   3  15
TORSDOF 6
ENDMDL
MODEL 8
REMARK VINA RESULT:      -7.6      2.827      4.244
REMARK  6 active torsions:
REMARK  status: ('A' for Active; 'I' for Inactive)
REMARK    1  A    between atoms: C_5  and  C_6 
REMARK    2  A    between atoms: C_6  and  O_7 
REMARK    3  A    between atoms: C_6  and  C_8 
REMARK    4  A    between atoms: C_8  and  N_9 
REMARK    5  A    between atoms: C_11  and  C_12 
REMARK    6  A    between atoms: C_13  and  O_14 
ROOT
HETATM    1  N   UNL     1      41.922 -13.047   6.231  1.00  0.00    -0.395 N 
HETATM    2  H   UNL     1      41.176 -13.631   6.640  1.00  0.00     0.159 HD
HETATM    3  C   UNL     1      42.964 -13.666   5.800  1.00  0.00     0.098 C 
ENDROOT
BRANCH   1   4
HETATM    4  C   UNL     1      41.684 -11.583   6.180  1.00  0.00     0.155 C 
BRANCH   4   5
HETATM    5  C   UNL     1      40.469 -11.269   5.290  1.00  0.00     0.170 C 
BRANCH   5   6
HETATM    6  C   UNL     1      40.506 -11.977   3.959  1.00  0.00    -0.011 A 
HETATM    7  C   UNL     1      39.585 -12.984   3.682  1.00  0.00     0.126 A 
HETATM    8  N   UNL     1      39.568 -13.702   2.541  1.00  0.00    -0.265 NA
HETATM    9  C   UNL     1      40.475 -13.396   1.586  1.00  0.00     0.030 A 
HETATM   10  C   UNL     1      40.406 -14.159   0.296  1.00  0.00     0.070 C 
HETATM   11  C   UNL     1      41.425 -12.396   1.761  1.00  0.00     0.027 A 
HETATM   12  C   UNL     1      41.446 -11.690   2.963  1.00  0.00     0.013 A 
ENDBRANCH   5   6
BRANCH   5  13
HETATM   13  O   UNL     1      40.382  -9.851   5.128  1.00  0.00    -0.389 OA
HETATM   14  H   UNL     1      41.236  -9.476   5.424  1.00  0.00     0.210 HD
ENDBRANCH   5  13
ENDBRANCH   4   5
ENDBRANCH   1   4
BRANCH   3  15
HETATM   15  C   UNL     1      43.145 -15.137   5.892  1.00  0.00     0.023 A 
HETATM   16  C   UNL     1      43.271 -15.752   7.154  1.00  0.00     0.078 A 
HETATM   17  C   UNL     1      43.498 -17.118   7.264  1.00  0.00     0.038 A 
HETATM   18  C   UNL     1      43.599 -17.886   6.108  1.00  0.00     0.015 A 
HETATM   19  C   UNL     1      43.462 -17.312   4.837  1.00  0.00    -0.025 A 
HETATM   20  C   UNL     1      43.226 -15.918   4.699  1.00  0.00    -0.012 A 
HETATM   21  C   UNL     1      43.559 -18.132   3.702  1.00  0.00     0.012 A 
HETATM   22  C   UNL     1      43.076 -15.421   3.376  1.00  0.00     0.013 A 
HETATM   23  C   UNL     1      43.172 -16.255   2.258  1.00  0.00     0.001 A 
HETATM   24  C   UNL     1      43.417 -17.609   2.421  1.00  0.00     0.001 A 
BRANCH  16  25
HETATM   25  O   UNL     1      43.170 -15.001   8.302  1.00  0.00    -0.360 OA
HETATM   26  H   UNL     1      42.861 -15.589   9.024  1.00  0.00     0.217 HD
ENDBRANCH  16  25
ENDBRANCH   3  15
TORSDOF 6
ENDMDL
MODEL 9
REMARK VINA RESULT:      -7.5      2.234      7.866
REMARK  6 active torsions:
REMARK  status: ('A' for Active; 'I' for Inactive)
REMARK    1  A    between atoms: C_5  and  C_6 
REMARK    2  A    between atoms: C_6  and  O_7 
REMARK    3  A    between atoms: C_6  and  C_8 
REMARK    4  A    between atoms: C_8  and  N_9 
REMARK    5  A    between atoms: C_11  and  C_12 
REMARK    6  A    between atoms: C_13  and  O_14 
ROOT
HETATM    1  N   UNL     1      42.270 -14.968   1.016  1.00  0.00    -0.395 N 
HETATM    2  H   UNL     1      42.717 -14.081   0.737  1.00  0.00     0.159 HD
HETATM    3  C   UNL     1      40.988 -15.020   0.923  1.00  0.00     0.098 C 
ENDROOT
BRANCH   1   4
HETATM    4  C   UNL     1      43.164 -16.064   1.464  1.00  0.00     0.155 C 
BRANCH   4   5
HETATM    5  C   UNL     1      42.417 -17.009   2.420  1.00  0.00     0.170 C 
BRANCH   5   6
HETATM    6  C   UNL     1      42.638 -16.683   3.876  1.00  0.00    -0.011 A 
HETATM    7  C   UNL     1      41.686 -15.948   4.576  1.00  0.00     0.126 A 
HETATM    8  N   UNL     1      41.816 -15.571   5.864  1.00  0.00    -0.265 NA
HETATM    9  C   UNL     1      42.923 -15.968   6.531  1.00  0.00     0.030 A 
HETATM   10  C   UNL     1      43.027 -15.596   7.981  1.00  0.00     0.070 C 
HETATM   11  C   UNL     1      43.923 -16.718   5.924  1.00  0.00     0.027 A 
HETATM   12  C   UNL     1      43.783 -17.068   4.582  1.00  0.00     0.013 A 
ENDBRANCH   5   6
BRANCH   5  13
HETATM   13  O   UNL     1      42.800 -18.354   2.119  1.00  0.00    -0.389 OA
HETATM   14  H   UNL     1      42.525 -18.529   1.196  1.00  0.00     0.210 HD
ENDBRANCH   5  13
ENDBRANCH   4   5
ENDBRANCH   1   4
BRANCH   3  15
HETATM   15  C   UNL     1      40.148 -13.879   0.476  1.00  0.00     0.023 A 
HETATM   16  C   UNL     1      40.056 -12.719   1.272  1.00  0.00     0.078 A 
HETATM   17  C   UNL     1      39.233 -11.663   0.904  1.00  0.00     0.038 A 
HETATM   18  C   UNL     1      38.493 -11.754  -0.271  1.00  0.00     0.015 A 
HETATM   19  C   UNL     1      38.572 -12.884  -1.096  1.00  0.00    -0.025 A 
HETATM   20  C   UNL     1      39.410 -13.976  -0.742  1.00  0.00    -0.012 A 
HETATM   21  C   UNL     1      37.815 -12.923  -2.278  1.00  0.00     0.012 A 
HETATM   22  C   UNL     1      39.449 -15.072  -1.646  1.00  0.00     0.013 A 
HETATM   23  C   UNL     1      38.691 -15.090  -2.821  1.00  0.00     0.001 A 
HETATM   24  C   UNL     1      37.872 -14.017  -3.134  1.00  0.00     0.001 A 
BRANCH  16  25
HETATM   25  O   UNL     1      40.786 -12.619   2.434  1.00  0.00    -0.360 OA
HETATM   26  H   UNL     1      41.551 -13.228   2.365  1.00  0.00     0.217 HD
ENDBRANCH  16  25
ENDBRANCH   3  15
TORSDOF 6
ENDMDL
MODEL 10
REMARK VINA RESULT:      -7.4      1.777      2.203
REMARK  6 active torsions:
REMARK  status: ('A' for Active; 'I' for Inactive)
REMARK    1  A    between atoms: C_5  and  C_6 
REMARK    2  A    between atoms: C_6  and  O_7 
REMARK    3  A    between atoms: C_6  and  C_8 
REMARK    4  A    between atoms: C_8  and  N_9 
REMARK    5  A    between atoms: C_11  and  C_12 
REMARK    6  A    between atoms: C_13  and  O_14 
ROOT
HETATM    1  N   UNL     1      41.312 -14.814   1.205  1.00  0.00    -0.395 N 
HETATM    2  H   UNL     1      42.117 -14.199   1.403  1.00  0.00     0.159 HD
HETATM    3  C   UNL     1      41.156 -15.826   1.983  1.00  0.00     0.098 C 
ENDROOT
BRANCH   1   4
HETATM    4  C   UNL     1      40.437 -14.436   0.067  1.00  0.00     0.155 C 
BRANCH   4   5
HETATM    5  C   UNL     1      40.574 -12.935  -0.239  1.00  0.00     0.170 C 
BRANCH   5   6
HETATM    6  C   UNL     1      39.315 -12.152   0.037  1.00  0.00    -0.011 A 
HETATM    7  C   UNL     1      38.622 -11.557  -1.013  1.00  0.00     0.126 A 
HETATM    8  N   UNL     1      37.515 -10.803  -0.860  1.00  0.00    -0.265 NA
HETATM    9  C   UNL     1      37.021 -10.649   0.390  1.00  0.00     0.030 A 
HETATM   10  C   UNL     1      35.754  -9.861   0.540  1.00  0.00     0.070 C 
HETATM   11  C   UNL     1      37.632 -11.218   1.501  1.00  0.00     0.027 A 
HETATM   12  C   UNL     1      38.795 -11.965   1.323  1.00  0.00     0.013 A 
ENDBRANCH   5   6
BRANCH   5  13
HETATM   13  O   UNL     1      40.998 -12.786  -1.597  1.00  0.00    -0.389 OA
HETATM   14  H   UNL     1      41.583 -12.002  -1.630  1.00  0.00     0.210 HD
ENDBRANCH   5  13
ENDBRANCH   4   5
ENDBRANCH   1   4
BRANCH   3  15
HETATM   15  C   UNL     1      42.077 -16.155   3.101  1.00  0.00     0.023 A 
HETATM   16  C   UNL     1      42.294 -15.218   4.133  1.00  0.00     0.078 A 
HETATM   17  C   UNL     1      43.194 -15.480   5.158  1.00  0.00     0.038 A 
HETATM   18  C   UNL     1      43.886 -16.687   5.165  1.00  0.00     0.015 A 
HETATM   19  C   UNL     1      43.683 -17.649   4.165  1.00  0.00    -0.025 A 
HETATM   20  C   UNL     1      42.766 -17.405   3.109  1.00  0.00    -0.012 A 
HETATM   21  C   UNL     1      44.397 -18.857   4.224  1.00  0.00     0.012 A 
HETATM   22  C   UNL     1      42.603 -18.443   2.151  1.00  0.00     0.013 A 
HETATM   23  C   UNL     1      43.319 -19.641   2.228  1.00  0.00     0.001 A 
HETATM   24  C   UNL     1      44.218 -19.846   3.263  1.00  0.00     0.001 A 
BRANCH  16  25
HETATM   25  O   UNL     1      41.613 -14.023   4.135  1.00  0.00    -0.360 OA
HETATM   26  H   UNL     1      41.398 -13.794   3.206  1.00  0.00     0.217 HD
ENDBRANCH  16  25
ENDBRANCH   3  15
TORSDOF 6
ENDMDL
