MODEL 1
REMARK VINA RESULT:      -7.9      0.000      0.000
REMARK  7 active torsions:
REMARK  status: ('A' for Active; 'I' for Inactive)
REMARK    1  A    between atoms: N_3  and  C_4 
REMARK    2  A    between atoms: C_12  and  C_13 
REMARK       I    between atoms: C_13  and  N_14 
REMARK    3  A    between atoms: N_14  and  C_15 
REMARK    4  A    between atoms: C_15  and  C_16 
REMARK    5  A    between atoms: C_16  and  O_17 
REMARK    6  A    between atoms: C_16  and  C_18 
REMARK    7  A    between atoms: C_21  and  O_22 
ROOT
HETATM    1  C   UNL     1      44.155 -11.056   8.104  1.00  0.00     0.255 C 
HETATM    2  N   UNL     1      43.263 -11.532   7.176  1.00  0.00    -0.350 N 
HETATM    3  O   UNL     1      45.354 -11.310   8.059  1.00  0.00    -0.268 OA
HETATM    4  H   UNL     1      42.297 -11.245   7.204  1.00  0.00     0.163 HD
ENDROOT
BRANCH   2   5
HETATM    5  C   UNL     1      43.646 -12.409   6.068  1.00  0.00     0.114 C 
HETATM    6  C   UNL     1      43.925 -11.536   4.842  1.00  0.00     0.035 C 
BRANCH   5   7
HETATM    7  C   UNL     1      42.541 -13.454   5.756  1.00  0.00     0.173 C 
BRANCH   7   8
HETATM    8  O   UNL     1      41.591 -13.508   6.831  1.00  0.00    -0.389 OA
HETATM    9  H   UNL     1      41.131 -12.649   6.835  1.00  0.00     0.210 HD
ENDBRANCH   7   8
BRANCH   7  10
HETATM   10  C   UNL     1      43.081 -14.841   5.459  1.00  0.00    -0.028 A 
HETATM   11  C   UNL     1      42.842 -15.432   4.211  1.00  0.00     0.012 A 
HETATM   12  C   UNL     1      43.355 -16.699   3.915  1.00  0.00     0.037 A 
HETATM   13  C   UNL     1      44.121 -17.394   4.850  1.00  0.00     0.068 A 
HETATM   14  C   UNL     1      44.359 -16.818   6.097  1.00  0.00     0.037 A 
HETATM   15  C   UNL     1      43.841 -15.552   6.397  1.00  0.00     0.012 A 
BRANCH  13  16
HETATM   16  O   UNL     1      44.570 -18.616   4.430  1.00  0.00    -0.356 OA
HETATM   17  C   UNL     1      44.049 -19.098   3.198  1.00  0.00     0.210 C 
ENDBRANCH  13  16
ENDBRANCH   7  10
ENDBRANCH   5   7
ENDBRANCH   2   5
BRANCH   1  18
HETATM   18  C   UNL     1      43.608 -10.177   9.130  1.00  0.00     0.075 C 
HETATM   19  C   UNL     1      43.598 -10.252  10.521  1.00  0.00     0.051 C 
HETATM   20  C   UNL     1      44.248 -11.206  11.463  1.00  0.00     0.071 C 
HETATM   21  N   UNL     1      42.828  -9.172  10.964  1.00  0.00    -0.220 N 
HETATM   22  N   UNL     1      42.531  -8.325   9.940  1.00  0.00    -0.177 NA
HETATM   23  C   UNL     1      42.971  -8.950   8.852  1.00  0.00     0.158 C 
BRANCH  21  24
HETATM   24  C   UNL     1      42.341  -8.897  12.290  1.00  0.00     0.150 A 
HETATM   25  N   UNL     1      41.194  -9.493  12.716  1.00  0.00    -0.241 NA
HETATM   26  C   UNL     1      40.754  -9.185  13.956  1.00  0.00     0.119 A 
HETATM   27  C   UNL     1      41.403  -8.310  14.810  1.00  0.00     0.019 A 
HETATM   28  C   UNL     1      42.573  -7.709  14.368  1.00  0.00     0.005 A 
HETATM   29  C   UNL     1      43.051  -8.000  13.091  1.00  0.00     0.052 A 
ENDBRANCH  21  24
ENDBRANCH   1  18
TORSDOF 7
ENDMDL
MODEL 2
REMARK VINA RESULT:      -7.8      2.885      4.499
REMARK  7 active torsions:
REMARK  status: ('A' for Active; 'I' for Inactive)
REMARK    1  A    between atoms: N_3  and  C_4 
REMARK    2  A    between atoms: C_12  and  C_13 
REMARK       I    between atoms: C_13  and  N_14 
REMARK    3  A    between atoms: N_14  and  C_15 
REMARK    4  A    between atoms: C_15  and  C_16 
REMARK    5  A    between atoms: C_16  and  O_17 
REMARK    6  A    between atoms: C_16  and  C_18 
REMARK    7  A    between atoms: C_21  and  O_22 
ROOT
HETATM    1  C   UNL     1      42.236 -12.458   3.980  1.00  0.00     0.255 C 
HETATM    2  N   UNL     1      41.277 -13.430   3.861  1.00  0.00    -0.350 N 
HETATM    3  O   UNL     1      42.532 -11.705   3.057  1.00  0.00    -0.268 OA
HETATM    4  H   UNL     1      41.010 -13.984   4.661  1.00  0.00     0.163 HD
ENDROOT
BRANCH   2   5
HETATM    5  C   UNL     1      40.539 -13.687   2.623  1.00  0.00     0.114 C 
HETATM    6  C   UNL     1      39.173 -13.005   2.730  1.00  0.00     0.035 C 
BRANCH   5   7
HETATM    7  C   UNL     1      40.372 -15.208   2.359  1.00  0.00     0.173 C 
BRANCH   7   8
HETATM    8  O   UNL     1      39.050 -15.633   2.722  1.00  0.00    -0.389 OA
HETATM    9  H   UNL     1      38.756 -15.037   3.435  1.00  0.00     0.210 HD
ENDBRANCH   7   8
BRANCH   7  10
HETATM   10  C   UNL     1      41.412 -16.065   3.056  1.00  0.00    -0.028 A 
HETATM   11  C   UNL     1      42.423 -16.685   2.310  1.00  0.00     0.012 A 
HETATM   12  C   UNL     1      43.402 -17.457   2.943  1.00  0.00     0.037 A 
HETATM   13  C   UNL     1      43.398 -17.617   4.329  1.00  0.00     0.068 A 
HETATM   14  C   UNL     1      42.394 -17.011   5.080  1.00  0.00     0.037 A 
HETATM   15  C   UNL     1      41.409 -16.242   4.447  1.00  0.00     0.012 A 
BRANCH  13  16
HETATM   16  O   UNL     1      44.416 -18.388   4.820  1.00  0.00    -0.356 OA
HETATM   17  C   UNL     1      44.302 -19.792   4.631  1.00  0.00     0.210 C 
ENDBRANCH  13  16
ENDBRANCH   7  10
ENDBRANCH   5   7
ENDBRANCH   2   5
BRANCH   1  18
HETATM   18  C   UNL     1      42.858 -12.324   5.291  1.00  0.00     0.075 C 
HETATM   19  C   UNL     1      42.935 -11.261   6.189  1.00  0.00     0.051 C 
HETATM   20  C   UNL     1      42.305  -9.910   6.175  1.00  0.00     0.071 C 
HETATM   21  N   UNL     1      43.757 -11.692   7.234  1.00  0.00    -0.220 N 
HETATM   22  N   UNL     1      44.027 -13.023   7.132  1.00  0.00    -0.177 NA
HETATM   23  C   UNL     1      43.516 -13.378   5.958  1.00  0.00     0.158 C 
BRANCH  21  24
HETATM   24  C   UNL     1      44.316 -10.924   8.315  1.00  0.00     0.150 A 
HETATM   25  N   UNL     1      43.822 -11.087   9.573  1.00  0.00    -0.241 NA
HETATM   26  C   UNL     1      44.353 -10.325  10.555  1.00  0.00     0.119 A 
HETATM   27  C   UNL     1      45.365  -9.402  10.356  1.00  0.00     0.019 A 
HETATM   28  C   UNL     1      45.863  -9.245   9.070  1.00  0.00     0.005 A 
HETATM   29  C   UNL     1      45.333 -10.010   8.032  1.00  0.00     0.052 A 
ENDBRANCH  21  24
ENDBRANCH   1  18
TORSDOF 7
ENDMDL
MODEL 3
REMARK VINA RESULT:      -7.7      2.084      3.231
REMARK  7 active torsions:
REMARK  status: ('A' for Active; 'I' for Inactive)
REMARK    1  A    between atoms: N_3  and  C_4 
REMARK    2  A    between atoms: C_12  and  C_13 
REMARK       I    between atoms: C_13  and  N_14 
REMARK    3  A    between atoms: N_14  and  C_15 
REMARK    4  A    between atoms: C_15  and  C_16 
REMARK    5  A    between atoms: C_16  and  O_17 
REMARK    6  A    between atoms: C_16  and  C_18 
REMARK    7  A    between atoms: C_21  and  O_22 
ROOT
HETATM    1  C   UNL     1      43.965 -11.683   4.825  1.00  0.00     0.255 C 
HETATM    2  N   UNL     1      42.848 -12.412   4.506  1.00  0.00    -0.350 N 
HETATM    3  O   UNL     1      44.774 -11.310   3.982  1.00  0.00    -0.268 OA
HETATM    4  H   UNL     1      42.168 -12.640   5.215  1.00  0.00     0.163 HD
ENDROOT
BRANCH   2   5
HETATM    5  C   UNL     1      42.529 -12.842   3.144  1.00  0.00     0.114 C 
HETATM    6  C   UNL     1      41.932 -11.650   2.392  1.00  0.00     0.035 C 
BRANCH   5   7
HETATM    7  C   UNL     1      41.544 -14.043   3.137  1.00  0.00     0.173 C 
BRANCH   7   8
HETATM    8  O   UNL     1      40.610 -13.925   4.220  1.00  0.00    -0.389 OA
HETATM    9  H   UNL     1      39.995 -14.676   4.136  1.00  0.00     0.210 HD
ENDBRANCH   7   8
BRANCH   7  10
HETATM   10  C   UNL     1      42.232 -15.395   3.178  1.00  0.00    -0.028 A 
HETATM   11  C   UNL     1      42.588 -16.036   1.984  1.00  0.00     0.012 A 
HETATM   12  C   UNL     1      43.244 -17.271   2.008  1.00  0.00     0.037 A 
HETATM   13  C   UNL     1      43.566 -17.884   3.219  1.00  0.00     0.068 A 
HETATM   14  C   UNL     1      43.210 -17.258   4.412  1.00  0.00     0.037 A 
HETATM   15  C   UNL     1      42.548 -16.024   4.390  1.00  0.00     0.012 A 
BRANCH  13  16
HETATM   16  O   UNL     1      44.215 -19.082   3.102  1.00  0.00    -0.356 OA
HETATM   17  C   UNL     1      43.571 -20.083   2.325  1.00  0.00     0.210 C 
ENDBRANCH  13  16
ENDBRANCH   7  10
ENDBRANCH   5   7
ENDBRANCH   2   5
BRANCH   1  18
HETATM   18  C   UNL     1      44.117 -11.320   6.228  1.00  0.00     0.075 C 
HETATM   19  C   UNL     1      43.276 -10.662   7.124  1.00  0.00     0.051 C 
HETATM   20  C   UNL     1      41.867 -10.195   6.993  1.00  0.00     0.071 C 
HETATM   21  N   UNL     1      44.010 -10.503   8.303  1.00  0.00    -0.220 N 
HETATM   22  N   UNL     1      45.179 -11.201   8.254  1.00  0.00    -0.177 NA
HETATM   23  C   UNL     1      45.246 -11.653   7.006  1.00  0.00     0.158 C 
BRANCH  21  24
HETATM   24  C   UNL     1      43.685  -9.724   9.468  1.00  0.00     0.150 A 
HETATM   25  N   UNL     1      43.496  -8.382   9.340  1.00  0.00    -0.241 NA
HETATM   26  C   UNL     1      43.223  -7.680  10.462  1.00  0.00     0.119 A 
HETATM   27  C   UNL     1      43.119  -8.246  11.721  1.00  0.00     0.019 A 
HETATM   28  C   UNL     1      43.311  -9.615  11.841  1.00  0.00     0.005 A 
HETATM   29  C   UNL     1      43.601 -10.368  10.704  1.00  0.00     0.052 A 
ENDBRANCH  21  24
ENDBRANCH   1  18
TORSDOF 7
ENDMDL
MODEL 4
REMARK VINA RESULT:      -7.7      8.014     10.857
REMARK  7 active torsions:
REMARK  status: ('A' for Active; 'I' for Inactive)
REMARK    1  A    between atoms: N_3  and  C_4 
REMARK    2  A    between atoms: C_12  and  C_13 
REMARK       I    between atoms: C_13  and  N_14 
REMARK    3  A    between atoms: N_14  and  C_15 
REMARK    4  A    between atoms: C_15  and  C_16 
REMARK    5  A    between atoms: C_16  and  O_17 
REMARK    6  A    between atoms: C_16  and  C_18 
REMARK    7  A    between atoms: C_21  and  O_22 
ROOT
HETATM    1  C   UNL     1      40.074 -14.330   0.052  1.00  0.00     0.255 C 
HETATM    2  N   UNL     1      40.920 -14.286   1.130  1.00  0.00    -0.350 N 
HETATM    3  O   UNL     1      39.557 -15.371  -0.340  1.00  0.00    -0.268 OA
HETATM    4  H   UNL     1      41.271 -13.403   1.468  1.00  0.00     0.163 HD
ENDROOT
BRANCH   2   5
HETATM    5  C   UNL     1      41.314 -15.471   1.893  1.00  0.00     0.114 C 
HETATM    6  C   UNL     1      40.305 -15.667   3.027  1.00  0.00     0.035 C 
BRANCH   5   7
HETATM    7  C   UNL     1      42.755 -15.337   2.459  1.00  0.00     0.173 C 
BRANCH   7   8
HETATM    8  O   UNL     1      43.661 -14.939   1.419  1.00  0.00    -0.389 OA
HETATM    9  H   UNL     1      43.875 -14.004   1.585  1.00  0.00     0.210 HD
ENDBRANCH   7   8
BRANCH   7  10
HETATM   10  C   UNL     1      43.258 -16.593   3.146  1.00  0.00    -0.028 A 
HETATM   11  C   UNL     1      43.365 -17.791   2.427  1.00  0.00     0.012 A 
HETATM   12  C   UNL     1      43.850 -18.948   3.043  1.00  0.00     0.037 A 
HETATM   13  C   UNL     1      44.247 -18.932   4.380  1.00  0.00     0.068 A 
HETATM   14  C   UNL     1      44.138 -17.748   5.106  1.00  0.00     0.037 A 
HETATM   15  C   UNL     1      43.647 -16.589   4.493  1.00  0.00     0.012 A 
BRANCH  13  16
HETATM   16  O   UNL     1      44.712 -20.128   4.855  1.00  0.00    -0.356 OA
HETATM   17  C   UNL     1      43.735 -21.061   5.298  1.00  0.00     0.210 C 
ENDBRANCH  13  16
ENDBRANCH   7  10
ENDBRANCH   5   7
ENDBRANCH   2   5
BRANCH   1  18
HETATM   18  C   UNL     1      39.770 -13.053  -0.580  1.00  0.00     0.075 C 
HETATM   19  C   UNL     1      40.068 -12.535  -1.839  1.00  0.00     0.051 C 
HETATM   20  C   UNL     1      40.708 -13.153  -3.034  1.00  0.00     0.071 C 
HETATM   21  N   UNL     1      39.611 -11.213  -1.836  1.00  0.00    -0.220 N 
HETATM   22  N   UNL     1      38.871 -10.951  -0.723  1.00  0.00    -0.177 NA
HETATM   23  C   UNL     1      39.001 -12.039   0.029  1.00  0.00     0.158 C 
BRANCH  21  24
HETATM   24  C   UNL     1      39.839 -10.179  -2.809  1.00  0.00     0.150 A 
HETATM   25  N   UNL     1      38.886  -9.923  -3.746  1.00  0.00    -0.241 NA
HETATM   26  C   UNL     1      39.152  -8.965  -4.661  1.00  0.00     0.119 A 
HETATM   27  C   UNL     1      40.326  -8.233  -4.695  1.00  0.00     0.019 A 
HETATM   28  C   UNL     1      41.291  -8.500  -3.734  1.00  0.00     0.005 A 
HETATM   29  C   UNL     1      41.052  -9.487  -2.779  1.00  0.00     0.052 A 
ENDBRANCH  21  24
ENDBRANCH   1  18
TORSDOF 7
ENDMDL
MODEL 5
REMARK VINA RESULT:      -7.6      2.316      3.561
REMARK  7 active torsions:
REMARK  status: ('A' for Active; 'I' for Inactive)
REMARK    1  A    between atoms: N_3  and  C_4 
REMARK    2  A    between atoms: C_12  and  C_13 
REMARK       I    between atoms: C_13  and  N_14 
REMARK    3  A    between atoms: N_14  and  C_15 
REMARK    4  A    between atoms: C_15  and  C_16 
REMARK    5  A    between atoms: C_16  and  O_17 
REMARK    6  A    between atoms: C_16  and  C_18 
REMARK    7  A    between atoms: C_21  and  O_22 
ROOT
HETATM    1  C   UNL     1      43.229 -11.990   4.333  1.00  0.00     0.255 C 
HETATM    2  N   UNL     1      42.257 -12.915   4.050  1.00  0.00    -0.350 N 
HETATM    3  O   UNL     1      44.183 -11.785   3.589  1.00  0.00    -0.268 OA
HETATM    4  H   UNL     1      41.450 -13.007   4.648  1.00  0.00     0.163 HD
ENDROOT
BRANCH   2   5
HETATM    5  C   UNL     1      42.277 -13.766   2.859  1.00  0.00     0.114 C 
HETATM    6  C   UNL     1      41.683 -12.973   1.693  1.00  0.00     0.035 C 
BRANCH   5   7
HETATM    7  C   UNL     1      41.487 -15.085   3.082  1.00  0.00     0.173 C 
BRANCH   7   8
HETATM    8  O   UNL     1      40.469 -14.891   4.074  1.00  0.00    -0.389 OA
HETATM    9  H   UNL     1      40.117 -15.775   4.284  1.00  0.00     0.210 HD
ENDBRANCH   7   8
BRANCH   7  10
HETATM   10  C   UNL     1      42.366 -16.266   3.451  1.00  0.00    -0.028 A 
HETATM   11  C   UNL     1      42.854 -16.395   4.759  1.00  0.00     0.012 A 
HETATM   12  C   UNL     1      43.644 -17.491   5.117  1.00  0.00     0.037 A 
HETATM   13  C   UNL     1      43.953 -18.482   4.186  1.00  0.00     0.068 A 
HETATM   14  C   UNL     1      43.479 -18.361   2.881  1.00  0.00     0.037 A 
HETATM   15  C   UNL     1      42.693 -17.260   2.519  1.00  0.00     0.012 A 
BRANCH  13  16
HETATM   16  O   UNL     1      44.724 -19.504   4.669  1.00  0.00    -0.356 OA
HETATM   17  C   UNL     1      44.051 -20.715   4.987  1.00  0.00     0.210 C 
ENDBRANCH  13  16
ENDBRANCH   7  10
ENDBRANCH   5   7
ENDBRANCH   2   5
BRANCH   1  18
HETATM   18  C   UNL     1      43.042 -11.212   5.550  1.00  0.00     0.075 C 
HETATM   19  C   UNL     1      43.874 -10.958   6.639  1.00  0.00     0.051 C 
HETATM   20  C   UNL     1      45.302 -11.302   6.889  1.00  0.00     0.071 C 
HETATM   21  N   UNL     1      43.107 -10.234   7.556  1.00  0.00    -0.220 N 
HETATM   22  N   UNL     1      41.917  -9.855   7.013  1.00  0.00    -0.177 NA
HETATM   23  C   UNL     1      41.877 -10.469   5.835  1.00  0.00     0.158 C 
BRANCH  21  24
HETATM   24  C   UNL     1      43.419  -9.890   8.918  1.00  0.00     0.150 A 
HETATM   25  N   UNL     1      43.803 -10.870   9.781  1.00  0.00    -0.241 NA
HETATM   26  C   UNL     1      44.057 -10.511  11.059  1.00  0.00     0.119 A 
HETATM   27  C   UNL     1      43.957  -9.214  11.532  1.00  0.00     0.019 A 
HETATM   28  C   UNL     1      43.568  -8.221  10.643  1.00  0.00     0.005 A 
HETATM   29  C   UNL     1      43.290  -8.559   9.319  1.00  0.00     0.052 A 
ENDBRANCH  21  24
ENDBRANCH   1  18
TORSDOF 7
ENDMDL
MODEL 6
REMARK VINA RESULT:      -7.5      2.810      9.624
REMARK  7 active torsions:
REMARK  status: ('A' for Active; 'I' for Inactive)
REMARK    1  A    between atoms: N_3  and  C_4 
REMARK    2  A    between atoms: C_12  and  C_13 
REMARK       I    between atoms: C_13  and  N_14 
REMARK    3  A    between atoms: N_14  and  C_15 
REMARK    4  A    between atoms: C_15  and  C_16 
REMARK    5  A    between atoms: C_16  and  O_17 
REMARK    6  A    between atoms: C_16  and  C_18 
REMARK    7  A    between atoms: C_21  and  O_22 
ROOT
HETATM    1  C   UNL     1      42.421 -10.163   7.327  1.00  0.00     0.255 C 
HETATM    2  N   UNL     1      43.250 -10.470   8.376  1.00  0.00    -0.350 N 
HETATM    3  O   UNL     1      41.973  -9.035   7.148  1.00  0.00    -0.268 OA
HETATM    4  H   UNL     1      43.657 -11.390   8.453  1.00  0.00     0.163 HD
ENDROOT
BRANCH   2   5
HETATM    5  C   UNL     1      43.654  -9.499   9.394  1.00  0.00     0.114 C 
HETATM    6  C   UNL     1      44.902  -8.769   8.892  1.00  0.00     0.035 C 
BRANCH   5   7
HETATM    7  C   UNL     1      43.933 -10.182  10.760  1.00  0.00     0.173 C 
BRANCH   7   8
HETATM    8  O   UNL     1      43.596 -11.576  10.696  1.00  0.00    -0.389 OA
HETATM    9  H   UNL     1      42.675 -11.622  10.380  1.00  0.00     0.210 HD
ENDBRANCH   7   8
BRANCH   7  10
HETATM   10  C   UNL     1      43.224  -9.521  11.928  1.00  0.00    -0.028 A 
HETATM   11  C   UNL     1      43.660  -8.274  12.396  1.00  0.00     0.012 A 
HETATM   12  C   UNL     1      43.000  -7.643  13.455  1.00  0.00     0.037 A 
HETATM   13  C   UNL     1      41.891  -8.235  14.059  1.00  0.00     0.068 A 
HETATM   14  C   UNL     1      41.454  -9.478  13.606  1.00  0.00     0.037 A 
HETATM   15  C   UNL     1      42.116 -10.115  12.549  1.00  0.00     0.012 A 
BRANCH  13  16
HETATM   16  O   UNL     1      41.334  -7.508  15.075  1.00  0.00    -0.356 OA
HETATM   17  C   UNL     1      40.245  -6.661  14.731  1.00  0.00     0.210 C 
ENDBRANCH  13  16
ENDBRANCH   7  10
ENDBRANCH   5   7
ENDBRANCH   2   5
BRANCH   1  18
HETATM   18  C   UNL     1      42.138 -11.245   6.393  1.00  0.00     0.075 C 
HETATM   19  C   UNL     1      42.883 -12.348   5.981  1.00  0.00     0.051 C 
HETATM   20  C   UNL     1      44.198 -12.877   6.441  1.00  0.00     0.071 C 
HETATM   21  N   UNL     1      42.132 -12.975   4.982  1.00  0.00    -0.220 N 
HETATM   22  N   UNL     1      40.883 -12.439   4.895  1.00  0.00    -0.177 NA
HETATM   23  C   UNL     1      40.910 -11.393   5.714  1.00  0.00     0.158 C 
BRANCH  21  24
HETATM   24  C   UNL     1      42.525 -14.037   4.093  1.00  0.00     0.150 A 
HETATM   25  N   UNL     1      42.460 -15.325   4.527  1.00  0.00    -0.241 NA
HETATM   26  C   UNL     1      42.866 -16.291   3.673  1.00  0.00     0.119 A 
HETATM   27  C   UNL     1      43.334 -16.045   2.394  1.00  0.00     0.019 A 
HETATM   28  C   UNL     1      43.395 -14.728   1.961  1.00  0.00     0.005 A 
HETATM   29  C   UNL     1      42.990 -13.706   2.819  1.00  0.00     0.052 A 
ENDBRANCH  21  24
ENDBRANCH   1  18
TORSDOF 7
ENDMDL
MODEL 7
REMARK VINA RESULT:      -7.4      8.245     11.148
REMARK  7 active torsions:
REMARK  status: ('A' for Active; 'I' for Inactive)
REMARK    1  A    between atoms: N_3  and  C_4 
REMARK    2  A    between atoms: C_12  and  C_13 
REMARK       I    between atoms: C_13  and  N_14 
REMARK    3  A    between atoms: N_14  and  C_15 
REMARK    4  A    between atoms: C_15  and  C_16 
REMARK    5  A    between atoms: C_16  and  O_17 
REMARK    6  A    between atoms: C_16  and  C_18 
REMARK    7  A    between atoms: C_21  and  O_22 
ROOT
HETATM    1  C   UNL     1      40.157 -13.191   0.911  1.00  0.00     0.255 C 
HETATM    2  N   UNL     1      39.716 -13.495  -0.352  1.00  0.00    -0.350 N 
HETATM    3  O   UNL     1      40.156 -12.047   1.354  1.00  0.00    -0.268 OA
HETATM    4  H   UNL     1      39.665 -14.455  -0.658  1.00  0.00     0.163 HD
ENDROOT
BRANCH   2   5
HETATM    5  C   UNL     1      39.235 -12.489  -1.300  1.00  0.00     0.114 C 
HETATM    6  C   UNL     1      37.888 -12.959  -1.855  1.00  0.00     0.035 C 
BRANCH   5   7
HETATM    7  C   UNL     1      40.250 -12.255  -2.452  1.00  0.00     0.173 C 
BRANCH   7   8
HETATM    8  O   UNL     1      41.303 -13.229  -2.392  1.00  0.00    -0.389 OA
HETATM    9  H   UNL     1      42.123 -12.736  -2.210  1.00  0.00     0.210 HD
ENDBRANCH   7   8
BRANCH   7  10
HETATM   10  C   UNL     1      40.829 -10.853  -2.479  1.00  0.00    -0.028 A 
HETATM   11  C   UNL     1      41.560 -10.376  -1.383  1.00  0.00     0.012 A 
HETATM   12  C   UNL     1      42.119  -9.095  -1.405  1.00  0.00     0.037 A 
HETATM   13  C   UNL     1      41.970  -8.270  -2.519  1.00  0.00     0.068 A 
HETATM   14  C   UNL     1      41.238  -8.731  -3.612  1.00  0.00     0.037 A 
HETATM   15  C   UNL     1      40.673 -10.012  -3.590  1.00  0.00     0.012 A 
BRANCH  13  16
HETATM   16  O   UNL     1      42.574  -7.047  -2.415  1.00  0.00    -0.356 OA
HETATM   17  C   UNL     1      42.677  -6.282  -3.609  1.00  0.00     0.210 C 
ENDBRANCH  13  16
ENDBRANCH   7  10
ENDBRANCH   5   7
ENDBRANCH   2   5
BRANCH   1  18
HETATM   18  C   UNL     1      40.582 -14.317   1.732  1.00  0.00     0.075 C 
HETATM   19  C   UNL     1      41.840 -14.773   2.121  1.00  0.00     0.051 C 
HETATM   20  C   UNL     1      43.201 -14.198   1.928  1.00  0.00     0.071 C 
HETATM   21  N   UNL     1      41.624 -15.966   2.818  1.00  0.00    -0.220 N 
HETATM   22  N   UNL     1      40.298 -16.167   3.054  1.00  0.00    -0.177 NA
HETATM   23  C   UNL     1      39.689 -15.200   2.376  1.00  0.00     0.158 C 
BRANCH  21  24
HETATM   24  C   UNL     1      42.590 -16.936   3.263  1.00  0.00     0.150 A 
HETATM   25  N   UNL     1      43.158 -16.796   4.492  1.00  0.00    -0.241 NA
HETATM   26  C   UNL     1      44.082 -17.710   4.860  1.00  0.00     0.119 A 
HETATM   27  C   UNL     1      44.476 -18.774   4.067  1.00  0.00     0.019 A 
HETATM   28  C   UNL     1      43.889 -18.909   2.816  1.00  0.00     0.005 A 
HETATM   29  C   UNL     1      42.937 -17.980   2.402  1.00  0.00     0.052 A 
ENDBRANCH  21  24
ENDBRANCH   1  18
TORSDOF 7
ENDMDL
MODEL 8
REMARK VINA RESULT:      -7.4      2.881      9.804
REMARK  7 active torsions:
REMARK  status: ('A' for Active; 'I' for Inactive)
REMARK    1  A    between atoms: N_3  and  C_4 
REMARK    2  A    between atoms: C_12  and  C_13 
REMARK       I    between atoms: C_13  and  N_14 
REMARK    3  A    between atoms: N_14  and  C_15 
REMARK    4  A    between atoms: C_15  and  C_16 
REMARK    5  A    between atoms: C_16  and  O_17 
REMARK    6  A    between atoms: C_16  and  C_18 
REMARK    7  A    between atoms: C_21  and  O_22 
ROOT
HETATM    1  C   UNL     1      43.517 -11.212   6.993  1.00  0.00     0.255 C 
HETATM    2  N   UNL     1      44.514 -11.053   7.921  1.00  0.00    -0.350 N 
HETATM    3  O   UNL     1      42.804 -10.284   6.623  1.00  0.00    -0.268 OA
HETATM    4  H   UNL     1      45.127 -11.821   8.149  1.00  0.00     0.163 HD
ENDROOT
BRANCH   2   5
HETATM    5  C   UNL     1      44.804  -9.779   8.581  1.00  0.00     0.114 C 
HETATM    6  C   UNL     1      46.231  -9.364   8.216  1.00  0.00     0.035 C 
BRANCH   5   7
HETATM    7  C   UNL     1      44.641  -9.882  10.122  1.00  0.00     0.173 C 
BRANCH   7   8
HETATM    8  O   UNL     1      44.082 -11.154  10.479  1.00  0.00    -0.389 OA
HETATM    9  H   UNL     1      43.189 -11.181  10.090  1.00  0.00     0.210 HD
ENDBRANCH   7   8
BRANCH   7  10
HETATM   10  C   UNL     1      43.820  -8.756  10.724  1.00  0.00    -0.028 A 
HETATM   11  C   UNL     1      43.605  -8.709  12.109  1.00  0.00     0.012 A 
HETATM   12  C   UNL     1      42.871  -7.665  12.678  1.00  0.00     0.037 A 
HETATM   13  C   UNL     1      42.347  -6.645  11.884  1.00  0.00     0.068 A 
HETATM   14  C   UNL     1      42.549  -6.686  10.506  1.00  0.00     0.037 A 
HETATM   15  C   UNL     1      43.279  -7.734   9.932  1.00  0.00     0.012 A 
BRANCH  13  16
HETATM   16  O   UNL     1      41.660  -5.680  12.568  1.00  0.00    -0.356 OA
HETATM   17  C   UNL     1      40.408  -6.062  13.123  1.00  0.00     0.210 C 
ENDBRANCH  13  16
ENDBRANCH   7  10
ENDBRANCH   5   7
ENDBRANCH   2   5
BRANCH   1  18
HETATM   18  C   UNL     1      43.379 -12.544   6.419  1.00  0.00     0.075 C 
HETATM   19  C   UNL     1      43.155 -12.985   5.116  1.00  0.00     0.051 C 
HETATM   20  C   UNL     1      43.092 -12.249   3.822  1.00  0.00     0.071 C 
HETATM   21  N   UNL     1      43.005 -14.373   5.194  1.00  0.00    -0.220 N 
HETATM   22  N   UNL     1      43.322 -14.834   6.437  1.00  0.00    -0.177 NA
HETATM   23  C   UNL     1      43.510 -13.736   7.162  1.00  0.00     0.158 C 
BRANCH  21  24
HETATM   24  C   UNL     1      42.568 -15.291   4.176  1.00  0.00     0.150 A 
HETATM   25  N   UNL     1      41.268 -15.268   3.773  1.00  0.00    -0.241 NA
HETATM   26  C   UNL     1      40.890 -16.166   2.837  1.00  0.00     0.119 A 
HETATM   27  C   UNL     1      41.744 -17.094   2.266  1.00  0.00     0.019 A 
HETATM   28  C   UNL     1      43.068 -17.108   2.682  1.00  0.00     0.005 A 
HETATM   29  C   UNL     1      43.490 -16.200   3.652  1.00  0.00     0.052 A 
ENDBRANCH  21  24
ENDBRANCH   1  18
TORSDOF 7
ENDMDL
MODEL 9
REMARK VINA RESULT:      -7.3      6.147      9.797
REMARK  7 active torsions:
REMARK  status: ('A' for Active; 'I' for Inactive)
REMARK    1  A    between atoms: N_3  and  C_4 
REMARK    2  A    between atoms: C_12  and  C_13 
REMARK       I    between atoms: C_13  and  N_14 
REMARK    3  A    between atoms: N_14  and  C_15 
REMARK    4  A    between atoms: C_15  and  C_16 
REMARK    5  A    between atoms: C_16  and  O_17 
REMARK    6  A    between atoms: C_16  and  C_18 
REMARK    7  A    between atoms: C_21  and  O_22 
ROOT
HETATM    1  C   UNL     1      39.857 -14.151   2.578  1.00  0.00     0.255 C 
HETATM    2  N   UNL     1      40.486 -13.741   3.726  1.00  0.00    -0.350 N 
HETATM    3  O   UNL     1      39.559 -15.323   2.371  1.00  0.00    -0.268 OA
HETATM    4  H   UNL     1      40.652 -12.761   3.895  1.00  0.00     0.163 HD
ENDROOT
BRANCH   2   5
HETATM    5  C   UNL     1      40.888 -14.657   4.795  1.00  0.00     0.114 C 
HETATM    6  C   UNL     1      40.352 -14.111   6.121  1.00  0.00     0.035 C 
BRANCH   5   7
HETATM    7  C   UNL     1      42.431 -14.825   4.856  1.00  0.00     0.173 C 
BRANCH   7   8
HETATM    8  O   UNL     1      43.077 -13.705   4.233  1.00  0.00    -0.389 OA
HETATM    9  H   UNL     1      43.676 -13.326   4.901  1.00  0.00     0.210 HD
ENDBRANCH   7   8
BRANCH   7  10
HETATM   10  C   UNL     1      42.927 -16.125   4.251  1.00  0.00    -0.028 A 
HETATM   11  C   UNL     1      43.490 -17.110   5.073  1.00  0.00     0.012 A 
HETATM   12  C   UNL     1      43.928 -18.322   4.531  1.00  0.00     0.037 A 
HETATM   13  C   UNL     1      43.804 -18.579   3.165  1.00  0.00     0.068 A 
HETATM   14  C   UNL     1      43.253 -17.604   2.338  1.00  0.00     0.037 A 
HETATM   15  C   UNL     1      42.818 -16.387   2.878  1.00  0.00     0.012 A 
BRANCH  13  16
HETATM   16  O   UNL     1      44.262 -19.806   2.768  1.00  0.00    -0.356 OA
HETATM   17  C   UNL     1      43.518 -20.465   1.752  1.00  0.00     0.210 C 
ENDBRANCH  13  16
ENDBRANCH   7  10
ENDBRANCH   5   7
ENDBRANCH   2   5
BRANCH   1  18
HETATM   18  C   UNL     1      39.508 -13.104   1.627  1.00  0.00     0.075 C 
HETATM   19  C   UNL     1      39.685 -12.990   0.250  1.00  0.00     0.051 C 
HETATM   20  C   UNL     1      40.197 -13.957  -0.762  1.00  0.00     0.071 C 
HETATM   21  N   UNL     1      39.246 -11.709  -0.096  1.00  0.00    -0.220 N 
HETATM   22  N   UNL     1      38.623 -11.102   0.953  1.00  0.00    -0.177 NA
HETATM   23  C   UNL     1      38.814 -11.926   1.977  1.00  0.00     0.158 C 
BRANCH  21  24
HETATM   24  C   UNL     1      39.389 -11.015  -1.348  1.00  0.00     0.150 A 
HETATM   25  N   UNL     1      38.322 -10.931  -2.189  1.00  0.00    -0.241 NA
HETATM   26  C   UNL     1      38.506 -10.298  -3.369  1.00  0.00     0.119 A 
HETATM   27  C   UNL     1      39.705  -9.731  -3.763  1.00  0.00     0.019 A 
HETATM   28  C   UNL     1      40.787  -9.820  -2.898  1.00  0.00     0.005 A 
HETATM   29  C   UNL     1      40.633 -10.472  -1.675  1.00  0.00     0.052 A 
ENDBRANCH  21  24
ENDBRANCH   1  18
TORSDOF 7
ENDMDL
MODEL 10
REMARK VINA RESULT:      -7.1     19.182     21.476
REMARK  7 active torsions:
REMARK  status: ('A' for Active; 'I' for Inactive)
REMARK    1  A    between atoms: N_3  and  C_4 
REMARK    2  A    between atoms: C_12  and  C_13 
REMARK       I    between atoms: C_13  and  N_14 
REMARK    3  A    between atoms: N_14  and  C_15 
REMARK    4  A    between atoms: C_15  and  C_16 
REMARK    5  A    between atoms: C_16  and  O_17 
REMARK    6  A    between atoms: C_16  and  C_18 
REMARK    7  A    between atoms: C_21  and  O_22 
ROOT
HETATM    1  C   UNL     1      46.784 -29.201   1.698  1.00  0.00     0.255 C 
HETATM    2  N   UNL     1      45.800 -30.110   1.402  1.00  0.00    -0.350 N 
HETATM    3  O   UNL     1      46.554 -28.141   2.272  1.00  0.00    -0.268 OA
HETATM    4  H   UNL     1      46.035 -31.001   0.994  1.00  0.00     0.163 HD
ENDROOT
BRANCH   2   5
HETATM    5  C   UNL     1      44.385 -29.893   1.710  1.00  0.00     0.114 C 
HETATM    6  C   UNL     1      43.679 -31.251   1.697  1.00  0.00     0.035 C 
BRANCH   5   7
HETATM    7  C   UNL     1      43.721 -28.921   0.697  1.00  0.00     0.173 C 
BRANCH   7   8
HETATM    8  O   UNL     1      42.292 -29.043   0.756  1.00  0.00    -0.389 OA
HETATM    9  H   UNL     1      42.090 -29.506   1.589  1.00  0.00     0.210 HD
ENDBRANCH   7   8
BRANCH   7  10
HETATM   10  C   UNL     1      44.208 -29.100  -0.729  1.00  0.00    -0.028 A 
HETATM   11  C   UNL     1      43.942 -30.292  -1.415  1.00  0.00     0.012 A 
HETATM   12  C   UNL     1      44.364 -30.460  -2.737  1.00  0.00     0.037 A 
HETATM   13  C   UNL     1      45.047 -29.443  -3.403  1.00  0.00     0.068 A 
HETATM   14  C   UNL     1      45.323 -28.255  -2.728  1.00  0.00     0.037 A 
HETATM   15  C   UNL     1      44.906 -28.087  -1.401  1.00  0.00     0.012 A 
BRANCH  13  16
HETATM   16  O   UNL     1      45.393 -29.732  -4.694  1.00  0.00    -0.356 OA
HETATM   17  C   UNL     1      44.431 -30.436  -5.470  1.00  0.00     0.210 C 
ENDBRANCH  13  16
ENDBRANCH   7  10
ENDBRANCH   5   7
ENDBRANCH   2   5
BRANCH   1  18
HETATM   18  C   UNL     1      48.143 -29.586   1.342  1.00  0.00     0.075 C 
HETATM   19  C   UNL     1      48.751 -29.858   0.118  1.00  0.00     0.051 C 
HETATM   20  C   UNL     1      48.250 -29.738  -1.280  1.00  0.00     0.071 C 
HETATM   21  N   UNL     1      50.050 -30.283   0.413  1.00  0.00    -0.220 N 
HETATM   22  N   UNL     1      50.342 -30.098   1.730  1.00  0.00    -0.177 NA
HETATM   23  C   UNL     1      49.193 -29.715   2.276  1.00  0.00     0.158 C 
BRANCH  21  24
HETATM   24  C   UNL     1      51.028 -30.867  -0.466  1.00  0.00     0.150 A 
HETATM   25  N   UNL     1      51.270 -30.286  -1.673  1.00  0.00    -0.241 NA
HETATM   26  C   UNL     1      52.173 -30.882  -2.483  1.00  0.00     0.119 A 
HETATM   27  C   UNL     1      52.862 -32.036  -2.153  1.00  0.00     0.019 A 
HETATM   28  C   UNL     1      52.611 -32.620  -0.919  1.00  0.00     0.005 A 
HETATM   29  C   UNL     1      51.680 -32.034  -0.063  1.00  0.00     0.052 A 
ENDBRANCH  21  24
ENDBRANCH   1  18
TORSDOF 7
ENDMDL
