MODEL 1
REMARK VINA RESULT:      -8.4      0.000      0.000
REMARK  4 active torsions:
REMARK  status: ('A' for Active; 'I' for Inactive)
REMARK    1  A    between atoms: C_6  and  N_7 
REMARK       I    between atoms: N_7  and  C_8 
REMARK    2  A    between atoms: C_8  and  C_9 
REMARK    3  A    between atoms: C_10  and  C_11 
REMARK    4  A    between atoms: C_12  and  O_13 
ROOT
HETATM    1  C   UNL     1      42.150 -13.001   4.601  1.00  0.00     0.063 C 
HETATM    2  C   UNL     1      40.766 -12.569   4.125  1.00  0.00     0.205 C 
HETATM    3  N   UNL     1      40.103 -11.750   5.151  1.00  0.00    -0.084 N 
HETATM    4  C   UNL     1      40.733 -11.258   6.265  1.00  0.00     0.725 A 
HETATM    5  N   UNL     1      42.031 -11.555   6.479  1.00  0.00    -0.192 N 
HETATM    6  N   UNL     1      38.787 -11.450   5.165  1.00  0.00    -0.149 NA
HETATM    7  C   UNL     1      38.714 -10.707   6.275  1.00  0.00     0.275 A 
HETATM    8  N   UNL     1      39.881 -10.570   6.981  1.00  0.00    -0.054 NA
HETATM    9  C   UNL     1      42.733 -12.472   5.705  1.00  0.00     0.037 C 
HETATM   10  C   UNL     1      44.125 -12.805   6.177  1.00  0.00     0.070 C 
HETATM   11  H   UNL     1      42.471 -11.215   7.328  1.00  0.00     0.184 HD
ENDROOT
BRANCH   1  12
HETATM   12  C   UNL     1      42.786 -14.082   3.808  1.00  0.00     0.256 C 
HETATM   13  N   UNL     1      42.461 -15.332   4.298  1.00  0.00    -0.323 N 
HETATM   14  H   UNL     1      41.886 -15.353   5.128  1.00  0.00     0.169 HD
HETATM   15  O   UNL     1      43.495 -13.805   2.853  1.00  0.00    -0.267 OA
BRANCH  13  16
HETATM   16  C   UNL     1      42.843 -16.592   3.778  1.00  0.00     0.041 A 
HETATM   17  C   UNL     1      43.798 -17.358   4.483  1.00  0.00    -0.035 A 
HETATM   18  C   UNL     1      44.168 -18.624   3.992  1.00  0.00     0.015 A 
HETATM   19  C   UNL     1      44.448 -16.870   5.751  1.00  0.00     0.050 C 
HETATM   20  C   UNL     1      43.619 -19.134   2.811  1.00  0.00    -0.061 A 
HETATM   21  C   UNL     1      43.991 -20.503   2.323  1.00  0.00     0.048 C 
HETATM   22  C   UNL     1      42.672 -18.374   2.128  1.00  0.00     0.009 A 
HETATM   23  C   UNL     1      42.293 -17.114   2.603  1.00  0.00     0.030 A 
ENDBRANCH  13  16
ENDBRANCH   1  12
BRANCH   2  24
HETATM   24  C   UNL     1      40.786 -11.806   2.803  1.00  0.00     0.005 A 
HETATM   25  C   UNL     1      40.290 -12.395   1.623  1.00  0.00     0.076 A 
HETATM   26  C   UNL     1      40.323 -11.675   0.423  1.00  0.00     0.037 A 
HETATM   27  C   UNL     1      40.832 -10.375   0.387  1.00  0.00     0.003 A 
HETATM   28  C   UNL     1      41.315  -9.782   1.548  1.00  0.00     0.001 A 
HETATM   29  C   UNL     1      41.293 -10.490   2.747  1.00  0.00     0.012 A 
BRANCH  25  30
HETATM   30  O   UNL     1      39.814 -13.675   1.742  1.00  0.00    -0.355 OA
HETATM   31  C   UNL     1      40.202 -14.609   0.743  1.00  0.00     0.210 C 
ENDBRANCH  25  30
ENDBRANCH   2  24
TORSDOF 4
ENDMDL
MODEL 2
REMARK VINA RESULT:      -8.1      2.479      5.855
REMARK  4 active torsions:
REMARK  status: ('A' for Active; 'I' for Inactive)
REMARK    1  A    between atoms: C_6  and  N_7 
REMARK       I    between atoms: N_7  and  C_8 
REMARK    2  A    between atoms: C_8  and  C_9 
REMARK    3  A    between atoms: C_10  and  C_11 
REMARK    4  A    between atoms: C_12  and  O_13 
ROOT
HETATM    1  C   UNL     1      41.623 -15.805   3.691  1.00  0.00     0.063 C 
HETATM    2  C   UNL     1      41.645 -14.954   4.956  1.00  0.00     0.205 C 
HETATM    3  N   UNL     1      42.531 -15.555   5.964  1.00  0.00    -0.084 N 
HETATM    4  C   UNL     1      43.387 -16.595   5.710  1.00  0.00     0.725 A 
HETATM    5  N   UNL     1      43.415 -17.145   4.480  1.00  0.00    -0.192 N 
HETATM    6  N   UNL     1      42.555 -15.213   7.270  1.00  0.00    -0.149 NA
HETATM    7  C   UNL     1      43.508 -16.036   7.723  1.00  0.00     0.275 A 
HETATM    8  N   UNL     1      44.039 -16.902   6.802  1.00  0.00    -0.054 NA
HETATM    9  C   UNL     1      42.502 -16.816   3.484  1.00  0.00     0.037 C 
HETATM   10  C   UNL     1      42.576 -17.638   2.223  1.00  0.00     0.070 C 
HETATM   11  H   UNL     1      44.026 -17.940   4.319  1.00  0.00     0.184 HD
ENDROOT
BRANCH   1  12
HETATM   12  C   UNL     1      40.536 -15.489   2.731  1.00  0.00     0.256 C 
HETATM   13  N   UNL     1      40.948 -14.580   1.777  1.00  0.00    -0.323 N 
HETATM   14  H   UNL     1      41.889 -14.225   1.871  1.00  0.00     0.169 HD
HETATM   15  O   UNL     1      39.442 -16.018   2.850  1.00  0.00    -0.267 OA
BRANCH  13  16
HETATM   16  C   UNL     1      40.205 -14.077   0.681  1.00  0.00     0.041 A 
HETATM   17  C   UNL     1      39.798 -12.725   0.697  1.00  0.00    -0.035 A 
HETATM   18  C   UNL     1      39.081 -12.205  -0.398  1.00  0.00     0.015 A 
HETATM   19  C   UNL     1      40.100 -11.804   1.850  1.00  0.00     0.050 C 
HETATM   20  C   UNL     1      38.750 -13.005  -1.496  1.00  0.00    -0.061 A 
HETATM   21  C   UNL     1      38.024 -12.427  -2.673  1.00  0.00     0.048 C 
HETATM   22  C   UNL     1      39.163 -14.337  -1.504  1.00  0.00     0.009 A 
HETATM   23  C   UNL     1      39.876 -14.868  -0.424  1.00  0.00     0.030 A 
ENDBRANCH  13  16
ENDBRANCH   1  12
BRANCH   2  24
HETATM   24  C   UNL     1      42.063 -13.507   4.711  1.00  0.00     0.005 A 
HETATM   25  C   UNL     1      41.325 -12.439   5.259  1.00  0.00     0.076 A 
HETATM   26  C   UNL     1      41.729 -11.121   5.017  1.00  0.00     0.037 A 
HETATM   27  C   UNL     1      42.864 -10.855   4.246  1.00  0.00     0.003 A 
HETATM   28  C   UNL     1      43.604 -11.901   3.710  1.00  0.00     0.001 A 
HETATM   29  C   UNL     1      43.209 -13.217   3.939  1.00  0.00     0.012 A 
BRANCH  25  30
HETATM   30  O   UNL     1      40.223 -12.784   5.997  1.00  0.00    -0.355 OA
HETATM   31  C   UNL     1      39.151 -11.851   6.043  1.00  0.00     0.210 C 
ENDBRANCH  25  30
ENDBRANCH   2  24
TORSDOF 4
ENDMDL
MODEL 3
REMARK VINA RESULT:      -8.0      2.936      4.927
REMARK  4 active torsions:
REMARK  status: ('A' for Active; 'I' for Inactive)
REMARK    1  A    between atoms: C_6  and  N_7 
REMARK       I    between atoms: N_7  and  C_8 
REMARK    2  A    between atoms: C_8  and  C_9 
REMARK    3  A    between atoms: C_10  and  C_11 
REMARK    4  A    between atoms: C_12  and  O_13 
ROOT
HETATM    1  C   UNL     1      40.818 -13.074   0.452  1.00  0.00     0.063 C 
HETATM    2  C   UNL     1      41.330 -11.730   0.960  1.00  0.00     0.205 C 
HETATM    3  N   UNL     1      41.467 -10.779  -0.153  1.00  0.00    -0.084 N 
HETATM    4  C   UNL     1      40.981 -11.000  -1.416  1.00  0.00     0.725 A 
HETATM    5  N   UNL     1      40.367 -12.167  -1.694  1.00  0.00    -0.192 N 
HETATM    6  N   UNL     1      42.149  -9.614  -0.092  1.00  0.00    -0.149 NA
HETATM    7  C   UNL     1      41.962  -9.153  -1.334  1.00  0.00     0.275 A 
HETATM    8  N   UNL     1      41.258  -9.973  -2.177  1.00  0.00    -0.054 NA
HETATM    9  C   UNL     1      40.336 -13.235  -0.805  1.00  0.00     0.037 C 
HETATM   10  C   UNL     1      39.747 -14.518  -1.335  1.00  0.00     0.070 C 
HETATM   11  H   UNL     1      40.048 -12.331  -2.644  1.00  0.00     0.184 HD
ENDROOT
BRANCH   1  12
HETATM   12  C   UNL     1      40.940 -14.203   1.407  1.00  0.00     0.256 C 
HETATM   13  N   UNL     1      42.229 -14.698   1.447  1.00  0.00    -0.323 N 
HETATM   14  H   UNL     1      42.893 -14.274   0.816  1.00  0.00     0.169 HD
HETATM   15  O   UNL     1      39.965 -14.580   2.037  1.00  0.00    -0.267 OA
BRANCH  13  16
HETATM   16  C   UNL     1      42.732 -15.738   2.266  1.00  0.00     0.041 A 
HETATM   17  C   UNL     1      42.986 -15.470   3.629  1.00  0.00    -0.035 A 
HETATM   18  C   UNL     1      43.461 -16.501   4.461  1.00  0.00     0.015 A 
HETATM   19  C   UNL     1      42.769 -14.110   4.238  1.00  0.00     0.050 C 
HETATM   20  C   UNL     1      43.701 -17.785   3.961  1.00  0.00    -0.061 A 
HETATM   21  C   UNL     1      44.167 -18.885   4.867  1.00  0.00     0.048 C 
HETATM   22  C   UNL     1      43.440 -18.041   2.615  1.00  0.00     0.009 A 
HETATM   23  C   UNL     1      42.967 -17.027   1.776  1.00  0.00     0.030 A 
ENDBRANCH  13  16
ENDBRANCH   1  12
BRANCH   2  24
HETATM   24  C   UNL     1      40.454 -11.115   2.048  1.00  0.00     0.005 A 
HETATM   25  C   UNL     1      41.021 -10.625   3.241  1.00  0.00     0.076 A 
HETATM   26  C   UNL     1      40.195 -10.069   4.225  1.00  0.00     0.037 A 
HETATM   27  C   UNL     1      38.815  -9.983   4.028  1.00  0.00     0.003 A 
HETATM   28  C   UNL     1      38.247 -10.454   2.851  1.00  0.00     0.001 A 
HETATM   29  C   UNL     1      39.058 -11.016   1.867  1.00  0.00     0.012 A 
BRANCH  25  30
HETATM   30  O   UNL     1      42.381 -10.752   3.358  1.00  0.00    -0.355 OA
HETATM   31  C   UNL     1      42.934 -10.665   4.666  1.00  0.00     0.210 C 
ENDBRANCH  25  30
ENDBRANCH   2  24
TORSDOF 4
ENDMDL
MODEL 4
REMARK VINA RESULT:      -8.0      2.311      4.229
REMARK  4 active torsions:
REMARK  status: ('A' for Active; 'I' for Inactive)
REMARK    1  A    between atoms: C_6  and  N_7 
REMARK       I    between atoms: N_7  and  C_8 
REMARK    2  A    between atoms: C_8  and  C_9 
REMARK    3  A    between atoms: C_10  and  C_11 
REMARK    4  A    between atoms: C_12  and  O_13 
ROOT
HETATM    1  C   UNL     1      41.042 -13.574   1.529  1.00  0.00     0.063 C 
HETATM    2  C   UNL     1      41.128 -12.152   2.076  1.00  0.00     0.205 C 
HETATM    3  N   UNL     1      40.208 -11.266   1.348  1.00  0.00    -0.084 N 
HETATM    4  C   UNL     1      39.251 -11.706   0.470  1.00  0.00     0.725 A 
HETATM    5  N   UNL     1      39.146 -13.025   0.212  1.00  0.00    -0.192 N 
HETATM    6  N   UNL     1      40.242  -9.916   1.392  1.00  0.00    -0.149 NA
HETATM    7  C   UNL     1      39.224  -9.617   0.577  1.00  0.00     0.275 A 
HETATM    8  N   UNL     1      38.595 -10.683  -0.012  1.00  0.00    -0.054 NA
HETATM    9  C   UNL     1      40.066 -13.961   0.671  1.00  0.00     0.037 C 
HETATM   10  C   UNL     1      39.889 -15.367   0.160  1.00  0.00     0.070 C 
HETATM   11  H   UNL     1      38.458 -13.331  -0.470  1.00  0.00     0.184 HD
ENDROOT
BRANCH   1  12
HETATM   12  C   UNL     1      42.135 -14.484   1.952  1.00  0.00     0.256 C 
HETATM   13  N   UNL     1      41.651 -15.567   2.659  1.00  0.00    -0.323 N 
HETATM   14  H   UNL     1      40.656 -15.583   2.830  1.00  0.00     0.169 HD
HETATM   15  O   UNL     1      43.294 -14.225   1.663  1.00  0.00    -0.267 OA
BRANCH  13  16
HETATM   16  C   UNL     1      42.386 -16.658   3.182  1.00  0.00     0.041 A 
HETATM   17  C   UNL     1      42.658 -16.694   4.568  1.00  0.00    -0.035 A 
HETATM   18  C   UNL     1      43.364 -17.787   5.106  1.00  0.00     0.015 A 
HETATM   19  C   UNL     1      42.222 -15.600   5.505  1.00  0.00     0.050 C 
HETATM   20  C   UNL     1      43.816 -18.832   4.293  1.00  0.00    -0.061 A 
HETATM   21  C   UNL     1      44.530 -20.009   4.886  1.00  0.00     0.048 C 
HETATM   22  C   UNL     1      43.535 -18.790   2.928  1.00  0.00     0.009 A 
HETATM   23  C   UNL     1      42.833 -17.711   2.379  1.00  0.00     0.030 A 
ENDBRANCH  13  16
ENDBRANCH   1  12
BRANCH   2  24
HETATM   24  C   UNL     1      40.845 -12.057   3.573  1.00  0.00     0.005 A 
HETATM   25  C   UNL     1      41.748 -11.408   4.438  1.00  0.00     0.076 A 
HETATM   26  C   UNL     1      41.467 -11.337   5.808  1.00  0.00     0.037 A 
HETATM   27  C   UNL     1      40.293 -11.894   6.322  1.00  0.00     0.003 A 
HETATM   28  C   UNL     1      39.392 -12.527   5.475  1.00  0.00     0.001 A 
HETATM   29  C   UNL     1      39.663 -12.609   4.111  1.00  0.00     0.012 A 
BRANCH  25  30
HETATM   30  O   UNL     1      42.878 -10.894   3.856  1.00  0.00    -0.355 OA
HETATM   31  C   UNL     1      44.085 -11.628   4.018  1.00  0.00     0.210 C 
ENDBRANCH  25  30
ENDBRANCH   2  24
TORSDOF 4
ENDMDL
MODEL 5
REMARK VINA RESULT:      -8.0      1.978      5.641
REMARK  4 active torsions:
REMARK  status: ('A' for Active; 'I' for Inactive)
REMARK    1  A    between atoms: C_6  and  N_7 
REMARK       I    between atoms: N_7  and  C_8 
REMARK    2  A    between atoms: C_8  and  C_9 
REMARK    3  A    between atoms: C_10  and  C_11 
REMARK    4  A    between atoms: C_12  and  O_13 
ROOT
HETATM    1  C   UNL     1      41.466 -12.322   5.184  1.00  0.00     0.063 C 
HETATM    2  C   UNL     1      42.866 -12.919   5.293  1.00  0.00     0.205 C 
HETATM    3  N   UNL     1      43.688 -12.132   6.223  1.00  0.00    -0.084 N 
HETATM    4  C   UNL     1      43.193 -11.151   7.044  1.00  0.00     0.725 A 
HETATM    5  N   UNL     1      41.882 -10.843   6.993  1.00  0.00    -0.192 N 
HETATM    6  N   UNL     1      45.032 -12.221   6.328  1.00  0.00    -0.149 NA
HETATM    7  C   UNL     1      45.265 -11.320   7.289  1.00  0.00     0.275 A 
HETATM    8  N   UNL     1      44.168 -10.640   7.751  1.00  0.00    -0.054 NA
HETATM    9  C   UNL     1      41.022 -11.361   6.031  1.00  0.00     0.037 C 
HETATM   10  C   UNL     1      39.626 -10.791   6.018  1.00  0.00     0.070 C 
HETATM   11  H   UNL     1      41.539 -10.088   7.579  1.00  0.00     0.184 HD
ENDROOT
BRANCH   1  12
HETATM   12  C   UNL     1      40.648 -12.822   4.050  1.00  0.00     0.256 C 
HETATM   13  N   UNL     1      41.314 -12.693   2.847  1.00  0.00    -0.323 N 
HETATM   14  H   UNL     1      42.223 -12.254   2.881  1.00  0.00     0.169 HD
HETATM   15  O   UNL     1      39.532 -13.274   4.253  1.00  0.00    -0.267 OA
BRANCH  13  16
HETATM   16  C   UNL     1      40.871 -13.098   1.565  1.00  0.00     0.041 A 
HETATM   17  C   UNL     1      40.911 -12.166   0.504  1.00  0.00    -0.035 A 
HETATM   18  C   UNL     1      40.499 -12.563  -0.782  1.00  0.00     0.015 A 
HETATM   19  C   UNL     1      41.380 -10.747   0.694  1.00  0.00     0.050 C 
HETATM   20  C   UNL     1      40.035 -13.859  -1.029  1.00  0.00    -0.061 A 
HETATM   21  C   UNL     1      39.639 -14.280  -2.412  1.00  0.00     0.048 C 
HETATM   22  C   UNL     1      40.007 -14.773   0.023  1.00  0.00     0.009 A 
HETATM   23  C   UNL     1      40.414 -14.394   1.307  1.00  0.00     0.030 A 
ENDBRANCH  13  16
ENDBRANCH   1  12
BRANCH   2  24
HETATM   24  C   UNL     1      42.872 -14.383   5.724  1.00  0.00     0.005 A 
HETATM   25  C   UNL     1      43.089 -15.411   4.785  1.00  0.00     0.076 A 
HETATM   26  C   UNL     1      43.088 -16.746   5.206  1.00  0.00     0.037 A 
HETATM   27  C   UNL     1      42.885 -17.067   6.550  1.00  0.00     0.003 A 
HETATM   28  C   UNL     1      42.679 -16.060   7.485  1.00  0.00     0.001 A 
HETATM   29  C   UNL     1      42.673 -14.728   7.078  1.00  0.00     0.012 A 
BRANCH  25  30
HETATM   30  O   UNL     1      43.275 -15.012   3.486  1.00  0.00    -0.355 OA
HETATM   31  C   UNL     1      43.342 -16.030   2.496  1.00  0.00     0.210 C 
ENDBRANCH  25  30
ENDBRANCH   2  24
TORSDOF 4
ENDMDL
MODEL 6
REMARK VINA RESULT:      -7.5      2.946      5.980
REMARK  4 active torsions:
REMARK  status: ('A' for Active; 'I' for Inactive)
REMARK    1  A    between atoms: C_6  and  N_7 
REMARK       I    between atoms: N_7  and  C_8 
REMARK    2  A    between atoms: C_8  and  C_9 
REMARK    3  A    between atoms: C_10  and  C_11 
REMARK    4  A    between atoms: C_12  and  O_13 
ROOT
HETATM    1  C   UNL     1      41.342 -13.781   1.465  1.00  0.00     0.063 C 
HETATM    2  C   UNL     1      41.082 -12.718   0.402  1.00  0.00     0.205 C 
HETATM    3  N   UNL     1      40.286 -13.278  -0.699  1.00  0.00    -0.084 N 
HETATM    4  C   UNL     1      39.674 -14.504  -0.658  1.00  0.00     0.725 A 
HETATM    5  N   UNL     1      39.822 -15.282   0.433  1.00  0.00    -0.192 N 
HETATM    6  N   UNL     1      40.124 -12.695  -1.907  1.00  0.00    -0.149 NA
HETATM    7  C   UNL     1      39.337 -13.593  -2.511  1.00  0.00     0.275 A 
HETATM    8  N   UNL     1      39.042 -14.716  -1.784  1.00  0.00    -0.054 NA
HETATM    9  C   UNL     1      40.699 -14.974   1.467  1.00  0.00     0.037 C 
HETATM   10  C   UNL     1      40.859 -16.029   2.532  1.00  0.00     0.070 C 
HETATM   11  H   UNL     1      39.394 -16.203   0.432  1.00  0.00     0.184 HD
ENDROOT
BRANCH   1  12
HETATM   12  C   UNL     1      42.390 -13.442   2.460  1.00  0.00     0.256 C 
HETATM   13  N   UNL     1      41.847 -12.890   3.604  1.00  0.00    -0.323 N 
HETATM   14  H   UNL     1      40.847 -12.753   3.605  1.00  0.00     0.169 HD
HETATM   15  O   UNL     1      43.565 -13.660   2.209  1.00  0.00    -0.267 OA
BRANCH  13  16
HETATM   16  C   UNL     1      42.528 -12.486   4.777  1.00  0.00     0.041 A 
HETATM   17  C   UNL     1      42.597 -11.109   5.084  1.00  0.00    -0.035 A 
HETATM   18  C   UNL     1      43.248 -10.694   6.262  1.00  0.00     0.015 A 
HETATM   19  C   UNL     1      41.999 -10.052   4.194  1.00  0.00     0.050 C 
HETATM   20  C   UNL     1      43.842 -11.618   7.128  1.00  0.00    -0.061 A 
HETATM   21  C   UNL     1      44.494 -11.166   8.400  1.00  0.00     0.048 C 
HETATM   22  C   UNL     1      43.761 -12.975   6.819  1.00  0.00     0.009 A 
HETATM   23  C   UNL     1      43.117 -13.403   5.653  1.00  0.00     0.030 A 
ENDBRANCH  13  16
ENDBRANCH   1  12
BRANCH   2  24
HETATM   24  C   UNL     1      40.391 -11.470   0.945  1.00  0.00     0.005 A 
HETATM   25  C   UNL     1      40.899 -10.185   0.667  1.00  0.00     0.076 A 
HETATM   26  C   UNL     1      40.248  -9.057   1.178  1.00  0.00     0.037 A 
HETATM   27  C   UNL     1      39.092  -9.192   1.951  1.00  0.00     0.003 A 
HETATM   28  C   UNL     1      38.578 -10.454   2.222  1.00  0.00     0.001 A 
HETATM   29  C   UNL     1      39.220 -11.585   1.724  1.00  0.00     0.012 A 
BRANCH  25  30
HETATM   30  O   UNL     1      42.039 -10.139  -0.093  1.00  0.00    -0.355 OA
HETATM   31  C   UNL     1      42.058  -9.226  -1.183  1.00  0.00     0.210 C 
ENDBRANCH  25  30
ENDBRANCH   2  24
TORSDOF 4
ENDMDL
MODEL 7
REMARK VINA RESULT:      -7.4      3.146      5.343
REMARK  4 active torsions:
REMARK  status: ('A' for Active; 'I' for Inactive)
REMARK    1  A    between atoms: C_6  and  N_7 
REMARK       I    between atoms: N_7  and  C_8 
REMARK    2  A    between atoms: C_8  and  C_9 
REMARK    3  A    between atoms: C_10  and  C_11 
REMARK    4  A    between atoms: C_12  and  O_13 
ROOT
HETATM    1  C   UNL     1      40.481 -13.796   0.804  1.00  0.00     0.063 C 
HETATM    2  C   UNL     1      40.836 -12.394   0.319  1.00  0.00     0.205 C 
HETATM    3  N   UNL     1      40.802 -12.335  -1.150  1.00  0.00    -0.084 N 
HETATM    4  C   UNL     1      40.297 -13.331  -1.946  1.00  0.00     0.725 A 
HETATM    5  N   UNL     1      39.827 -14.460  -1.378  1.00  0.00    -0.192 N 
HETATM    6  N   UNL     1      41.329 -11.339  -1.894  1.00  0.00    -0.149 NA
HETATM    7  C   UNL     1      41.031 -11.767  -3.126  1.00  0.00     0.275 A 
HETATM    8  N   UNL     1      40.405 -12.984  -3.202  1.00  0.00    -0.054 NA
HETATM    9  C   UNL     1      39.972 -14.741  -0.024  1.00  0.00     0.037 C 
HETATM   10  C   UNL     1      39.534 -16.114   0.416  1.00  0.00     0.070 C 
HETATM   11  H   UNL     1      39.493 -15.203  -1.984  1.00  0.00     0.184 HD
ENDROOT
BRANCH   1  12
HETATM   12  C   UNL     1      40.789 -14.072   2.230  1.00  0.00     0.256 C 
HETATM   13  N   UNL     1      41.945 -14.815   2.367  1.00  0.00    -0.323 N 
HETATM   14  H   UNL     1      42.398 -15.103   1.511  1.00  0.00     0.169 HD
HETATM   15  O   UNL     1      40.051 -13.652   3.108  1.00  0.00    -0.267 OA
BRANCH  13  16
HETATM   16  C   UNL     1      42.570 -15.230   3.567  1.00  0.00     0.041 A 
HETATM   17  C   UNL     1      42.990 -16.573   3.687  1.00  0.00    -0.035 A 
HETATM   18  C   UNL     1      43.638 -16.993   4.864  1.00  0.00     0.015 A 
HETATM   19  C   UNL     1      42.771 -17.589   2.597  1.00  0.00     0.050 C 
HETATM   20  C   UNL     1      43.861 -16.110   5.925  1.00  0.00    -0.061 A 
HETATM   21  C   UNL     1      44.590 -16.560   7.156  1.00  0.00     0.048 C 
HETATM   22  C   UNL     1      43.449 -14.785   5.793  1.00  0.00     0.009 A 
HETATM   23  C   UNL     1      42.805 -14.352   4.629  1.00  0.00     0.030 A 
ENDBRANCH  13  16
ENDBRANCH   1  12
BRANCH   2  24
HETATM   24  C   UNL     1      39.933 -11.304   0.891  1.00  0.00     0.005 A 
HETATM   25  C   UNL     1      40.453 -10.312   1.747  1.00  0.00     0.076 A 
HETATM   26  C   UNL     1      39.603  -9.325   2.260  1.00  0.00     0.037 A 
HETATM   27  C   UNL     1      38.247  -9.308   1.923  1.00  0.00     0.003 A 
HETATM   28  C   UNL     1      37.728 -10.277   1.072  1.00  0.00     0.001 A 
HETATM   29  C   UNL     1      38.562 -11.267   0.559  1.00  0.00     0.012 A 
BRANCH  25  30
HETATM   30  O   UNL     1      41.790 -10.402   2.032  1.00  0.00    -0.355 OA
HETATM   31  C   UNL     1      42.151 -10.674   3.381  1.00  0.00     0.210 C 
ENDBRANCH  25  30
ENDBRANCH   2  24
TORSDOF 4
ENDMDL
MODEL 8
REMARK VINA RESULT:      -7.4      1.687      2.132
REMARK  4 active torsions:
REMARK  status: ('A' for Active; 'I' for Inactive)
REMARK    1  A    between atoms: C_6  and  N_7 
REMARK       I    between atoms: N_7  and  C_8 
REMARK    2  A    between atoms: C_8  and  C_9 
REMARK    3  A    between atoms: C_10  and  C_11 
REMARK    4  A    between atoms: C_12  and  O_13 
ROOT
HETATM    1  C   UNL     1      42.855 -11.449   5.570  1.00  0.00     0.063 C 
HETATM    2  C   UNL     1      41.373 -11.089   5.595  1.00  0.00     0.205 C 
HETATM    3  N   UNL     1      41.058 -10.293   6.790  1.00  0.00    -0.084 N 
HETATM    4  C   UNL     1      42.004  -9.759   7.628  1.00  0.00     0.725 A 
HETATM    5  N   UNL     1      43.309  -9.991   7.386  1.00  0.00    -0.192 N 
HETATM    6  N   UNL     1      39.811 -10.055   7.252  1.00  0.00    -0.149 NA
HETATM    7  C   UNL     1      40.084  -9.306   8.326  1.00  0.00     0.275 A 
HETATM    8  N   UNL     1      41.413  -9.105   8.594  1.00  0.00    -0.054 NA
HETATM    9  C   UNL     1      43.751 -10.882   6.414  1.00  0.00     0.037 C 
HETATM   10  C   UNL     1      45.235 -11.142   6.383  1.00  0.00     0.070 C 
HETATM   11  H   UNL     1      43.995  -9.622   8.038  1.00  0.00     0.184 HD
ENDROOT
BRANCH   1  12
HETATM   12  C   UNL     1      43.235 -12.507   4.601  1.00  0.00     0.256 C 
HETATM   13  N   UNL     1      42.701 -13.732   4.948  1.00  0.00    -0.323 N 
HETATM   14  H   UNL     1      42.171 -13.764   5.808  1.00  0.00     0.169 HD
HETATM   15  O   UNL     1      43.941 -12.234   3.642  1.00  0.00    -0.267 OA
BRANCH  13  16
HETATM   16  C   UNL     1      42.811 -14.956   4.245  1.00  0.00     0.041 A 
HETATM   17  C   UNL     1      43.444 -16.049   4.876  1.00  0.00    -0.035 A 
HETATM   18  C   UNL     1      43.537 -17.280   4.199  1.00  0.00     0.015 A 
HETATM   19  C   UNL     1      44.033 -15.953   6.259  1.00  0.00     0.050 C 
HETATM   20  C   UNL     1      43.028 -17.438   2.906  1.00  0.00    -0.061 A 
HETATM   21  C   UNL     1      43.097 -18.767   2.214  1.00  0.00     0.048 C 
HETATM   22  C   UNL     1      42.399 -16.355   2.295  1.00  0.00     0.009 A 
HETATM   23  C   UNL     1      42.298 -15.126   2.955  1.00  0.00     0.030 A 
ENDBRANCH  13  16
ENDBRANCH   1  12
BRANCH   2  24
HETATM   24  C   UNL     1      40.906 -10.340   4.349  1.00  0.00     0.005 A 
HETATM   25  C   UNL     1      40.281 -11.024   3.288  1.00  0.00     0.076 A 
HETATM   26  C   UNL     1      39.865 -10.314   2.155  1.00  0.00     0.037 A 
HETATM   27  C   UNL     1      40.053  -8.932   2.074  1.00  0.00     0.003 A 
HETATM   28  C   UNL     1      40.659  -8.248   3.119  1.00  0.00     0.001 A 
HETATM   29  C   UNL     1      41.083  -8.944   4.249  1.00  0.00     0.012 A 
BRANCH  25  30
HETATM   30  O   UNL     1      40.139 -12.379   3.444  1.00  0.00    -0.355 OA
HETATM   31  C   UNL     1      39.004 -12.988   2.842  1.00  0.00     0.210 C 
ENDBRANCH  25  30
ENDBRANCH   2  24
TORSDOF 4
ENDMDL
MODEL 9
REMARK VINA RESULT:      -7.3      1.360      2.052
REMARK  4 active torsions:
REMARK  status: ('A' for Active; 'I' for Inactive)
REMARK    1  A    between atoms: C_6  and  N_7 
REMARK       I    between atoms: N_7  and  C_8 
REMARK    2  A    between atoms: C_8  and  C_9 
REMARK    3  A    between atoms: C_10  and  C_11 
REMARK    4  A    between atoms: C_12  and  O_13 
ROOT
HETATM    1  C   UNL     1      42.230 -12.439   4.853  1.00  0.00     0.063 C 
HETATM    2  C   UNL     1      40.707 -12.350   4.883  1.00  0.00     0.205 C 
HETATM    3  N   UNL     1      40.265 -11.482   5.983  1.00  0.00    -0.084 N 
HETATM    4  C   UNL     1      41.106 -10.687   6.719  1.00  0.00     0.725 A 
HETATM    5  N   UNL     1      42.430 -10.709   6.465  1.00  0.00    -0.192 N 
HETATM    6  N   UNL     1      39.001 -11.416   6.453  1.00  0.00    -0.149 NA
HETATM    7  C   UNL     1      39.143 -10.503   7.420  1.00  0.00     0.275 A 
HETATM    8  N   UNL     1      40.416 -10.035   7.619  1.00  0.00    -0.054 NA
HETATM    9  C   UNL     1      43.016 -11.620   5.592  1.00  0.00     0.037 C 
HETATM   10  C   UNL     1      44.523 -11.612   5.545  1.00  0.00     0.070 C 
HETATM   11  H   UNL     1      43.043 -10.145   7.045  1.00  0.00     0.184 HD
ENDROOT
BRANCH   1  12
HETATM   12  C   UNL     1      42.787 -13.523   4.006  1.00  0.00     0.256 C 
HETATM   13  N   UNL     1      42.497 -14.771   4.521  1.00  0.00    -0.323 N 
HETATM   14  H   UNL     1      41.996 -14.791   5.398  1.00  0.00     0.169 HD
HETATM   15  O   UNL     1      43.413 -13.249   2.994  1.00  0.00    -0.267 OA
BRANCH  13  16
HETATM   16  C   UNL     1      42.823 -16.033   3.968  1.00  0.00     0.041 A 
HETATM   17  C   UNL     1      43.727 -16.868   4.663  1.00  0.00    -0.035 A 
HETATM   18  C   UNL     1      44.040 -18.136   4.139  1.00  0.00     0.015 A 
HETATM   19  C   UNL     1      44.378 -16.453   5.956  1.00  0.00     0.050 C 
HETATM   20  C   UNL     1      43.487 -18.582   2.935  1.00  0.00    -0.061 A 
HETATM   21  C   UNL     1      43.797 -19.952   2.411  1.00  0.00     0.048 C 
HETATM   22  C   UNL     1      42.590 -17.754   2.261  1.00  0.00     0.009 A 
HETATM   23  C   UNL     1      42.268 -16.491   2.769  1.00  0.00     0.030 A 
ENDBRANCH  13  16
ENDBRANCH   1  12
BRANCH   2  24
HETATM   24  C   UNL     1      40.099 -11.858   3.572  1.00  0.00     0.005 A 
HETATM   25  C   UNL     1      40.403 -10.576   3.071  1.00  0.00     0.076 A 
HETATM   26  C   UNL     1      39.830 -10.148   1.868  1.00  0.00     0.037 A 
HETATM   27  C   UNL     1      38.968 -10.984   1.154  1.00  0.00     0.003 A 
HETATM   28  C   UNL     1      38.670 -12.253   1.635  1.00  0.00     0.001 A 
HETATM   29  C   UNL     1      39.230 -12.689   2.833  1.00  0.00     0.012 A 
BRANCH  25  30
HETATM   30  O   UNL     1      41.252  -9.817   3.834  1.00  0.00    -0.355 OA
HETATM   31  C   UNL     1      41.002  -8.418   3.889  1.00  0.00     0.210 C 
ENDBRANCH  25  30
ENDBRANCH   2  24
TORSDOF 4
ENDMDL
MODEL 10
REMARK VINA RESULT:      -7.2     15.927     18.318
REMARK  4 active torsions:
REMARK  status: ('A' for Active; 'I' for Inactive)
REMARK    1  A    between atoms: C_6  and  N_7 
REMARK       I    between atoms: N_7  and  C_8 
REMARK    2  A    between atoms: C_8  and  C_9 
REMARK    3  A    between atoms: C_10  and  C_11 
REMARK    4  A    between atoms: C_12  and  O_13 
ROOT
HETATM    1  C   UNL     1      46.916 -29.553   0.270  1.00  0.00     0.063 C 
HETATM    2  C   UNL     1      45.870 -30.350  -0.503  1.00  0.00     0.205 C 
HETATM    3  N   UNL     1      44.642 -30.492   0.293  1.00  0.00    -0.084 N 
HETATM    4  C   UNL     1      44.398 -29.807   1.456  1.00  0.00     0.725 A 
HETATM    5  N   UNL     1      45.337 -28.971   1.942  1.00  0.00    -0.192 N 
HETATM    6  N   UNL     1      43.645 -31.362   0.024  1.00  0.00    -0.149 NA
HETATM    7  C   UNL     1      42.800 -31.087   1.024  1.00  0.00     0.275 A 
HETATM    8  N   UNL     1      43.224 -30.145   1.925  1.00  0.00    -0.054 NA
HETATM    9  C   UNL     1      46.618 -28.883   1.409  1.00  0.00     0.037 C 
HETATM   10  C   UNL     1      47.591 -28.019   2.170  1.00  0.00     0.070 C 
HETATM   11  H   UNL     1      45.157 -28.502   2.825  1.00  0.00     0.184 HD
ENDROOT
BRANCH   1  12
HETATM   12  C   UNL     1      48.294 -29.614  -0.280  1.00  0.00     0.256 C 
HETATM   13  N   UNL     1      48.888 -30.836  -0.032  1.00  0.00    -0.323 N 
HETATM   14  H   UNL     1      48.347 -31.497   0.507  1.00  0.00     0.169 HD
HETATM   15  O   UNL     1      48.762 -28.650  -0.865  1.00  0.00    -0.267 OA
BRANCH  13  16
HETATM   16  C   UNL     1      50.171 -31.273  -0.438  1.00  0.00     0.041 A 
HETATM   17  C   UNL     1      50.882 -32.166   0.394  1.00  0.00    -0.035 A 
HETATM   18  C   UNL     1      52.148 -32.630  -0.011  1.00  0.00     0.015 A 
HETATM   19  C   UNL     1      50.337 -32.648   1.712  1.00  0.00     0.050 C 
HETATM   20  C   UNL     1      52.724 -32.213  -1.215  1.00  0.00    -0.061 A 
HETATM   21  C   UNL     1      54.054 -32.748  -1.653  1.00  0.00     0.048 C 
HETATM   22  C   UNL     1      52.011 -31.337  -2.032  1.00  0.00     0.009 A 
HETATM   23  C   UNL     1      50.752 -30.868  -1.644  1.00  0.00     0.030 A 
ENDBRANCH  13  16
ENDBRANCH   1  12
BRANCH   2  24
HETATM   24  C   UNL     1      45.526 -29.749  -1.863  1.00  0.00     0.005 A 
HETATM   25  C   UNL     1      45.347 -30.572  -2.992  1.00  0.00     0.076 A 
HETATM   26  C   UNL     1      45.035 -29.995  -4.229  1.00  0.00     0.037 A 
HETATM   27  C   UNL     1      44.889 -28.611  -4.350  1.00  0.00     0.003 A 
HETATM   28  C   UNL     1      45.054 -27.791  -3.240  1.00  0.00     0.001 A 
HETATM   29  C   UNL     1      45.370 -28.353  -2.006  1.00  0.00     0.012 A 
BRANCH  25  30
HETATM   30  O   UNL     1      45.514 -31.918  -2.790  1.00  0.00    -0.355 OA
HETATM   31  C   UNL     1      44.476 -32.778  -3.243  1.00  0.00     0.210 C 
ENDBRANCH  25  30
ENDBRANCH   2  24
TORSDOF 4
ENDMDL
