MODEL 1
REMARK VINA RESULT:      -8.7      0.000      0.000
REMARK  2 active torsions:
REMARK  status: ('A' for Active; 'I' for Inactive)
REMARK    1  A    between atoms: C_9  and  O_10 
REMARK    2  A    between atoms: C_9  and  C_11 
ROOT
HETATM    1  C   UNL     1      44.096 -20.584   2.223  1.00  0.00     0.048 C 
HETATM    2  C   UNL     1      43.889 -19.975   3.580  1.00  0.00    -0.061 A 
HETATM    3  C   UNL     1      43.724 -18.589   3.720  1.00  0.00     0.020 A 
HETATM    4  C   UNL     1      43.521 -18.069   4.991  1.00  0.00     0.018 A 
HETATM    5  C   UNL     1      43.501 -18.912   6.102  1.00  0.00     0.045 A 
HETATM    6  N   UNL     1      43.315 -18.181   7.265  1.00  0.00    -0.323 N 
HETATM    7  C   UNL     1      43.192 -16.815   6.996  1.00  0.00     0.266 A 
HETATM    8  O   UNL     1      43.041 -15.963   7.858  1.00  0.00    -0.269 OA
HETATM    9  C   UNL     1      43.343 -16.632   5.442  1.00  0.00     0.199 A 
HETATM   10  C   UNL     1      43.661 -20.277   5.999  1.00  0.00     0.031 A 
HETATM   11  C   UNL     1      43.854 -20.808   4.721  1.00  0.00     0.009 A 
HETATM   12  H   UNL     1      43.265 -18.555   8.200  1.00  0.00     0.169 HD
ENDROOT
BRANCH   9  13
HETATM   13  O   UNL     1      44.522 -15.891   5.144  1.00  0.00    -0.371 OA
HETATM   14  H   UNL     1      44.258 -15.189   4.528  1.00  0.00     0.212 HD
ENDBRANCH   9  13
BRANCH   9  15
HETATM   15  C   UNL     1      42.095 -16.117   4.753  1.00  0.00     0.025 A 
HETATM   16  C   UNL     1      42.011 -15.682   3.375  1.00  0.00     0.003 A 
HETATM   17  C   UNL     1      40.691 -15.316   3.120  1.00  0.00     0.043 A 
HETATM   18  C   UNL     1      42.936 -15.577   2.311  1.00  0.00     0.014 A 
HETATM   19  C   UNL     1      40.249 -14.857   1.872  1.00  0.00     0.030 A 
HETATM   20  N   UNL     1      39.993 -15.496   4.284  1.00  0.00    -0.359 N 
HETATM   21  C   UNL     1      41.188 -14.767   0.842  1.00  0.00     0.002 A 
HETATM   22  C   UNL     1      42.515 -15.122   1.056  1.00  0.00     0.001 A 
HETATM   23  H   UNL     1      39.007 -15.299   4.387  1.00  0.00     0.166 HD
HETATM   24  C   UNL     1      40.804 -15.994   5.272  1.00  0.00     0.016 A 
HETATM   25  C   UNL     1      40.237 -16.299   6.614  1.00  0.00     0.069 C 
ENDBRANCH   9  15
TORSDOF 2
ENDMDL
MODEL 2
REMARK VINA RESULT:      -8.5      2.691      5.022
REMARK  2 active torsions:
REMARK  status: ('A' for Active; 'I' for Inactive)
REMARK    1  A    between atoms: C_9  and  O_10 
REMARK    2  A    between atoms: C_9  and  C_11 
ROOT
HETATM    1  C   UNL     1      44.655 -11.450   4.128  1.00  0.00     0.048 C 
HETATM    2  C   UNL     1      43.874 -12.417   4.971  1.00  0.00    -0.061 A 
HETATM    3  C   UNL     1      42.820 -13.157   4.414  1.00  0.00     0.020 A 
HETATM    4  C   UNL     1      42.135 -14.051   5.225  1.00  0.00     0.018 A 
HETATM    5  C   UNL     1      42.481 -14.190   6.570  1.00  0.00     0.045 A 
HETATM    6  N   UNL     1      41.651 -15.109   7.193  1.00  0.00    -0.323 N 
HETATM    7  C   UNL     1      40.714 -15.639   6.303  1.00  0.00     0.266 A 
HETATM    8  O   UNL     1      39.860 -16.452   6.618  1.00  0.00    -0.269 OA
HETATM    9  C   UNL     1      40.954 -14.949   4.910  1.00  0.00     0.199 A 
HETATM   10  C   UNL     1      43.510 -13.478   7.147  1.00  0.00     0.031 A 
HETATM   11  C   UNL     1      44.211 -12.585   6.333  1.00  0.00     0.009 A 
HETATM   12  H   UNL     1      41.694 -15.386   8.162  1.00  0.00     0.169 HD
ENDROOT
BRANCH   9  13
HETATM   13  O   UNL     1      39.831 -14.150   4.554  1.00  0.00    -0.371 OA
HETATM   14  H   UNL     1      39.279 -14.082   5.350  1.00  0.00     0.212 HD
ENDBRANCH   9  13
BRANCH   9  15
HETATM   15  C   UNL     1      41.415 -15.896   3.820  1.00  0.00     0.025 A 
HETATM   16  C   UNL     1      42.467 -16.882   3.949  1.00  0.00     0.003 A 
HETATM   17  C   UNL     1      42.562 -17.568   2.740  1.00  0.00     0.043 A 
HETATM   18  C   UNL     1      43.342 -17.267   4.990  1.00  0.00     0.014 A 
HETATM   19  C   UNL     1      43.475 -18.608   2.517  1.00  0.00     0.030 A 
HETATM   20  N   UNL     1      41.631 -17.025   1.896  1.00  0.00    -0.359 N 
HETATM   21  C   UNL     1      44.324 -18.965   3.567  1.00  0.00     0.002 A 
HETATM   22  C   UNL     1      44.261 -18.304   4.789  1.00  0.00     0.001 A 
HETATM   23  H   UNL     1      41.487 -17.329   0.943  1.00  0.00     0.166 HD
HETATM   24  C   UNL     1      40.917 -16.036   2.522  1.00  0.00     0.016 A 
HETATM   25  C   UNL     1      39.824 -15.334   1.794  1.00  0.00     0.069 C 
ENDBRANCH   9  15
TORSDOF 2
ENDMDL
MODEL 3
REMARK VINA RESULT:      -8.4     13.204     14.581
REMARK  2 active torsions:
REMARK  status: ('A' for Active; 'I' for Inactive)
REMARK    1  A    between atoms: C_9  and  O_10 
REMARK    2  A    between atoms: C_9  and  C_11 
ROOT
HETATM    1  C   UNL     1      51.287 -31.224  -2.604  1.00  0.00     0.048 C 
HETATM    2  C   UNL     1      50.654 -30.745  -1.329  1.00  0.00    -0.061 A 
HETATM    3  C   UNL     1      49.480 -29.977  -1.361  1.00  0.00     0.020 A 
HETATM    4  C   UNL     1      48.920 -29.569  -0.158  1.00  0.00     0.018 A 
HETATM    5  C   UNL     1      49.529 -29.904   1.051  1.00  0.00     0.045 A 
HETATM    6  N   UNL     1      48.820 -29.371   2.117  1.00  0.00    -0.323 N 
HETATM    7  C   UNL     1      47.699 -28.660   1.681  1.00  0.00     0.266 A 
HETATM    8  O   UNL     1      46.927 -28.080   2.429  1.00  0.00    -0.269 OA
HETATM    9  C   UNL     1      47.692 -28.721   0.110  1.00  0.00     0.199 A 
HETATM   10  C   UNL     1      50.682 -30.656   1.118  1.00  0.00     0.031 A 
HETATM   11  C   UNL     1      51.244 -31.080  -0.089  1.00  0.00     0.009 A 
HETATM   12  H   UNL     1      49.053 -29.468   3.093  1.00  0.00     0.169 HD
ENDROOT
BRANCH   9  13
HETATM   13  O   UNL     1      47.885 -27.420  -0.436  1.00  0.00    -0.371 OA
HETATM   14  H   UNL     1      47.982 -27.536  -1.395  1.00  0.00     0.212 HD
ENDBRANCH   9  13
BRANCH   9  15
HETATM   15  C   UNL     1      46.515 -29.473  -0.477  1.00  0.00     0.025 A 
HETATM   16  C   UNL     1      45.809 -29.120  -1.691  1.00  0.00     0.003 A 
HETATM   17  C   UNL     1      44.817 -30.075  -1.904  1.00  0.00     0.043 A 
HETATM   18  C   UNL     1      45.930 -28.080  -2.640  1.00  0.00     0.014 A 
HETATM   19  C   UNL     1      43.949 -30.048  -3.004  1.00  0.00     0.030 A 
HETATM   20  N   UNL     1      44.889 -30.966  -0.867  1.00  0.00    -0.359 N 
HETATM   21  C   UNL     1      44.097 -29.008  -3.924  1.00  0.00     0.002 A 
HETATM   22  C   UNL     1      45.074 -28.035  -3.747  1.00  0.00     0.001 A 
HETATM   23  H   UNL     1      44.276 -31.763  -0.763  1.00  0.00     0.166 HD
HETATM   24  C   UNL     1      45.909 -30.641  -0.009  1.00  0.00     0.016 A 
HETATM   25  C   UNL     1      46.188 -31.503   1.173  1.00  0.00     0.069 C 
ENDBRANCH   9  15
TORSDOF 2
ENDMDL
MODEL 4
REMARK VINA RESULT:      -8.2      2.939      4.110
REMARK  2 active torsions:
REMARK  status: ('A' for Active; 'I' for Inactive)
REMARK    1  A    between atoms: C_9  and  O_10 
REMARK    2  A    between atoms: C_9  and  C_11 
ROOT
HETATM    1  C   UNL     1      44.133 -19.380   5.161  1.00  0.00     0.048 C 
HETATM    2  C   UNL     1      43.569 -18.414   4.160  1.00  0.00    -0.061 A 
HETATM    3  C   UNL     1      42.552 -17.520   4.527  1.00  0.00     0.020 A 
HETATM    4  C   UNL     1      42.070 -16.633   3.574  1.00  0.00     0.018 A 
HETATM    5  C   UNL     1      42.579 -16.651   2.275  1.00  0.00     0.045 A 
HETATM    6  N   UNL     1      41.936 -15.707   1.489  1.00  0.00    -0.323 N 
HETATM    7  C   UNL     1      40.972 -15.005   2.216  1.00  0.00     0.266 A 
HETATM    8  O   UNL     1      40.258 -14.136   1.739  1.00  0.00    -0.269 OA
HETATM    9  C   UNL     1      40.973 -15.591   3.675  1.00  0.00     0.199 A 
HETATM   10  C   UNL     1      43.578 -17.515   1.882  1.00  0.00     0.031 A 
HETATM   11  C   UNL     1      44.075 -18.402   2.840  1.00  0.00     0.009 A 
HETATM   12  H   UNL     1      42.120 -15.522   0.515  1.00  0.00     0.169 HD
ENDROOT
BRANCH   9  13
HETATM   13  O   UNL     1      39.732 -16.233   3.950  1.00  0.00    -0.371 OA
HETATM   14  H   UNL     1      39.917 -17.186   3.984  1.00  0.00     0.212 HD
ENDBRANCH   9  13
BRANCH   9  15
HETATM   15  C   UNL     1      41.413 -14.607   4.739  1.00  0.00     0.025 A 
HETATM   16  C   UNL     1      42.329 -13.504   4.540  1.00  0.00     0.003 A 
HETATM   17  C   UNL     1      42.449 -12.821   5.750  1.00  0.00     0.043 A 
HETATM   18  C   UNL     1      43.061 -13.011   3.437  1.00  0.00     0.014 A 
HETATM   19  C   UNL     1      43.251 -11.684   5.913  1.00  0.00     0.030 A 
HETATM   20  N   UNL     1      41.663 -13.477   6.659  1.00  0.00    -0.359 N 
HETATM   21  C   UNL     1      43.960 -11.222   4.802  1.00  0.00     0.002 A 
HETATM   22  C   UNL     1      43.868 -11.875   3.578  1.00  0.00     0.001 A 
HETATM   23  H   UNL     1      41.567 -13.199   7.626  1.00  0.00     0.166 HD
HETATM   24  C   UNL     1      41.015 -14.537   6.077  1.00  0.00     0.016 A 
HETATM   25  C   UNL     1      40.078 -15.367   6.882  1.00  0.00     0.069 C 
ENDBRANCH   9  15
TORSDOF 2
ENDMDL
MODEL 5
REMARK VINA RESULT:      -8.0      3.280      4.993
REMARK  2 active torsions:
REMARK  status: ('A' for Active; 'I' for Inactive)
REMARK    1  A    between atoms: C_9  and  O_10 
REMARK    2  A    between atoms: C_9  and  C_11 
ROOT
HETATM    1  C   UNL     1      44.689 -18.284   4.519  1.00  0.00     0.048 C 
HETATM    2  C   UNL     1      43.542 -17.616   3.818  1.00  0.00    -0.061 A 
HETATM    3  C   UNL     1      42.983 -16.435   4.331  1.00  0.00     0.020 A 
HETATM    4  C   UNL     1      41.934 -15.843   3.642  1.00  0.00     0.018 A 
HETATM    5  C   UNL     1      41.439 -16.426   2.476  1.00  0.00     0.045 A 
HETATM    6  N   UNL     1      40.379 -15.685   1.974  1.00  0.00    -0.323 N 
HETATM    7  C   UNL     1      40.113 -14.568   2.769  1.00  0.00     0.266 A 
HETATM    8  O   UNL     1      39.213 -13.773   2.547  1.00  0.00    -0.269 OA
HETATM    9  C   UNL     1      41.128 -14.600   3.970  1.00  0.00     0.199 A 
HETATM   10  C   UNL     1      41.965 -17.584   1.945  1.00  0.00     0.031 A 
HETATM   11  C   UNL     1      43.029 -18.178   2.627  1.00  0.00     0.009 A 
HETATM   12  H   UNL     1      39.850 -15.896   1.142  1.00  0.00     0.169 HD
ENDROOT
BRANCH   9  13
HETATM   13  O   UNL     1      40.435 -14.793   5.198  1.00  0.00    -0.371 OA
HETATM   14  H   UNL     1      40.194 -13.910   5.520  1.00  0.00     0.212 HD
ENDBRANCH   9  13
BRANCH   9  15
HETATM   15  C   UNL     1      42.109 -13.445   3.984  1.00  0.00     0.025 A 
HETATM   16  C   UNL     1      42.896 -13.021   5.123  1.00  0.00     0.003 A 
HETATM   17  C   UNL     1      43.693 -11.951   4.720  1.00  0.00     0.043 A 
HETATM   18  C   UNL     1      43.017 -13.458   6.461  1.00  0.00     0.014 A 
HETATM   19  C   UNL     1      44.595 -11.302   5.573  1.00  0.00     0.030 A 
HETATM   20  N   UNL     1      43.403 -11.709   3.404  1.00  0.00    -0.359 N 
HETATM   21  C   UNL     1      44.691 -11.759   6.889  1.00  0.00     0.002 A 
HETATM   22  C   UNL     1      43.913 -12.824   7.330  1.00  0.00     0.001 A 
HETATM   23  H   UNL     1      43.833 -10.976   2.857  1.00  0.00     0.166 HD
HETATM   24  C   UNL     1      42.473 -12.601   2.932  1.00  0.00     0.016 A 
HETATM   25  C   UNL     1      42.041 -12.539   1.509  1.00  0.00     0.069 C 
ENDBRANCH   9  15
TORSDOF 2
ENDMDL
MODEL 6
REMARK VINA RESULT:      -7.8      3.251      5.228
REMARK  2 active torsions:
REMARK  status: ('A' for Active; 'I' for Inactive)
REMARK    1  A    between atoms: C_9  and  O_10 
REMARK    2  A    between atoms: C_9  and  C_11 
ROOT
HETATM    1  C   UNL     1      42.455 -17.881   2.079  1.00  0.00     0.048 C 
HETATM    2  C   UNL     1      41.669 -16.679   2.516  1.00  0.00    -0.061 A 
HETATM    3  C   UNL     1      41.573 -16.345   3.875  1.00  0.00     0.020 A 
HETATM    4  C   UNL     1      40.848 -15.217   4.234  1.00  0.00     0.018 A 
HETATM    5  C   UNL     1      40.216 -14.447   3.257  1.00  0.00     0.045 A 
HETATM    6  N   UNL     1      39.530 -13.392   3.839  1.00  0.00    -0.323 N 
HETATM    7  C   UNL     1      39.671 -13.394   5.229  1.00  0.00     0.266 A 
HETATM    8  O   UNL     1      39.143 -12.578   5.968  1.00  0.00    -0.269 OA
HETATM    9  C   UNL     1      40.554 -14.639   5.604  1.00  0.00     0.199 A 
HETATM   10  C   UNL     1      40.290 -14.746   1.914  1.00  0.00     0.031 A 
HETATM   11  C   UNL     1      41.028 -15.874   1.546  1.00  0.00     0.009 A 
HETATM   12  H   UNL     1      38.992 -12.693   3.350  1.00  0.00     0.169 HD
ENDROOT
BRANCH   9  13
HETATM   13  O   UNL     1      39.793 -15.575   6.361  1.00  0.00    -0.371 OA
HETATM   14  H   UNL     1      39.143 -15.958   5.750  1.00  0.00     0.212 HD
ENDBRANCH   9  13
BRANCH   9  15
HETATM   15  C   UNL     1      41.894 -14.287   6.218  1.00  0.00     0.025 A 
HETATM   16  C   UNL     1      42.534 -12.990   6.157  1.00  0.00     0.003 A 
HETATM   17  C   UNL     1      43.731 -13.068   6.867  1.00  0.00     0.043 A 
HETATM   18  C   UNL     1      42.201 -11.747   5.574  1.00  0.00     0.014 A 
HETATM   19  C   UNL     1      44.603 -11.982   7.024  1.00  0.00     0.030 A 
HETATM   20  N   UNL     1      43.840 -14.352   7.329  1.00  0.00    -0.359 N 
HETATM   21  C   UNL     1      44.242 -10.768   6.437  1.00  0.00     0.002 A 
HETATM   22  C   UNL     1      43.057 -10.649   5.721  1.00  0.00     0.001 A 
HETATM   23  H   UNL     1      44.621 -14.693   7.873  1.00  0.00     0.166 HD
HETATM   24  C   UNL     1      42.745 -15.098   6.973  1.00  0.00     0.016 A 
HETATM   25  C   UNL     1      42.641 -16.518   7.406  1.00  0.00     0.069 C 
ENDBRANCH   9  15
TORSDOF 2
ENDMDL
MODEL 7
REMARK VINA RESULT:      -7.7      3.077      4.653
REMARK  2 active torsions:
REMARK  status: ('A' for Active; 'I' for Inactive)
REMARK    1  A    between atoms: C_9  and  O_10 
REMARK    2  A    between atoms: C_9  and  C_11 
ROOT
HETATM    1  C   UNL     1      44.334 -16.912   7.474  1.00  0.00     0.048 C 
HETATM    2  C   UNL     1      43.758 -17.014   6.092  1.00  0.00    -0.061 A 
HETATM    3  C   UNL     1      42.704 -16.178   5.696  1.00  0.00     0.020 A 
HETATM    4  C   UNL     1      42.211 -16.295   4.403  1.00  0.00     0.018 A 
HETATM    5  C   UNL     1      42.747 -17.241   3.529  1.00  0.00     0.045 A 
HETATM    6  N   UNL     1      42.088 -17.204   2.309  1.00  0.00    -0.323 N 
HETATM    7  C   UNL     1      41.087 -16.231   2.298  1.00  0.00     0.266 A 
HETATM    8  O   UNL     1      40.353 -16.019   1.345  1.00  0.00    -0.269 OA
HETATM    9  C   UNL     1      41.078 -15.556   3.718  1.00  0.00     0.199 A 
HETATM   10  C   UNL     1      43.782 -18.078   3.886  1.00  0.00     0.031 A 
HETATM   11  C   UNL     1      44.290 -17.956   5.182  1.00  0.00     0.009 A 
HETATM   12  H   UNL     1      42.285 -17.788   1.511  1.00  0.00     0.169 HD
ENDROOT
BRANCH   9  13
HETATM   13  O   UNL     1      39.854 -15.836   4.391  1.00  0.00    -0.371 OA
HETATM   14  H   UNL     1      39.948 -16.723   4.774  1.00  0.00     0.212 HD
ENDBRANCH   9  13
BRANCH   9  15
HETATM   15  C   UNL     1      41.463 -14.091   3.712  1.00  0.00     0.025 A 
HETATM   16  C   UNL     1      40.854 -13.056   4.521  1.00  0.00     0.003 A 
HETATM   17  C   UNL     1      41.509 -11.856   4.248  1.00  0.00     0.043 A 
HETATM   18  C   UNL     1      39.811 -13.028   5.474  1.00  0.00     0.014 A 
HETATM   19  C   UNL     1      41.183 -10.644   4.870  1.00  0.00     0.030 A 
HETATM   20  N   UNL     1      42.464 -12.127   3.304  1.00  0.00    -0.359 N 
HETATM   21  C   UNL     1      40.149 -10.652   5.809  1.00  0.00     0.002 A 
HETATM   22  C   UNL     1      39.470 -11.827   6.108  1.00  0.00     0.001 A 
HETATM   23  H   UNL     1      43.086 -11.432   2.915  1.00  0.00     0.166 HD
HETATM   24  C   UNL     1      42.472 -13.460   2.981  1.00  0.00     0.016 A 
HETATM   25  C   UNL     1      43.461 -13.979   1.997  1.00  0.00     0.069 C 
ENDBRANCH   9  15
TORSDOF 2
ENDMDL
MODEL 8
REMARK VINA RESULT:      -7.5      4.637      6.290
REMARK  2 active torsions:
REMARK  status: ('A' for Active; 'I' for Inactive)
REMARK    1  A    between atoms: C_9  and  O_10 
REMARK    2  A    between atoms: C_9  and  C_11 
ROOT
HETATM    1  C   UNL     1      40.112 -16.478   6.440  1.00  0.00     0.048 C 
HETATM    2  C   UNL     1      40.897 -15.631   5.480  1.00  0.00    -0.061 A 
HETATM    3  C   UNL     1      40.714 -14.240   5.443  1.00  0.00     0.020 A 
HETATM    4  C   UNL     1      41.470 -13.494   4.550  1.00  0.00     0.018 A 
HETATM    5  C   UNL     1      42.378 -14.123   3.699  1.00  0.00     0.045 A 
HETATM    6  N   UNL     1      42.999 -13.194   2.877  1.00  0.00    -0.323 N 
HETATM    7  C   UNL     1      42.549 -11.898   3.139  1.00  0.00     0.266 A 
HETATM    8  O   UNL     1      42.930 -10.910   2.532  1.00  0.00    -0.269 OA
HETATM    9  C   UNL     1      41.466 -12.002   4.274  1.00  0.00     0.199 A 
HETATM   10  C   UNL     1      42.582 -15.486   3.709  1.00  0.00     0.031 A 
HETATM   11  C   UNL     1      41.831 -16.242   4.614  1.00  0.00     0.009 A 
HETATM   12  H   UNL     1      43.693 -13.395   2.174  1.00  0.00     0.169 HD
ENDROOT
BRANCH   9  13
HETATM   13  O   UNL     1      40.189 -11.616   3.776  1.00  0.00    -0.371 OA
HETATM   14  H   UNL     1      39.820 -10.990   4.421  1.00  0.00     0.212 HD
ENDBRANCH   9  13
BRANCH   9  15
HETATM   15  C   UNL     1      41.859 -11.325   5.571  1.00  0.00     0.025 A 
HETATM   16  C   UNL     1      43.203 -11.239   6.103  1.00  0.00     0.003 A 
HETATM   17  C   UNL     1      43.148 -10.512   7.292  1.00  0.00     0.043 A 
HETATM   18  C   UNL     1      44.468 -11.701   5.678  1.00  0.00     0.014 A 
HETATM   19  C   UNL     1      44.278 -10.225   8.068  1.00  0.00     0.030 A 
HETATM   20  N   UNL     1      41.836 -10.179   7.498  1.00  0.00    -0.359 N 
HETATM   21  C   UNL     1      45.514 -10.694   7.619  1.00  0.00     0.002 A 
HETATM   22  C   UNL     1      45.611 -11.424   6.439  1.00  0.00     0.001 A 
HETATM   23  H   UNL     1      41.505  -9.654   8.296  1.00  0.00     0.166 HD
HETATM   24  C   UNL     1      41.045 -10.635   6.473  1.00  0.00     0.016 A 
HETATM   25  C   UNL     1      39.584 -10.350   6.480  1.00  0.00     0.069 C 
ENDBRANCH   9  15
TORSDOF 2
ENDMDL
MODEL 9
REMARK VINA RESULT:      -7.5     12.896     14.196
REMARK  2 active torsions:
REMARK  status: ('A' for Active; 'I' for Inactive)
REMARK    1  A    between atoms: C_9  and  O_10 
REMARK    2  A    between atoms: C_9  and  C_11 
ROOT
HETATM    1  C   UNL     1      50.773 -30.726   0.143  1.00  0.00     0.048 C 
HETATM    2  C   UNL     1      49.569 -30.557   1.024  1.00  0.00    -0.061 A 
HETATM    3  C   UNL     1      48.420 -29.910   0.545  1.00  0.00     0.020 A 
HETATM    4  C   UNL     1      47.324 -29.790   1.388  1.00  0.00     0.018 A 
HETATM    5  C   UNL     1      47.380 -30.288   2.690  1.00  0.00     0.045 A 
HETATM    6  N   UNL     1      46.192 -30.034   3.359  1.00  0.00    -0.323 N 
HETATM    7  C   UNL     1      45.279 -29.362   2.543  1.00  0.00     0.266 A 
HETATM    8  O   UNL     1      44.170 -29.008   2.910  1.00  0.00    -0.269 OA
HETATM    9  C   UNL     1      45.981 -29.126   1.156  1.00  0.00     0.199 A 
HETATM   10  C   UNL     1      48.492 -30.929   3.192  1.00  0.00     0.031 A 
HETATM   11  C   UNL     1      49.594 -31.063   2.344  1.00  0.00     0.009 A 
HETATM   12  H   UNL     1      45.981 -30.291   4.310  1.00  0.00     0.169 HD
ENDROOT
BRANCH   9  13
HETATM   13  O   UNL     1      46.172 -27.734   0.929  1.00  0.00    -0.371 OA
HETATM   14  H   UNL     1      46.739 -27.413   1.650  1.00  0.00     0.212 HD
ENDBRANCH   9  13
BRANCH   9  15
HETATM   15  C   UNL     1      45.334 -29.861  -0.001  1.00  0.00     0.025 A 
HETATM   16  C   UNL     1      45.151 -29.336  -1.337  1.00  0.00     0.003 A 
HETATM   17  C   UNL     1      44.550 -30.327  -2.110  1.00  0.00     0.043 A 
HETATM   18  C   UNL     1      45.454 -28.109  -1.969  1.00  0.00     0.014 A 
HETATM   19  C   UNL     1      44.240 -30.161  -3.466  1.00  0.00     0.030 A 
HETATM   20  N   UNL     1      44.351 -31.407  -1.292  1.00  0.00    -0.359 N 
HETATM   21  C   UNL     1      44.554 -28.937  -4.061  1.00  0.00     0.002 A 
HETATM   22  C   UNL     1      45.154 -27.922  -3.324  1.00  0.00     0.001 A 
HETATM   23  H   UNL     1      43.921 -32.271  -1.593  1.00  0.00     0.166 HD
HETATM   24  C   UNL     1      44.829 -31.164  -0.030  1.00  0.00     0.016 A 
HETATM   25  C   UNL     1      44.747 -32.223   1.013  1.00  0.00     0.069 C 
ENDBRANCH   9  15
TORSDOF 2
ENDMDL
MODEL 10
REMARK VINA RESULT:      -7.5      3.314      6.344
REMARK  2 active torsions:
REMARK  status: ('A' for Active; 'I' for Inactive)
REMARK    1  A    between atoms: C_9  and  O_10 
REMARK    2  A    between atoms: C_9  and  C_11 
ROOT
HETATM    1  C   UNL     1      40.223 -15.329   1.017  1.00  0.00     0.048 C 
HETATM    2  C   UNL     1      39.969 -14.210   1.986  1.00  0.00    -0.061 A 
HETATM    3  C   UNL     1      40.250 -14.372   3.351  1.00  0.00     0.020 A 
HETATM    4  C   UNL     1      40.016 -13.307   4.209  1.00  0.00     0.018 A 
HETATM    5  C   UNL     1      39.493 -12.110   3.718  1.00  0.00     0.045 A 
HETATM    6  N   UNL     1      39.313 -11.200   4.749  1.00  0.00    -0.323 N 
HETATM    7  C   UNL     1      39.710 -11.732   5.978  1.00  0.00     0.266 A 
HETATM    8  O   UNL     1      39.629 -11.132   7.038  1.00  0.00    -0.269 OA
HETATM    9  C   UNL     1      40.195 -13.204   5.711  1.00  0.00     0.199 A 
HETATM   10  C   UNL     1      39.206 -11.918   2.384  1.00  0.00     0.031 A 
HETATM   11  C   UNL     1      39.452 -12.982   1.514  1.00  0.00     0.009 A 
HETATM   12  H   UNL     1      38.948 -10.264   4.657  1.00  0.00     0.169 HD
ENDROOT
BRANCH   9  13
HETATM   13  O   UNL     1      39.331 -14.134   6.357  1.00  0.00    -0.371 OA
HETATM   14  H   UNL     1      38.428 -13.797   6.240  1.00  0.00     0.212 HD
ENDBRANCH   9  13
BRANCH   9  15
HETATM   15  C   UNL     1      41.668 -13.431   5.983  1.00  0.00     0.025 A 
HETATM   16  C   UNL     1      42.276 -14.699   6.328  1.00  0.00     0.003 A 
HETATM   17  C   UNL     1      43.648 -14.494   6.465  1.00  0.00     0.043 A 
HETATM   18  C   UNL     1      41.789 -16.011   6.524  1.00  0.00     0.014 A 
HETATM   19  C   UNL     1      44.549 -15.519   6.783  1.00  0.00     0.030 A 
HETATM   20  N   UNL     1      43.879 -13.164   6.236  1.00  0.00    -0.359 N 
HETATM   21  C   UNL     1      44.035 -16.804   6.969  1.00  0.00     0.002 A 
HETATM   22  C   UNL     1      42.673 -17.049   6.842  1.00  0.00     0.001 A 
HETATM   23  H   UNL     1      44.794 -12.734   6.279  1.00  0.00     0.166 HD
HETATM   24  C   UNL     1      42.716 -12.508   5.926  1.00  0.00     0.016 A 
HETATM   25  C   UNL     1      42.745 -11.055   5.604  1.00  0.00     0.069 C 
ENDBRANCH   9  15
TORSDOF 2
ENDMDL
