MODEL 1
REMARK VINA RESULT:      -8.6      0.000      0.000
REMARK  2 active torsions:
REMARK  status: ('A' for Active; 'I' for Inactive)
REMARK    1  A    between atoms: N_9  and  N_11 
REMARK       I    between atoms: N_11  and  C_12 
REMARK    2  A    between atoms: C_12  and  C_13 
ROOT
HETATM    1  C   UNL     1      43.486 -12.314   3.224  1.00  0.00     0.033 C 
HETATM    2  C   UNL     1      41.966 -12.297   3.034  1.00  0.00     0.086 C 
HETATM    3  N   UNL     1      41.462 -13.435   2.216  1.00  0.00    -0.379 N 
HETATM    4  C   UNL     1      41.267 -13.125   0.794  1.00  0.00     0.150 C 
HETATM    5  C   UNL     1      41.957 -14.723   2.519  1.00  0.00     0.052 A 
HETATM    6  C   UNL     1      41.687 -15.324   3.780  1.00  0.00     0.040 A 
HETATM    7  N   UNL     1      40.895 -14.627   4.760  1.00  0.00    -0.246 NA
HETATM    8  C   UNL     1      41.390 -13.356   5.199  1.00  0.00     0.077 C 
HETATM    9  N   UNL     1      42.021 -13.359   6.360  1.00  0.00    -0.291 N 
HETATM   10  H   UNL     1      42.075 -14.285   6.803  1.00  0.00     0.188 HD
HETATM   11  C   UNL     1      41.196 -12.163   4.356  1.00  0.00     0.096 C 
HETATM   12  C   UNL     1      42.700 -15.484   1.602  1.00  0.00     0.031 A 
HETATM   13  C   UNL     1      43.168 -16.764   1.922  1.00  0.00     0.002 A 
HETATM   14  C   UNL     1      42.900 -17.321   3.169  1.00  0.00     0.002 A 
HETATM   15  C   UNL     1      42.160 -16.601   4.101  1.00  0.00     0.026 A 
HETATM   16  H   UNL     1      40.086 -14.405   4.163  1.00  0.00     0.135 HD
ENDROOT
BRANCH   9  17
HETATM   17  N   UNL     1      42.576 -12.334   6.985  1.00  0.00    -0.265 N 
HETATM   18  C   UNL     1      43.959 -12.322   7.075  1.00  0.00     0.270 C 
HETATM   19  O   UNL     1      44.657 -13.199   6.573  1.00  0.00    -0.266 OA
HETATM   20  H   UNL     1      42.012 -11.562   7.313  1.00  0.00     0.190 HD
BRANCH  18  21
HETATM   21  C   UNL     1      44.564 -11.164   7.785  1.00  0.00     0.033 A 
HETATM   22  C   UNL     1      43.989 -10.611   8.938  1.00  0.00     0.017 A 
HETATM   23  C   UNL     1      44.593  -9.517   9.563  1.00  0.00     0.001 A 
HETATM   24  C   UNL     1      45.772  -8.981   9.048  1.00  0.00     0.000 A 
HETATM   25  C   UNL     1      46.358  -9.540   7.913  1.00  0.00     0.001 A 
HETATM   26  C   UNL     1      45.759 -10.633   7.284  1.00  0.00     0.017 A 
ENDBRANCH  18  21
ENDBRANCH   9  17
TORSDOF 2
ENDMDL
MODEL 2
REMARK VINA RESULT:      -8.2     16.577     18.432
REMARK  2 active torsions:
REMARK  status: ('A' for Active; 'I' for Inactive)
REMARK    1  A    between atoms: N_9  and  N_11 
REMARK       I    between atoms: N_11  and  C_12 
REMARK    2  A    between atoms: C_12  and  C_13 
ROOT
HETATM    1  C   UNL     1      46.573 -31.749   1.587  1.00  0.00     0.033 C 
HETATM    2  C   UNL     1      47.384 -30.812   2.487  1.00  0.00     0.086 C 
HETATM    3  N   UNL     1      48.424 -30.041   1.750  1.00  0.00    -0.379 N 
HETATM    4  C   UNL     1      49.767 -30.633   1.792  1.00  0.00     0.150 C 
HETATM    5  C   UNL     1      48.041 -29.430   0.534  1.00  0.00     0.052 A 
HETATM    6  C   UNL     1      47.062 -28.398   0.520  1.00  0.00     0.040 A 
HETATM    7  N   UNL     1      46.457 -27.957   1.750  1.00  0.00    -0.246 NA
HETATM    8  C   UNL     1      45.753 -28.947   2.510  1.00  0.00     0.077 C 
HETATM    9  N   UNL     1      44.438 -28.941   2.378  1.00  0.00    -0.291 N 
HETATM   10  H   UNL     1      44.086 -28.217   1.739  1.00  0.00     0.188 HD
HETATM   11  C   UNL     1      46.504 -29.896   3.350  1.00  0.00     0.096 C 
HETATM   12  C   UNL     1      48.615 -29.774  -0.700  1.00  0.00     0.031 A 
HETATM   13  C   UNL     1      48.227 -29.145  -1.889  1.00  0.00     0.002 A 
HETATM   14  C   UNL     1      47.257 -28.147  -1.874  1.00  0.00     0.002 A 
HETATM   15  C   UNL     1      46.672 -27.773  -0.669  1.00  0.00     0.026 A 
HETATM   16  H   UNL     1      47.320 -27.778   2.282  1.00  0.00     0.135 HD
ENDROOT
BRANCH   9  17
HETATM   17  N   UNL     1      43.560 -29.744   2.956  1.00  0.00    -0.265 N 
HETATM   18  C   UNL     1      42.305 -29.830   2.375  1.00  0.00     0.270 C 
HETATM   19  O   UNL     1      42.012 -29.221   1.350  1.00  0.00    -0.266 OA
HETATM   20  H   UNL     1      43.827 -30.321   3.742  1.00  0.00     0.190 HD
BRANCH  18  21
HETATM   21  C   UNL     1      41.331 -30.734   3.042  1.00  0.00     0.033 A 
HETATM   22  C   UNL     1      40.600 -31.699   2.333  1.00  0.00     0.017 A 
HETATM   23  C   UNL     1      39.691 -32.518   3.006  1.00  0.00     0.001 A 
HETATM   24  C   UNL     1      39.516 -32.386   4.383  1.00  0.00     0.000 A 
HETATM   25  C   UNL     1      40.255 -31.441   5.094  1.00  0.00     0.001 A 
HETATM   26  C   UNL     1      41.164 -30.620   4.428  1.00  0.00     0.017 A 
ENDBRANCH  18  21
ENDBRANCH   9  17
TORSDOF 2
ENDMDL
MODEL 3
REMARK VINA RESULT:      -8.1      4.471      6.724
REMARK  2 active torsions:
REMARK  status: ('A' for Active; 'I' for Inactive)
REMARK    1  A    between atoms: N_9  and  N_11 
REMARK       I    between atoms: N_11  and  C_12 
REMARK    2  A    between atoms: C_12  and  C_13 
ROOT
HETATM    1  C   UNL     1      42.335 -12.670   2.656  1.00  0.00     0.033 C 
HETATM    2  C   UNL     1      40.853 -12.377   2.909  1.00  0.00     0.086 C 
HETATM    3  N   UNL     1      40.300 -11.321   2.016  1.00  0.00    -0.379 N 
HETATM    4  C   UNL     1      40.281  -9.975   2.601  1.00  0.00     0.150 C 
HETATM    5  C   UNL     1      40.610 -11.406   0.639  1.00  0.00     0.052 A 
HETATM    6  C   UNL     1      40.151 -12.505  -0.139  1.00  0.00     0.040 A 
HETATM    7  N   UNL     1      39.356 -13.540   0.468  1.00  0.00    -0.246 NA
HETATM    8  C   UNL     1      39.951 -14.250   1.561  1.00  0.00     0.077 C 
HETATM    9  N   UNL     1      40.463 -15.432   1.264  1.00  0.00    -0.291 N 
HETATM   10  H   UNL     1      40.365 -15.692   0.274  1.00  0.00     0.188 HD
HETATM   11  C   UNL     1      39.980 -13.640   2.902  1.00  0.00     0.096 C 
HETATM   12  C   UNL     1      41.343 -10.417  -0.035  1.00  0.00     0.031 A 
HETATM   13  C   UNL     1      41.626 -10.519  -1.402  1.00  0.00     0.002 A 
HETATM   14  C   UNL     1      41.176 -11.613  -2.135  1.00  0.00     0.002 A 
HETATM   15  C   UNL     1      40.438 -12.609  -1.504  1.00  0.00     0.026 A 
HETATM   16  H   UNL     1      38.639 -12.940   0.900  1.00  0.00     0.135 HD
ENDROOT
BRANCH   9  17
HETATM   17  N   UNL     1      41.071 -16.281   2.076  1.00  0.00    -0.265 N 
HETATM   18  C   UNL     1      42.442 -16.420   1.933  1.00  0.00     0.270 C 
HETATM   19  O   UNL     1      43.087 -15.767   1.117  1.00  0.00    -0.266 OA
HETATM   20  H   UNL     1      40.559 -16.747   2.813  1.00  0.00     0.190 HD
BRANCH  18  21
HETATM   21  C   UNL     1      43.107 -17.382   2.851  1.00  0.00     0.033 A 
HETATM   22  C   UNL     1      43.555 -17.010   4.127  1.00  0.00     0.017 A 
HETATM   23  C   UNL     1      44.181 -17.951   4.948  1.00  0.00     0.001 A 
HETATM   24  C   UNL     1      44.352 -19.262   4.506  1.00  0.00     0.000 A 
HETATM   25  C   UNL     1      43.890 -19.641   3.246  1.00  0.00     0.001 A 
HETATM   26  C   UNL     1      43.264 -18.706   2.421  1.00  0.00     0.017 A 
ENDBRANCH  18  21
ENDBRANCH   9  17
TORSDOF 2
ENDMDL
MODEL 4
REMARK VINA RESULT:      -8.1      3.640      7.270
REMARK  2 active torsions:
REMARK  status: ('A' for Active; 'I' for Inactive)
REMARK    1  A    between atoms: N_9  and  N_11 
REMARK       I    between atoms: N_11  and  C_12 
REMARK    2  A    between atoms: C_12  and  C_13 
ROOT
HETATM    1  C   UNL     1      43.365 -15.716   2.140  1.00  0.00     0.033 C 
HETATM    2  C   UNL     1      42.647 -17.007   2.545  1.00  0.00     0.086 C 
HETATM    3  N   UNL     1      42.929 -17.423   3.947  1.00  0.00    -0.379 N 
HETATM    4  C   UNL     1      43.998 -18.419   4.084  1.00  0.00     0.150 C 
HETATM    5  C   UNL     1      42.862 -16.427   4.947  1.00  0.00     0.052 A 
HETATM    6  C   UNL     1      41.632 -15.775   5.238  1.00  0.00     0.040 A 
HETATM    7  N   UNL     1      40.436 -16.131   4.520  1.00  0.00    -0.246 NA
HETATM    8  C   UNL     1      40.467 -15.964   3.098  1.00  0.00     0.077 C 
HETATM    9  N   UNL     1      39.886 -14.871   2.637  1.00  0.00    -0.291 N 
HETATM   10  H   UNL     1      39.480 -14.274   3.369  1.00  0.00     0.188 HD
HETATM   11  C   UNL     1      41.138 -16.971   2.257  1.00  0.00     0.096 C 
HETATM   12  C   UNL     1      43.973 -16.054   5.720  1.00  0.00     0.031 A 
HETATM   13  C   UNL     1      43.878 -15.072   6.714  1.00  0.00     0.002 A 
HETATM   14  C   UNL     1      42.664 -14.441   6.967  1.00  0.00     0.002 A 
HETATM   15  C   UNL     1      41.539 -14.791   6.228  1.00  0.00     0.026 A 
HETATM   16  H   UNL     1      40.473 -17.149   4.669  1.00  0.00     0.135 HD
ENDROOT
BRANCH   9  17
HETATM   17  N   UNL     1      39.780 -14.475   1.380  1.00  0.00    -0.265 N 
HETATM   18  C   UNL     1      40.616 -13.448   0.968  1.00  0.00     0.270 C 
HETATM   19  O   UNL     1      41.447 -12.940   1.714  1.00  0.00    -0.266 OA
HETATM   20  H   UNL     1      39.167 -14.957   0.736  1.00  0.00     0.190 HD
BRANCH  18  21
HETATM   21  C   UNL     1      40.479 -13.015  -0.448  1.00  0.00     0.033 A 
HETATM   22  C   UNL     1      40.803 -11.716  -0.866  1.00  0.00     0.017 A 
HETATM   23  C   UNL     1      40.649 -11.357  -2.207  1.00  0.00     0.001 A 
HETATM   24  C   UNL     1      40.183 -12.290  -3.132  1.00  0.00     0.000 A 
HETATM   25  C   UNL     1      39.878 -13.588  -2.724  1.00  0.00     0.001 A 
HETATM   26  C   UNL     1      40.030 -13.953  -1.386  1.00  0.00     0.017 A 
ENDBRANCH  18  21
ENDBRANCH   9  17
TORSDOF 2
ENDMDL
MODEL 5
REMARK VINA RESULT:      -8.0      3.364      7.900
REMARK  2 active torsions:
REMARK  status: ('A' for Active; 'I' for Inactive)
REMARK    1  A    between atoms: N_9  and  N_11 
REMARK       I    between atoms: N_11  and  C_12 
REMARK    2  A    between atoms: C_12  and  C_13 
ROOT
HETATM    1  C   UNL     1      39.662 -13.070   3.475  1.00  0.00     0.033 C 
HETATM    2  C   UNL     1      40.940 -12.250   3.675  1.00  0.00     0.086 C 
HETATM    3  N   UNL     1      41.680 -12.605   4.917  1.00  0.00    -0.379 N 
HETATM    4  C   UNL     1      41.392 -11.739   6.067  1.00  0.00     0.150 C 
HETATM    5  C   UNL     1      41.868 -13.978   5.193  1.00  0.00     0.052 A 
HETATM    6  C   UNL     1      42.650 -14.790   4.325  1.00  0.00     0.040 A 
HETATM    7  N   UNL     1      43.269 -14.216   3.159  1.00  0.00    -0.246 NA
HETATM    8  C   UNL     1      42.393 -13.611   2.199  1.00  0.00     0.077 C 
HETATM    9  N   UNL     1      42.108 -14.349   1.140  1.00  0.00    -0.291 N 
HETATM   10  H   UNL     1      42.559 -15.273   1.142  1.00  0.00     0.188 HD
HETATM   11  C   UNL     1      41.859 -12.260   2.444  1.00  0.00     0.096 C 
HETATM   12  C   UNL     1      41.334 -14.602   6.331  1.00  0.00     0.031 A 
HETATM   13  C   UNL     1      41.544 -15.962   6.588  1.00  0.00     0.002 A 
HETATM   14  C   UNL     1      42.303 -16.735   5.714  1.00  0.00     0.002 A 
HETATM   15  C   UNL     1      42.856 -16.150   4.580  1.00  0.00     0.026 A 
HETATM   16  H   UNL     1      43.744 -13.427   3.618  1.00  0.00     0.135 HD
ENDROOT
BRANCH   9  17
HETATM   17  N   UNL     1      41.328 -14.036   0.119  1.00  0.00    -0.265 N 
HETATM   18  C   UNL     1      40.151 -14.754  -0.019  1.00  0.00     0.270 C 
HETATM   19  O   UNL     1      39.813 -15.622   0.781  1.00  0.00    -0.266 OA
HETATM   20  H   UNL     1      41.554 -13.257  -0.485  1.00  0.00     0.190 HD
BRANCH  18  21
HETATM   21  C   UNL     1      39.289 -14.391  -1.175  1.00  0.00     0.033 A 
HETATM   22  C   UNL     1      39.062 -15.271  -2.244  1.00  0.00     0.017 A 
HETATM   23  C   UNL     1      38.251 -14.877  -3.310  1.00  0.00     0.001 A 
HETATM   24  C   UNL     1      37.658 -13.616  -3.310  1.00  0.00     0.000 A 
HETATM   25  C   UNL     1      37.865 -12.746  -2.241  1.00  0.00     0.001 A 
HETATM   26  C   UNL     1      38.674 -13.133  -1.172  1.00  0.00     0.017 A 
ENDBRANCH  18  21
ENDBRANCH   9  17
TORSDOF 2
ENDMDL
MODEL 6
REMARK VINA RESULT:      -7.9      3.262      6.802
REMARK  2 active torsions:
REMARK  status: ('A' for Active; 'I' for Inactive)
REMARK    1  A    between atoms: N_9  and  N_11 
REMARK       I    between atoms: N_11  and  C_12 
REMARK    2  A    between atoms: C_12  and  C_13 
ROOT
HETATM    1  C   UNL     1      40.250 -14.248   2.176  1.00  0.00     0.033 C 
HETATM    2  C   UNL     1      41.471 -13.372   1.883  1.00  0.00     0.086 C 
HETATM    3  N   UNL     1      41.278 -11.945   2.263  1.00  0.00    -0.379 N 
HETATM    4  C   UNL     1      40.856 -11.072   1.160  1.00  0.00     0.150 C 
HETATM    5  C   UNL     1      40.710 -11.680   3.530  1.00  0.00     0.052 A 
HETATM    6  C   UNL     1      41.393 -12.052   4.721  1.00  0.00     0.040 A 
HETATM    7  N   UNL     1      42.679 -12.696   4.647  1.00  0.00    -0.246 NA
HETATM    8  C   UNL     1      42.735 -13.939   3.939  1.00  0.00     0.077 C 
HETATM    9  N   UNL     1      42.728 -15.027   4.690  1.00  0.00    -0.291 N 
HETATM   10  H   UNL     1      42.684 -14.836   5.699  1.00  0.00     0.188 HD
HETATM   11  C   UNL     1      42.774 -13.942   2.466  1.00  0.00     0.096 C 
HETATM   12  C   UNL     1      39.481 -11.019   3.686  1.00  0.00     0.031 A 
HETATM   13  C   UNL     1      38.946 -10.757   4.953  1.00  0.00     0.002 A 
HETATM   14  C   UNL     1      39.631 -11.145   6.101  1.00  0.00     0.002 A 
HETATM   15  C   UNL     1      40.855 -11.795   5.986  1.00  0.00     0.026 A 
HETATM   16  H   UNL     1      43.147 -12.017   4.031  1.00  0.00     0.135 HD
ENDROOT
BRANCH   9  17
HETATM   17  N   UNL     1      42.765 -16.288   4.293  1.00  0.00    -0.265 N 
HETATM   18  C   UNL     1      43.814 -17.065   4.757  1.00  0.00     0.270 C 
HETATM   19  O   UNL     1      44.664 -16.630   5.529  1.00  0.00    -0.266 OA
HETATM   20  H   UNL     1      42.015 -16.677   3.737  1.00  0.00     0.190 HD
BRANCH  18  21
HETATM   21  C   UNL     1      43.840 -18.479   4.297  1.00  0.00     0.033 A 
HETATM   22  C   UNL     1      43.681 -18.829   2.948  1.00  0.00     0.017 A 
HETATM   23  C   UNL     1      43.706 -20.174   2.570  1.00  0.00     0.001 A 
HETATM   24  C   UNL     1      43.897 -21.168   3.529  1.00  0.00     0.000 A 
HETATM   25  C   UNL     1      44.076 -20.822   4.867  1.00  0.00     0.001 A 
HETATM   26  C   UNL     1      44.053 -19.481   5.252  1.00  0.00     0.017 A 
ENDBRANCH  18  21
ENDBRANCH   9  17
TORSDOF 2
ENDMDL
MODEL 7
REMARK VINA RESULT:      -7.7     16.803     18.968
REMARK  2 active torsions:
REMARK  status: ('A' for Active; 'I' for Inactive)
REMARK    1  A    between atoms: N_9  and  N_11 
REMARK       I    between atoms: N_11  and  C_12 
REMARK    2  A    between atoms: C_12  and  C_13 
ROOT
HETATM    1  C   UNL     1      46.619 -31.289   2.142  1.00  0.00     0.033 C 
HETATM    2  C   UNL     1      46.297 -30.236   3.206  1.00  0.00     0.086 C 
HETATM    3  N   UNL     1      47.167 -30.330   4.411  1.00  0.00    -0.379 N 
HETATM    4  C   UNL     1      46.587 -31.090   5.525  1.00  0.00     0.150 C 
HETATM    5  C   UNL     1      48.557 -30.482   4.200  1.00  0.00     0.052 A 
HETATM    6  C   UNL     1      49.308 -29.456   3.563  1.00  0.00     0.040 A 
HETATM    7  N   UNL     1      48.660 -28.244   3.133  1.00  0.00    -0.246 NA
HETATM    8  C   UNL     1      47.594 -28.387   2.187  1.00  0.00     0.077 C 
HETATM    9  N   UNL     1      47.910 -28.139   0.928  1.00  0.00    -0.291 N 
HETATM   10  H   UNL     1      48.893 -27.871   0.789  1.00  0.00     0.188 HD
HETATM   11  C   UNL     1      46.258 -28.807   2.645  1.00  0.00     0.096 C 
HETATM   12  C   UNL     1      49.268 -31.614   4.628  1.00  0.00     0.031 A 
HETATM   13  C   UNL     1      50.647 -31.735   4.417  1.00  0.00     0.002 A 
HETATM   14  C   UNL     1      51.354 -30.721   3.778  1.00  0.00     0.002 A 
HETATM   15  C   UNL     1      50.685 -29.580   3.348  1.00  0.00     0.026 A 
HETATM   16  H   UNL     1      48.196 -28.004   4.020  1.00  0.00     0.135 HD
ENDROOT
BRANCH   9  17
HETATM   17  N   UNL     1      47.125 -28.203  -0.135  1.00  0.00    -0.265 N 
HETATM   18  C   UNL     1      47.399 -29.194  -1.064  1.00  0.00     0.270 C 
HETATM   19  O   UNL     1      48.305 -30.007  -0.909  1.00  0.00    -0.266 OA
HETATM   20  H   UNL     1      46.319 -27.598  -0.219  1.00  0.00     0.190 HD
BRANCH  18  21
HETATM   21  C   UNL     1      46.508 -29.246  -2.254  1.00  0.00     0.033 A 
HETATM   22  C   UNL     1      46.321 -30.421  -2.996  1.00  0.00     0.017 A 
HETATM   23  C   UNL     1      45.479 -30.414  -4.110  1.00  0.00     0.001 A 
HETATM   24  C   UNL     1      44.816 -29.245  -4.480  1.00  0.00     0.000 A 
HETATM   25  C   UNL     1      44.984 -28.080  -3.733  1.00  0.00     0.001 A 
HETATM   26  C   UNL     1      45.824 -28.080  -2.619  1.00  0.00     0.017 A 
ENDBRANCH  18  21
ENDBRANCH   9  17
TORSDOF 2
ENDMDL
MODEL 8
REMARK VINA RESULT:      -7.6      5.472     10.149
REMARK  2 active torsions:
REMARK  status: ('A' for Active; 'I' for Inactive)
REMARK    1  A    between atoms: N_9  and  N_11 
REMARK       I    between atoms: N_11  and  C_12 
REMARK    2  A    between atoms: C_12  and  C_13 
ROOT
HETATM    1  C   UNL     1      43.026  -7.281  12.824  1.00  0.00     0.033 C 
HETATM    2  C   UNL     1      42.588  -8.221  13.950  1.00  0.00     0.086 C 
HETATM    3  N   UNL     1      41.430  -7.706  14.732  1.00  0.00    -0.379 N 
HETATM    4  C   UNL     1      41.794  -7.003  15.969  1.00  0.00     0.150 C 
HETATM    5  C   UNL     1      40.337  -7.182  14.006  1.00  0.00     0.052 A 
HETATM    6  C   UNL     1      39.568  -8.019  13.151  1.00  0.00     0.040 A 
HETATM    7  N   UNL     1      39.892  -9.416  13.023  1.00  0.00    -0.246 NA
HETATM    8  C   UNL     1      41.207  -9.729  12.549  1.00  0.00     0.077 C 
HETATM    9  N   UNL     1      41.294 -10.047  11.269  1.00  0.00    -0.291 N 
HETATM   10  H   UNL     1      40.394 -10.029  10.773  1.00  0.00     0.188 HD
HETATM   11  C   UNL     1      42.354  -9.662  13.473  1.00  0.00     0.096 C 
HETATM   12  C   UNL     1      39.931  -5.842  14.110  1.00  0.00     0.031 A 
HETATM   13  C   UNL     1      38.837  -5.349  13.390  1.00  0.00     0.002 A 
HETATM   14  C   UNL     1      38.111  -6.189  12.549  1.00  0.00     0.002 A 
HETATM   15  C   UNL     1      38.477  -7.525  12.428  1.00  0.00     0.026 A 
HETATM   16  H   UNL     1      39.906  -9.655  14.024  1.00  0.00     0.135 HD
ENDROOT
BRANCH   9  17
HETATM   17  N   UNL     1      42.378 -10.368  10.584  1.00  0.00    -0.265 N 
HETATM   18  C   UNL     1      42.780  -9.490   9.589  1.00  0.00     0.270 C 
HETATM   19  O   UNL     1      42.187  -8.439   9.362  1.00  0.00    -0.266 OA
HETATM   20  H   UNL     1      42.925 -11.182  10.832  1.00  0.00     0.190 HD
BRANCH  18  21
HETATM   21  C   UNL     1      43.998  -9.871   8.827  1.00  0.00     0.033 A 
HETATM   22  C   UNL     1      44.053 -11.026   8.034  1.00  0.00     0.017 A 
HETATM   23  C   UNL     1      45.226 -11.343   7.344  1.00  0.00     0.001 A 
HETATM   24  C   UNL     1      46.339 -10.507   7.434  1.00  0.00     0.000 A 
HETATM   25  C   UNL     1      46.281  -9.348   8.206  1.00  0.00     0.001 A 
HETATM   26  C   UNL     1      45.113  -9.025   8.897  1.00  0.00     0.017 A 
ENDBRANCH  18  21
ENDBRANCH   9  17
TORSDOF 2
ENDMDL
MODEL 9
REMARK VINA RESULT:      -7.4      6.494      9.248
REMARK  2 active torsions:
REMARK  status: ('A' for Active; 'I' for Inactive)
REMARK    1  A    between atoms: N_9  and  N_11 
REMARK       I    between atoms: N_11  and  C_12 
REMARK    2  A    between atoms: C_12  and  C_13 
ROOT
HETATM    1  C   UNL     1      41.372  -7.275  10.884  1.00  0.00     0.033 C 
HETATM    2  C   UNL     1      40.795  -8.623  10.441  1.00  0.00     0.086 C 
HETATM    3  N   UNL     1      41.518  -9.223   9.286  1.00  0.00    -0.379 N 
HETATM    4  C   UNL     1      40.906  -8.956   7.978  1.00  0.00     0.150 C 
HETATM    5  C   UNL     1      42.930  -9.225   9.332  1.00  0.00     0.052 A 
HETATM    6  C   UNL     1      43.620  -9.967  10.331  1.00  0.00     0.040 A 
HETATM    7  N   UNL     1      42.883 -10.734  11.302  1.00  0.00    -0.246 NA
HETATM    8  C   UNL     1      41.965 -10.009  12.130  1.00  0.00     0.077 C 
HETATM    9  N   UNL     1      42.398  -9.718  13.344  1.00  0.00    -0.291 N 
HETATM   10  H   UNL     1      43.350 -10.054  13.539  1.00  0.00     0.188 HD
HETATM   11  C   UNL     1      40.647  -9.623  11.598  1.00  0.00     0.096 C 
HETATM   12  C   UNL     1      43.720  -8.539   8.397  1.00  0.00     0.031 A 
HETATM   13  C   UNL     1      45.119  -8.567   8.457  1.00  0.00     0.002 A 
HETATM   14  C   UNL     1      45.766  -9.291   9.455  1.00  0.00     0.002 A 
HETATM   15  C   UNL     1      45.017  -9.991  10.394  1.00  0.00     0.026 A 
HETATM   16  H   UNL     1      42.289 -11.265  10.649  1.00  0.00     0.135 HD
ENDROOT
BRANCH   9  17
HETATM   17  N   UNL     1      41.761  -9.057  14.296  1.00  0.00    -0.265 N 
HETATM   18  C   UNL     1      42.230  -7.791  14.609  1.00  0.00     0.270 C 
HETATM   19  O   UNL     1      43.172  -7.274  14.015  1.00  0.00    -0.266 OA
HETATM   20  H   UNL     1      40.926  -9.439  14.720  1.00  0.00     0.190 HD
BRANCH  18  21
HETATM   21  C   UNL     1      41.504  -7.066  15.685  1.00  0.00     0.033 A 
HETATM   22  C   UNL     1      42.102  -6.762  16.916  1.00  0.00     0.017 A 
HETATM   23  C   UNL     1      41.372  -6.086  17.897  1.00  0.00     0.001 A 
HETATM   24  C   UNL     1      40.054  -5.705  17.651  1.00  0.00     0.000 A 
HETATM   25  C   UNL     1      39.462  -5.988  16.421  1.00  0.00     0.001 A 
HETATM   26  C   UNL     1      40.185  -6.663  15.437  1.00  0.00     0.017 A 
ENDBRANCH  18  21
ENDBRANCH   9  17
TORSDOF 2
ENDMDL
MODEL 10
REMARK VINA RESULT:      -7.4      2.430      7.835
REMARK  2 active torsions:
REMARK  status: ('A' for Active; 'I' for Inactive)
REMARK    1  A    between atoms: N_9  and  N_11 
REMARK       I    between atoms: N_11  and  C_12 
REMARK    2  A    between atoms: C_12  and  C_13 
ROOT
HETATM    1  C   UNL     1      41.385  -9.652   7.751  1.00  0.00     0.033 C 
HETATM    2  C   UNL     1      42.799  -9.089   7.576  1.00  0.00     0.086 C 
HETATM    3  N   UNL     1      43.301  -8.372   8.781  1.00  0.00    -0.379 N 
HETATM    4  C   UNL     1      43.121  -6.916   8.743  1.00  0.00     0.150 C 
HETATM    5  C   UNL     1      43.116  -8.999  10.035  1.00  0.00     0.052 A 
HETATM    6  C   UNL     1      43.758 -10.234  10.327  1.00  0.00     0.040 A 
HETATM    7  N   UNL     1      44.612 -10.856   9.350  1.00  0.00    -0.246 NA
HETATM    8  C   UNL     1      44.013 -11.188   8.091  1.00  0.00     0.077 C 
HETATM    9  N   UNL     1      43.663 -12.453   7.940  1.00  0.00    -0.291 N 
HETATM   10  H   UNL     1      43.870 -13.043   8.756  1.00  0.00     0.188 HD
HETATM   11  C   UNL     1      43.806 -10.137   7.079  1.00  0.00     0.096 C 
HETATM   12  C   UNL     1      42.335  -8.435  11.055  1.00  0.00     0.031 A 
HETATM   13  C   UNL     1      42.178  -9.070  12.293  1.00  0.00     0.002 A 
HETATM   14  C   UNL     1      42.807 -10.285  12.547  1.00  0.00     0.002 A 
HETATM   15  C   UNL     1      43.597 -10.870  11.563  1.00  0.00     0.026 A 
HETATM   16  H   UNL     1      45.219 -10.049   9.150  1.00  0.00     0.135 HD
ENDROOT
BRANCH   9  17
HETATM   17  N   UNL     1      43.089 -13.017   6.890  1.00  0.00    -0.265 N 
HETATM   18  C   UNL     1      42.850 -14.381   6.958  1.00  0.00     0.270 C 
HETATM   19  O   UNL     1      43.119 -15.046   7.954  1.00  0.00    -0.266 OA
HETATM   20  H   UNL     1      42.776 -12.457   6.109  1.00  0.00     0.190 HD
BRANCH  18  21
HETATM   21  C   UNL     1      42.208 -14.997   5.767  1.00  0.00     0.033 A 
HETATM   22  C   UNL     1      40.998 -15.701   5.849  1.00  0.00     0.017 A 
HETATM   23  C   UNL     1      40.442 -16.268   4.700  1.00  0.00     0.001 A 
HETATM   24  C   UNL     1      41.082 -16.128   3.470  1.00  0.00     0.000 A 
HETATM   25  C   UNL     1      42.275 -15.412   3.381  1.00  0.00     0.001 A 
HETATM   26  C   UNL     1      42.836 -14.843   4.524  1.00  0.00     0.017 A 
ENDBRANCH  18  21
ENDBRANCH   9  17
TORSDOF 2
ENDMDL
