MODEL 1
REMARK VINA RESULT:      -9.7      0.000      0.000
REMARK  8 active torsions:
REMARK  status: ('A' for Active; 'I' for Inactive)
REMARK    1  A    between atoms: C_4  and  S_5 
REMARK    2  A    between atoms: S_5  and  C_6 
REMARK    3  A    between atoms: C_6  and  C_7 
REMARK       I    between atoms: C_7  and  N_8 
REMARK    4  A    between atoms: N_8  and  C_9 
REMARK    5  A    between atoms: C_11  and  C_12 
REMARK    6  A    between atoms: C_23  and  C_24 
REMARK    7  A    between atoms: C_30  and  C_31 
REMARK       I    between atoms: C_31  and  N_32 
REMARK    8  A    between atoms: N_32  and  C_33 
ROOT
HETATM    1  C   UNL     1      43.084 -15.680   8.083  1.00  0.00     0.069 C 
HETATM    2  C   UNL     1      43.026 -14.771   6.879  1.00  0.00     0.019 C 
HETATM    3  N   UNL     1      42.748 -13.440   7.156  1.00  0.00    -0.353 N 
HETATM    4  C   UNL     1      42.870 -12.407   6.245  1.00  0.00     0.087 C 
HETATM    5  C   UNL     1      43.002 -12.706   4.932  1.00  0.00     0.055 C 
HETATM    6  C   UNL     1      42.971 -11.632   3.856  1.00  0.00     0.019 C 
HETATM    7  N   UNL     1      42.945 -10.743   2.964  1.00  0.00    -0.096 N 
HETATM    8  C   UNL     1      43.097 -14.157   4.456  1.00  0.00     0.104 C 
HETATM    9  C   UNL     1      43.244 -15.163   5.599  1.00  0.00     0.046 C 
HETATM   10  H   UNL     1      42.834 -13.153   8.130  1.00  0.00     0.166 HD
ENDROOT
BRANCH   4  11
HETATM   11  S   UNL     1      43.011 -10.765   6.835  1.00  0.00    -0.102 SA
BRANCH  11  12
HETATM   12  C   UNL     1      44.525 -10.828   7.844  1.00  0.00     0.184 C 
BRANCH  12  13
HETATM   13  C   UNL     1      44.578  -9.730   8.915  1.00  0.00     0.231 C 
HETATM   14  N   UNL     1      43.361  -9.158   9.231  1.00  0.00    -0.327 N 
HETATM   15  H   UNL     1      42.577  -9.486   8.676  1.00  0.00     0.169 HD
HETATM   16  O   UNL     1      45.657  -9.435   9.426  1.00  0.00    -0.272 OA
BRANCH  14  17
HETATM   17  C   UNL     1      43.067  -8.164  10.184  1.00  0.00     0.035 A 
HETATM   18  C   UNL     1      43.020  -8.389  11.561  1.00  0.00     0.045 A 
HETATM   19  C   UNL     1      42.701  -7.343  12.448  1.00  0.00     0.050 A 
HETATM   20  C   UNL     1      42.454  -6.060  11.937  1.00  0.00     0.016 A 
HETATM   21  C   UNL     1      42.500  -5.830  10.565  1.00  0.00     0.003 A 
HETATM   22  C   UNL     1      42.799  -6.879   9.694  1.00  0.00     0.029 A 
BRANCH  19  23
HETATM   23  C   UNL     1      42.657  -7.583  13.937  1.00  0.00     0.417 C 
HETATM   24  F   UNL     1      42.646  -8.900  14.282  1.00  0.00    -0.166 F 
HETATM   25  F   UNL     1      43.721  -7.032  14.582  1.00  0.00    -0.166 F 
HETATM   26  F   UNL     1      41.550  -7.041  14.522  1.00  0.00    -0.166 F 
ENDBRANCH  19  23
ENDBRANCH  14  17
ENDBRANCH  12  13
ENDBRANCH  11  12
ENDBRANCH   4  11
BRANCH   8  27
HETATM   27  C   UNL     1      41.932 -14.481   3.520  1.00  0.00    -0.042 A 
HETATM   28  C   UNL     1      40.612 -14.266   3.945  1.00  0.00     0.027 A 
HETATM   29  C   UNL     1      39.575 -14.571   3.080  1.00  0.00     0.116 A 
HETATM   30  N   UNL     1      39.759 -15.060   1.837  1.00  0.00    -0.273 NA
HETATM   31  C   UNL     1      41.032 -15.286   1.450  1.00  0.00     0.116 A 
HETATM   32  C   UNL     1      42.136 -15.023   2.245  1.00  0.00     0.027 A 
ENDBRANCH   8  27
BRANCH   9  33
HETATM   33  C   UNL     1      43.890 -16.496   5.339  1.00  0.00     0.255 C 
HETATM   34  N   UNL     1      43.097 -17.426   4.704  1.00  0.00    -0.323 N 
HETATM   35  H   UNL     1      42.132 -17.194   4.521  1.00  0.00     0.169 HD
HETATM   36  O   UNL     1      45.073 -16.652   5.628  1.00  0.00    -0.268 OA
BRANCH  34  37
HETATM   37  C   UNL     1      43.489 -18.699   4.233  1.00  0.00     0.035 A 
HETATM   38  C   UNL     1      43.507 -19.068   2.886  1.00  0.00     0.029 A 
HETATM   39  C   UNL     1      43.892 -20.358   2.507  1.00  0.00     0.002 A 
HETATM   40  C   UNL     1      44.253 -21.295   3.472  1.00  0.00     0.000 A 
HETATM   41  C   UNL     1      44.241 -20.939   4.817  1.00  0.00     0.002 A 
HETATM   42  C   UNL     1      43.871 -19.645   5.195  1.00  0.00     0.029 A 
ENDBRANCH  34  37
ENDBRANCH   9  33
TORSDOF 8
ENDMDL
MODEL 2
REMARK VINA RESULT:      -9.6      5.015     10.946
REMARK  8 active torsions:
REMARK  status: ('A' for Active; 'I' for Inactive)
REMARK    1  A    between atoms: C_4  and  S_5 
REMARK    2  A    between atoms: S_5  and  C_6 
REMARK    3  A    between atoms: C_6  and  C_7 
REMARK       I    between atoms: C_7  and  N_8 
REMARK    4  A    between atoms: N_8  and  C_9 
REMARK    5  A    between atoms: C_11  and  C_12 
REMARK    6  A    between atoms: C_23  and  C_24 
REMARK    7  A    between atoms: C_30  and  C_31 
REMARK       I    between atoms: C_31  and  N_32 
REMARK    8  A    between atoms: N_32  and  C_33 
ROOT
HETATM    1  C   UNL     1      45.183  -9.064   8.787  1.00  0.00     0.069 C 
HETATM    2  C   UNL     1      43.930  -9.557   8.104  1.00  0.00     0.019 C 
HETATM    3  N   UNL     1      44.133 -10.505   7.112  1.00  0.00    -0.353 N 
HETATM    4  C   UNL     1      43.129 -11.251   6.522  1.00  0.00     0.087 C 
HETATM    5  C   UNL     1      41.843 -10.872   6.701  1.00  0.00     0.055 C 
HETATM    6  C   UNL     1      40.698 -11.534   5.951  1.00  0.00     0.019 C 
HETATM    7  N   UNL     1      39.748 -12.083   5.330  1.00  0.00    -0.096 N 
HETATM    8  C   UNL     1      41.484  -9.689   7.603  1.00  0.00     0.104 C 
HETATM    9  C   UNL     1      42.671  -9.159   8.410  1.00  0.00     0.046 C 
HETATM   10  H   UNL     1      45.052 -10.945   7.087  1.00  0.00     0.166 HD
ENDROOT
BRANCH   4  11
HETATM   11  S   UNL     1      43.545 -12.741   5.703  1.00  0.00    -0.102 SA
BRANCH  11  12
HETATM   12  C   UNL     1      43.208 -14.004   6.971  1.00  0.00     0.184 C 
BRANCH  12  13
HETATM   13  C   UNL     1      42.926 -15.391   6.376  1.00  0.00     0.231 C 
HETATM   14  N   UNL     1      43.551 -15.652   5.172  1.00  0.00    -0.327 N 
HETATM   15  H   UNL     1      44.078 -14.875   4.787  1.00  0.00     0.169 HD
HETATM   16  O   UNL     1      42.196 -16.172   6.983  1.00  0.00    -0.272 OA
BRANCH  14  17
HETATM   17  C   UNL     1      43.526 -16.826   4.394  1.00  0.00     0.035 A 
HETATM   18  C   UNL     1      43.811 -18.100   4.890  1.00  0.00     0.045 A 
HETATM   19  C   UNL     1      43.782 -19.222   4.042  1.00  0.00     0.050 A 
HETATM   20  C   UNL     1      43.437 -19.055   2.693  1.00  0.00     0.016 A 
HETATM   21  C   UNL     1      43.151 -17.788   2.193  1.00  0.00     0.003 A 
HETATM   22  C   UNL     1      43.203 -16.680   3.040  1.00  0.00     0.029 A 
BRANCH  19  23
HETATM   23  C   UNL     1      44.082 -20.601   4.578  1.00  0.00     0.417 C 
HETATM   24  F   UNL     1      44.014 -21.583   3.638  1.00  0.00    -0.166 F 
HETATM   25  F   UNL     1      45.327 -20.685   5.123  1.00  0.00    -0.166 F 
HETATM   26  F   UNL     1      43.220 -20.978   5.566  1.00  0.00    -0.166 F 
ENDBRANCH  19  23
ENDBRANCH  14  17
ENDBRANCH  12  13
ENDBRANCH  11  12
ENDBRANCH   4  11
BRANCH   8  27
HETATM   27  C   UNL     1      40.781  -8.602   6.791  1.00  0.00    -0.042 A 
HETATM   28  C   UNL     1      41.479  -7.918   5.784  1.00  0.00     0.027 A 
HETATM   29  C   UNL     1      40.820  -6.935   5.064  1.00  0.00     0.116 A 
HETATM   30  N   UNL     1      39.531  -6.598   5.270  1.00  0.00    -0.273 NA
HETATM   31  C   UNL     1      38.877  -7.247   6.257  1.00  0.00     0.116 A 
HETATM   32  C   UNL     1      39.451  -8.237   7.038  1.00  0.00     0.027 A 
ENDBRANCH   8  27
BRANCH   9  33
HETATM   33  C   UNL     1      42.426  -8.424   9.699  1.00  0.00     0.255 C 
HETATM   34  N   UNL     1      42.391  -9.208  10.831  1.00  0.00    -0.323 N 
HETATM   35  H   UNL     1      42.454 -10.210  10.728  1.00  0.00     0.169 HD
HETATM   36  O   UNL     1      42.351  -7.199   9.682  1.00  0.00    -0.268 OA
BRANCH  34  37
HETATM   37  C   UNL     1      42.302  -8.765  12.170  1.00  0.00     0.035 A 
HETATM   38  C   UNL     1      43.196  -7.870  12.762  1.00  0.00     0.029 A 
HETATM   39  C   UNL     1      43.046  -7.497  14.102  1.00  0.00     0.002 A 
HETATM   40  C   UNL     1      42.007  -8.023  14.865  1.00  0.00     0.000 A 
HETATM   41  C   UNL     1      41.109  -8.914  14.285  1.00  0.00     0.002 A 
HETATM   42  C   UNL     1      41.249  -9.275  12.942  1.00  0.00     0.029 A 
ENDBRANCH  34  37
ENDBRANCH   9  33
TORSDOF 8
ENDMDL
MODEL 3
REMARK VINA RESULT:      -9.4      6.451      9.672
REMARK  8 active torsions:
REMARK  status: ('A' for Active; 'I' for Inactive)
REMARK    1  A    between atoms: C_4  and  S_5 
REMARK    2  A    between atoms: S_5  and  C_6 
REMARK    3  A    between atoms: C_6  and  C_7 
REMARK       I    between atoms: C_7  and  N_8 
REMARK    4  A    between atoms: N_8  and  C_9 
REMARK    5  A    between atoms: C_11  and  C_12 
REMARK    6  A    between atoms: C_23  and  C_24 
REMARK    7  A    between atoms: C_30  and  C_31 
REMARK       I    between atoms: C_31  and  N_32 
REMARK    8  A    between atoms: N_32  and  C_33 
ROOT
HETATM    1  C   UNL     1      40.604 -14.065   1.150  1.00  0.00     0.069 C 
HETATM    2  C   UNL     1      40.577 -13.348   2.478  1.00  0.00     0.019 C 
HETATM    3  N   UNL     1      40.024 -12.076   2.452  1.00  0.00    -0.353 N 
HETATM    4  C   UNL     1      39.694 -11.341   3.575  1.00  0.00     0.087 C 
HETATM    5  C   UNL     1      40.171 -11.736   4.778  1.00  0.00     0.055 C 
HETATM    6  C   UNL     1      39.996 -10.891   6.029  1.00  0.00     0.019 C 
HETATM    7  N   UNL     1      39.851 -10.191   7.067  1.00  0.00    -0.096 N 
HETATM    8  C   UNL     1      40.996 -13.017   4.921  1.00  0.00     0.104 C 
HETATM    9  C   UNL     1      41.022 -13.867   3.649  1.00  0.00     0.046 C 
HETATM   10  H   UNL     1      39.491 -11.831   1.618  1.00  0.00     0.166 HD
ENDROOT
BRANCH   4  11
HETATM   11  S   UNL     1      38.548 -10.026   3.425  1.00  0.00    -0.102 SA
BRANCH  11  12
HETATM   12  C   UNL     1      39.204  -9.079   2.015  1.00  0.00     0.184 C 
BRANCH  12  13
HETATM   13  C   UNL     1      39.288  -9.906   0.725  1.00  0.00     0.231 C 
HETATM   14  N   UNL     1      38.114 -10.527   0.347  1.00  0.00    -0.327 N 
HETATM   15  H   UNL     1      37.343 -10.415   0.997  1.00  0.00     0.169 HD
HETATM   16  O   UNL     1      40.352  -9.962   0.111  1.00  0.00    -0.272 OA
BRANCH  14  17
HETATM   17  C   UNL     1      37.852 -11.317  -0.790  1.00  0.00     0.035 A 
HETATM   18  C   UNL     1      38.499 -12.522  -1.071  1.00  0.00     0.045 A 
HETATM   19  C   UNL     1      38.192 -13.244  -2.239  1.00  0.00     0.050 A 
HETATM   20  C   UNL     1      37.209 -12.754  -3.112  1.00  0.00     0.016 A 
HETATM   21  C   UNL     1      36.561 -11.553  -2.836  1.00  0.00     0.003 A 
HETATM   22  C   UNL     1      36.887 -10.837  -1.684  1.00  0.00     0.029 A 
BRANCH  19  23
HETATM   23  C   UNL     1      38.884 -14.551  -2.541  1.00  0.00     0.417 C 
HETATM   24  F   UNL     1      38.286 -15.274  -3.527  1.00  0.00    -0.166 F 
HETATM   25  F   UNL     1      40.176 -14.374  -2.933  1.00  0.00    -0.166 F 
HETATM   26  F   UNL     1      38.936 -15.378  -1.458  1.00  0.00    -0.166 F 
ENDBRANCH  19  23
ENDBRANCH  14  17
ENDBRANCH  12  13
ENDBRANCH  11  12
ENDBRANCH   4  11
BRANCH   8  27
HETATM   27  C   UNL     1      42.391 -12.688   5.450  1.00  0.00    -0.042 A 
HETATM   28  C   UNL     1      43.196 -11.760   4.772  1.00  0.00     0.027 A 
HETATM   29  C   UNL     1      44.459 -11.482   5.270  1.00  0.00     0.116 A 
HETATM   30  N   UNL     1      44.963 -12.050   6.383  1.00  0.00    -0.273 NA
HETATM   31  C   UNL     1      44.189 -12.959   7.013  1.00  0.00     0.116 A 
HETATM   32  C   UNL     1      42.917 -13.312   6.588  1.00  0.00     0.027 A 
ENDBRANCH   8  27
BRANCH   9  33
HETATM   33  C   UNL     1      41.278 -15.346   3.747  1.00  0.00     0.255 C 
HETATM   34  N   UNL     1      42.549 -15.752   3.406  1.00  0.00    -0.323 N 
HETATM   35  H   UNL     1      43.196 -15.066   3.048  1.00  0.00     0.169 HD
HETATM   36  O   UNL     1      40.394 -16.076   4.185  1.00  0.00    -0.268 OA
BRANCH  34  37
HETATM   37  C   UNL     1      43.088 -17.053   3.527  1.00  0.00     0.035 A 
HETATM   38  C   UNL     1      43.755 -17.525   4.660  1.00  0.00     0.029 A 
HETATM   39  C   UNL     1      44.275 -18.822   4.690  1.00  0.00     0.002 A 
HETATM   40  C   UNL     1      44.142 -19.657   3.583  1.00  0.00     0.000 A 
HETATM   41  C   UNL     1      43.478 -19.199   2.449  1.00  0.00     0.002 A 
HETATM   42  C   UNL     1      42.944 -17.907   2.425  1.00  0.00     0.029 A 
ENDBRANCH  34  37
ENDBRANCH   9  33
TORSDOF 8
ENDMDL
MODEL 4
REMARK VINA RESULT:      -9.3      5.907     10.220
REMARK  8 active torsions:
REMARK  status: ('A' for Active; 'I' for Inactive)
REMARK    1  A    between atoms: C_4  and  S_5 
REMARK    2  A    between atoms: S_5  and  C_6 
REMARK    3  A    between atoms: C_6  and  C_7 
REMARK       I    between atoms: C_7  and  N_8 
REMARK    4  A    between atoms: N_8  and  C_9 
REMARK    5  A    between atoms: C_11  and  C_12 
REMARK    6  A    between atoms: C_23  and  C_24 
REMARK    7  A    between atoms: C_30  and  C_31 
REMARK       I    between atoms: C_31  and  N_32 
REMARK    8  A    between atoms: N_32  and  C_33 
ROOT
HETATM    1  C   UNL     1      40.024 -11.425   4.811  1.00  0.00     0.069 C 
HETATM    2  C   UNL     1      40.801 -12.668   4.449  1.00  0.00     0.019 C 
HETATM    3  N   UNL     1      40.092 -13.619   3.731  1.00  0.00    -0.353 N 
HETATM    4  C   UNL     1      40.660 -14.715   3.106  1.00  0.00     0.087 C 
HETATM    5  C   UNL     1      41.930 -15.059   3.418  1.00  0.00     0.055 C 
HETATM    6  C   UNL     1      42.565 -16.342   2.906  1.00  0.00     0.019 C 
HETATM    7  N   UNL     1      43.091 -17.405   2.482  1.00  0.00    -0.096 N 
HETATM    8  C   UNL     1      42.766 -14.213   4.382  1.00  0.00     0.104 C 
HETATM    9  C   UNL     1      42.105 -12.884   4.753  1.00  0.00     0.046 C 
HETATM   10  H   UNL     1      39.210 -13.314   3.322  1.00  0.00     0.166 HD
ENDROOT
BRANCH   4  11
HETATM   11  S   UNL     1      39.776 -15.517   1.826  1.00  0.00    -0.102 SA
BRANCH  11  12
HETATM   12  C   UNL     1      40.608 -14.913   0.323  1.00  0.00     0.184 C 
BRANCH  12  13
HETATM   13  C   UNL     1      40.209 -13.479  -0.049  1.00  0.00     0.231 C 
HETATM   14  N   UNL     1      40.740 -13.009  -1.234  1.00  0.00    -0.327 N 
HETATM   15  H   UNL     1      41.383 -13.644  -1.696  1.00  0.00     0.169 HD
HETATM   16  O   UNL     1      39.456 -12.849   0.692  1.00  0.00    -0.272 OA
BRANCH  14  17
HETATM   17  C   UNL     1      40.542 -11.766  -1.866  1.00  0.00     0.035 A 
HETATM   18  C   UNL     1      41.409 -10.679  -1.745  1.00  0.00     0.045 A 
HETATM   19  C   UNL     1      41.129  -9.463  -2.395  1.00  0.00     0.050 A 
HETATM   20  C   UNL     1      39.979  -9.358  -3.191  1.00  0.00     0.016 A 
HETATM   21  C   UNL     1      39.111 -10.439  -3.316  1.00  0.00     0.003 A 
HETATM   22  C   UNL     1      39.389 -11.634  -2.650  1.00  0.00     0.029 A 
BRANCH  19  23
HETATM   23  C   UNL     1      42.070  -8.289  -2.272  1.00  0.00     0.417 C 
HETATM   24  F   UNL     1      41.484  -7.165  -1.775  1.00  0.00    -0.166 F 
HETATM   25  F   UNL     1      43.127  -8.556  -1.457  1.00  0.00    -0.166 F 
HETATM   26  F   UNL     1      42.610  -7.923  -3.470  1.00  0.00    -0.166 F 
ENDBRANCH  19  23
ENDBRANCH  14  17
ENDBRANCH  12  13
ENDBRANCH  11  12
ENDBRANCH   4  11
BRANCH   8  27
HETATM   27  C   UNL     1      43.164 -15.043   5.601  1.00  0.00    -0.042 A 
HETATM   28  C   UNL     1      44.336 -15.815   5.570  1.00  0.00     0.027 A 
HETATM   29  C   UNL     1      44.674 -16.562   6.686  1.00  0.00     0.116 A 
HETATM   30  N   UNL     1      43.940 -16.586   7.816  1.00  0.00    -0.273 NA
HETATM   31  C   UNL     1      42.803 -15.859   7.826  1.00  0.00     0.116 A 
HETATM   32  C   UNL     1      42.375 -15.088   6.757  1.00  0.00     0.027 A 
ENDBRANCH   8  27
BRANCH   9  33
HETATM   33  C   UNL     1      42.957 -11.728   5.200  1.00  0.00     0.255 C 
HETATM   34  N   UNL     1      43.167 -11.635   6.557  1.00  0.00    -0.323 N 
HETATM   35  H   UNL     1      42.691 -12.284   7.166  1.00  0.00     0.169 HD
HETATM   36  O   UNL     1      43.464 -10.999   4.351  1.00  0.00    -0.268 OA
BRANCH  34  37
HETATM   37  C   UNL     1      44.021 -10.729   7.226  1.00  0.00     0.035 A 
HETATM   38  C   UNL     1      43.588  -9.555   7.848  1.00  0.00     0.029 A 
HETATM   39  C   UNL     1      44.504  -8.703   8.473  1.00  0.00     0.002 A 
HETATM   40  C   UNL     1      45.862  -9.011   8.474  1.00  0.00     0.000 A 
HETATM   41  C   UNL     1      46.304 -10.179   7.860  1.00  0.00     0.002 A 
HETATM   42  C   UNL     1      45.388 -11.039   7.248  1.00  0.00     0.029 A 
ENDBRANCH  34  37
ENDBRANCH   9  33
TORSDOF 8
ENDMDL
MODEL 5
REMARK VINA RESULT:      -9.3      2.761      3.739
REMARK  8 active torsions:
REMARK  status: ('A' for Active; 'I' for Inactive)
REMARK    1  A    between atoms: C_4  and  S_5 
REMARK    2  A    between atoms: S_5  and  C_6 
REMARK    3  A    between atoms: C_6  and  C_7 
REMARK       I    between atoms: C_7  and  N_8 
REMARK    4  A    between atoms: N_8  and  C_9 
REMARK    5  A    between atoms: C_11  and  C_12 
REMARK    6  A    between atoms: C_23  and  C_24 
REMARK    7  A    between atoms: C_30  and  C_31 
REMARK       I    between atoms: C_31  and  N_32 
REMARK    8  A    between atoms: N_32  and  C_33 
ROOT
HETATM    1  C   UNL     1      39.908 -13.708   5.303  1.00  0.00     0.069 C 
HETATM    2  C   UNL     1      40.297 -12.946   4.059  1.00  0.00     0.019 C 
HETATM    3  N   UNL     1      40.269 -11.565   4.178  1.00  0.00    -0.353 N 
HETATM    4  C   UNL     1      40.798 -10.686   3.251  1.00  0.00     0.087 C 
HETATM    5  C   UNL     1      41.125 -11.150   2.023  1.00  0.00     0.055 C 
HETATM    6  C   UNL     1      41.550 -10.220   0.899  1.00  0.00     0.019 C 
HETATM    7  N   UNL     1      41.903  -9.449  -0.034  1.00  0.00    -0.096 N 
HETATM    8  C   UNL     1      40.993 -12.635   1.678  1.00  0.00     0.104 C 
HETATM    9  C   UNL     1      40.679 -13.515   2.889  1.00  0.00     0.046 C 
HETATM   10  H   UNL     1      40.216 -11.193   5.126  1.00  0.00     0.166 HD
ENDROOT
BRANCH   4  11
HETATM   11  S   UNL     1      41.173  -9.050   3.747  1.00  0.00    -0.102 SA
BRANCH  11  12
HETATM   12  C   UNL     1      40.586  -9.008   5.471  1.00  0.00     0.184 C 
BRANCH  12  13
HETATM   13  C   UNL     1      41.605  -9.581   6.465  1.00  0.00     0.231 C 
HETATM   14  N   UNL     1      41.931  -8.749   7.519  1.00  0.00    -0.327 N 
HETATM   15  H   UNL     1      41.505  -7.829   7.484  1.00  0.00     0.169 HD
HETATM   16  O   UNL     1      42.054 -10.712   6.287  1.00  0.00    -0.272 OA
BRANCH  14  17
HETATM   17  C   UNL     1      42.794  -8.989   8.606  1.00  0.00     0.035 A 
HETATM   18  C   UNL     1      42.367  -9.403   9.869  1.00  0.00     0.045 A 
HETATM   19  C   UNL     1      43.293  -9.603  10.909  1.00  0.00     0.050 A 
HETATM   20  C   UNL     1      44.660  -9.407  10.659  1.00  0.00     0.016 A 
HETATM   21  C   UNL     1      45.091  -8.995   9.402  1.00  0.00     0.003 A 
HETATM   22  C   UNL     1      44.161  -8.780   8.384  1.00  0.00     0.029 A 
BRANCH  19  23
HETATM   23  C   UNL     1      42.834 -10.059  12.273  1.00  0.00     0.417 C 
HETATM   24  F   UNL     1      41.490 -10.253  12.363  1.00  0.00    -0.166 F 
HETATM   25  F   UNL     1      43.412 -11.233  12.648  1.00  0.00    -0.166 F 
HETATM   26  F   UNL     1      43.143  -9.164  13.255  1.00  0.00    -0.166 F 
ENDBRANCH  19  23
ENDBRANCH  14  17
ENDBRANCH  12  13
ENDBRANCH  11  12
ENDBRANCH   4  11
BRANCH   8  27
HETATM   27  C   UNL     1      40.001 -12.822   0.530  1.00  0.00    -0.042 A 
HETATM   28  C   UNL     1      40.232 -13.808  -0.442  1.00  0.00     0.027 A 
HETATM   29  C   UNL     1      39.320 -13.955  -1.474  1.00  0.00     0.116 A 
HETATM   30  N   UNL     1      38.208 -13.205  -1.598  1.00  0.00    -0.273 NA
HETATM   31  C   UNL     1      38.009 -12.244  -0.671  1.00  0.00     0.116 A 
HETATM   32  C   UNL     1      38.866 -12.012   0.392  1.00  0.00     0.027 A 
ENDBRANCH   8  27
BRANCH   9  33
HETATM   33  C   UNL     1      41.055 -14.972   2.868  1.00  0.00     0.255 C 
HETATM   34  N   UNL     1      42.376 -15.248   3.138  1.00  0.00    -0.323 N 
HETATM   35  H   UNL     1      43.017 -14.477   3.257  1.00  0.00     0.169 HD
HETATM   36  O   UNL     1      40.176 -15.811   2.695  1.00  0.00    -0.268 OA
BRANCH  34  37
HETATM   37  C   UNL     1      42.963 -16.523   3.303  1.00  0.00     0.035 A 
HETATM   38  C   UNL     1      43.062 -17.479   2.290  1.00  0.00     0.029 A 
HETATM   39  C   UNL     1      43.643 -18.726   2.543  1.00  0.00     0.002 A 
HETATM   40  C   UNL     1      44.119 -19.033   3.815  1.00  0.00     0.000 A 
HETATM   41  C   UNL     1      44.028 -18.087   4.832  1.00  0.00     0.002 A 
HETATM   42  C   UNL     1      43.462 -16.835   4.575  1.00  0.00     0.029 A 
ENDBRANCH  34  37
ENDBRANCH   9  33
TORSDOF 8
ENDMDL
MODEL 6
REMARK VINA RESULT:      -9.2      3.026      4.547
REMARK  8 active torsions:
REMARK  status: ('A' for Active; 'I' for Inactive)
REMARK    1  A    between atoms: C_4  and  S_5 
REMARK    2  A    between atoms: S_5  and  C_6 
REMARK    3  A    between atoms: C_6  and  C_7 
REMARK       I    between atoms: C_7  and  N_8 
REMARK    4  A    between atoms: N_8  and  C_9 
REMARK    5  A    between atoms: C_11  and  C_12 
REMARK    6  A    between atoms: C_23  and  C_24 
REMARK    7  A    between atoms: C_30  and  C_31 
REMARK       I    between atoms: C_31  and  N_32 
REMARK    8  A    between atoms: N_32  and  C_33 
ROOT
HETATM    1  C   UNL     1      41.018 -13.460   0.849  1.00  0.00     0.069 C 
HETATM    2  C   UNL     1      40.733 -13.058   2.276  1.00  0.00     0.019 C 
HETATM    3  N   UNL     1      40.205 -11.786   2.437  1.00  0.00    -0.353 N 
HETATM    4  C   UNL     1      39.664 -11.304   3.616  1.00  0.00     0.087 C 
HETATM    5  C   UNL     1      39.892 -11.982   4.764  1.00  0.00     0.055 C 
HETATM    6  C   UNL     1      39.478 -11.431   6.118  1.00  0.00     0.019 C 
HETATM    7  N   UNL     1      39.136 -10.974   7.242  1.00  0.00    -0.096 N 
HETATM    8  C   UNL     1      40.664 -13.304   4.763  1.00  0.00     0.104 C 
HETATM    9  C   UNL     1      40.935 -13.848   3.359  1.00  0.00     0.046 C 
HETATM   10  H   UNL     1      39.849 -11.334   1.596  1.00  0.00     0.166 HD
ENDROOT
BRANCH   4  11
HETATM   11  S   UNL     1      38.579  -9.933   3.555  1.00  0.00    -0.102 SA
BRANCH  11  12
HETATM   12  C   UNL     1      39.708  -8.517   3.749  1.00  0.00     0.184 C 
BRANCH  12  13
HETATM   13  C   UNL     1      39.955  -8.144   5.217  1.00  0.00     0.231 C 
HETATM   14  N   UNL     1      41.258  -8.296   5.651  1.00  0.00    -0.327 N 
HETATM   15  H   UNL     1      41.892  -8.695   4.967  1.00  0.00     0.169 HD
HETATM   16  O   UNL     1      39.020  -7.733   5.902  1.00  0.00    -0.272 OA
BRANCH  14  17
HETATM   17  C   UNL     1      41.812  -8.011   6.914  1.00  0.00     0.035 A 
HETATM   18  C   UNL     1      42.210  -8.984   7.833  1.00  0.00     0.045 A 
HETATM   19  C   UNL     1      42.740  -8.615   9.083  1.00  0.00     0.050 A 
HETATM   20  C   UNL     1      42.890  -7.255   9.392  1.00  0.00     0.016 A 
HETATM   21  C   UNL     1      42.496  -6.281   8.479  1.00  0.00     0.003 A 
HETATM   22  C   UNL     1      41.954  -6.659   7.250  1.00  0.00     0.029 A 
BRANCH  19  23
HETATM   23  C   UNL     1      43.177  -9.666  10.075  1.00  0.00     0.417 C 
HETATM   24  F   UNL     1      42.175 -10.109  10.883  1.00  0.00    -0.166 F 
HETATM   25  F   UNL     1      43.689 -10.771   9.467  1.00  0.00    -0.166 F 
HETATM   26  F   UNL     1      44.156  -9.219  10.914  1.00  0.00    -0.166 F 
ENDBRANCH  19  23
ENDBRANCH  14  17
ENDBRANCH  12  13
ENDBRANCH  11  12
ENDBRANCH   4  11
BRANCH   8  27
HETATM   27  C   UNL     1      41.930 -13.174   5.610  1.00  0.00    -0.042 A 
HETATM   28  C   UNL     1      42.764 -12.056   5.455  1.00  0.00     0.027 A 
HETATM   29  C   UNL     1      43.907 -11.964   6.232  1.00  0.00     0.116 A 
HETATM   30  N   UNL     1      44.266 -12.890   7.143  1.00  0.00    -0.273 NA
HETATM   31  C   UNL     1      43.469 -13.972   7.265  1.00  0.00     0.116 A 
HETATM   32  C   UNL     1      42.310 -14.161   6.528  1.00  0.00     0.027 A 
ENDBRANCH   8  27
BRANCH   9  33
HETATM   33  C   UNL     1      41.158 -15.323   3.163  1.00  0.00     0.255 C 
HETATM   34  N   UNL     1      42.470 -15.737   3.210  1.00  0.00    -0.323 N 
HETATM   35  H   UNL     1      43.194 -15.039   3.296  1.00  0.00     0.169 HD
HETATM   36  O   UNL     1      40.184 -16.062   3.052  1.00  0.00    -0.268 OA
BRANCH  34  37
HETATM   37  C   UNL     1      42.944 -17.067   3.181  1.00  0.00     0.035 A 
HETATM   38  C   UNL     1      42.749 -17.947   2.114  1.00  0.00     0.029 A 
HETATM   39  C   UNL     1      43.237 -19.256   2.173  1.00  0.00     0.002 A 
HETATM   40  C   UNL     1      43.915 -19.702   3.305  1.00  0.00     0.000 A 
HETATM   41  C   UNL     1      44.117 -18.834   4.374  1.00  0.00     0.002 A 
HETATM   42  C   UNL     1      43.643 -17.520   4.308  1.00  0.00     0.029 A 
ENDBRANCH  34  37
ENDBRANCH   9  33
TORSDOF 8
ENDMDL
MODEL 7
REMARK VINA RESULT:      -9.1      3.386      5.043
REMARK  8 active torsions:
REMARK  status: ('A' for Active; 'I' for Inactive)
REMARK    1  A    between atoms: C_4  and  S_5 
REMARK    2  A    between atoms: S_5  and  C_6 
REMARK    3  A    between atoms: C_6  and  C_7 
REMARK       I    between atoms: C_7  and  N_8 
REMARK    4  A    between atoms: N_8  and  C_9 
REMARK    5  A    between atoms: C_11  and  C_12 
REMARK    6  A    between atoms: C_23  and  C_24 
REMARK    7  A    between atoms: C_30  and  C_31 
REMARK       I    between atoms: C_31  and  N_32 
REMARK    8  A    between atoms: N_32  and  C_33 
ROOT
HETATM    1  C   UNL     1      39.594 -13.479   4.187  1.00  0.00     0.069 C 
HETATM    2  C   UNL     1      40.015 -12.819   2.896  1.00  0.00     0.019 C 
HETATM    3  N   UNL     1      39.885 -11.438   2.868  1.00  0.00    -0.353 N 
HETATM    4  C   UNL     1      40.415 -10.619   1.888  1.00  0.00     0.087 C 
HETATM    5  C   UNL     1      40.856 -11.179   0.738  1.00  0.00     0.055 C 
HETATM    6  C   UNL     1      41.293 -10.337  -0.450  1.00  0.00     0.019 C 
HETATM    7  N   UNL     1      41.656  -9.639  -1.435  1.00  0.00    -0.096 N 
HETATM    8  C   UNL     1      40.849 -12.697   0.542  1.00  0.00     0.104 C 
HETATM    9  C   UNL     1      40.514 -13.472   1.818  1.00  0.00     0.046 C 
HETATM   10  H   UNL     1      39.742 -10.979   3.767  1.00  0.00     0.166 HD
ENDROOT
BRANCH   4  11
HETATM   11  S   UNL     1      40.643  -8.919   2.232  1.00  0.00    -0.102 SA
BRANCH  11  12
HETATM   12  C   UNL     1      40.172  -8.796   3.987  1.00  0.00     0.184 C 
BRANCH  12  13
HETATM   13  C   UNL     1      41.379  -8.812   4.935  1.00  0.00     0.231 C 
HETATM   14  N   UNL     1      41.809 -10.068   5.319  1.00  0.00    -0.327 N 
HETATM   15  H   UNL     1      41.240 -10.836   4.979  1.00  0.00     0.169 HD
HETATM   16  O   UNL     1      41.890  -7.748   5.281  1.00  0.00    -0.272 OA
BRANCH  14  17
HETATM   17  C   UNL     1      42.897 -10.421   6.141  1.00  0.00     0.035 A 
HETATM   18  C   UNL     1      43.022 -10.044   7.479  1.00  0.00     0.045 A 
HETATM   19  C   UNL     1      44.151 -10.424   8.228  1.00  0.00     0.050 A 
HETATM   20  C   UNL     1      45.144 -11.211   7.623  1.00  0.00     0.016 A 
HETATM   21  C   UNL     1      45.023 -11.590   6.290  1.00  0.00     0.003 A 
HETATM   22  C   UNL     1      43.908 -11.191   5.552  1.00  0.00     0.029 A 
BRANCH  19  23
HETATM   23  C   UNL     1      44.285 -10.024   9.677  1.00  0.00     0.417 C 
HETATM   24  F   UNL     1      44.244  -8.679   9.881  1.00  0.00    -0.166 F 
HETATM   25  F   UNL     1      43.302 -10.555  10.454  1.00  0.00    -0.166 F 
HETATM   26  F   UNL     1      45.460 -10.444  10.229  1.00  0.00    -0.166 F 
ENDBRANCH  19  23
ENDBRANCH  14  17
ENDBRANCH  12  13
ENDBRANCH  11  12
ENDBRANCH   4  11
BRANCH   8  27
HETATM   27  C   UNL     1      39.953 -13.071  -0.638  1.00  0.00    -0.042 A 
HETATM   28  C   UNL     1      38.633 -12.599  -0.692  1.00  0.00     0.027 A 
HETATM   29  C   UNL     1      37.840 -12.956  -1.770  1.00  0.00     0.116 A 
HETATM   30  N   UNL     1      38.268 -13.730  -2.787  1.00  0.00    -0.273 NA
HETATM   31  C   UNL     1      39.533 -14.197  -2.712  1.00  0.00     0.116 A 
HETATM   32  C   UNL     1      40.400 -13.905  -1.671  1.00  0.00     0.027 A 
ENDBRANCH   8  27
BRANCH   9  33
HETATM   33  C   UNL     1      40.988 -14.891   1.973  1.00  0.00     0.255 C 
HETATM   34  N   UNL     1      42.226 -15.043   2.557  1.00  0.00    -0.323 N 
HETATM   35  H   UNL     1      42.763 -14.217   2.773  1.00  0.00     0.169 HD
HETATM   36  O   UNL     1      40.237 -15.808   1.652  1.00  0.00    -0.268 OA
BRANCH  34  37
HETATM   37  C   UNL     1      42.847 -16.256   2.930  1.00  0.00     0.035 A 
HETATM   38  C   UNL     1      42.952 -17.373   2.099  1.00  0.00     0.029 A 
HETATM   39  C   UNL     1      43.568 -18.543   2.554  1.00  0.00     0.002 A 
HETATM   40  C   UNL     1      44.077 -18.610   3.849  1.00  0.00     0.000 A 
HETATM   41  C   UNL     1      43.981 -17.502   4.685  1.00  0.00     0.002 A 
HETATM   42  C   UNL     1      43.378 -16.328   4.225  1.00  0.00     0.029 A 
ENDBRANCH  34  37
ENDBRANCH   9  33
TORSDOF 8
ENDMDL
MODEL 8
REMARK VINA RESULT:      -9.1      2.990      5.469
REMARK  8 active torsions:
REMARK  status: ('A' for Active; 'I' for Inactive)
REMARK    1  A    between atoms: C_4  and  S_5 
REMARK    2  A    between atoms: S_5  and  C_6 
REMARK    3  A    between atoms: C_6  and  C_7 
REMARK       I    between atoms: C_7  and  N_8 
REMARK    4  A    between atoms: N_8  and  C_9 
REMARK    5  A    between atoms: C_11  and  C_12 
REMARK    6  A    between atoms: C_23  and  C_24 
REMARK    7  A    between atoms: C_30  and  C_31 
REMARK       I    between atoms: C_31  and  N_32 
REMARK    8  A    between atoms: N_32  and  C_33 
ROOT
HETATM    1  C   UNL     1      41.444 -10.122   1.608  1.00  0.00     0.069 C 
HETATM    2  C   UNL     1      41.512 -11.273   2.583  1.00  0.00     0.019 C 
HETATM    3  N   UNL     1      42.272 -11.040   3.719  1.00  0.00    -0.353 N 
HETATM    4  C   UNL     1      42.286 -11.857   4.835  1.00  0.00     0.087 C 
HETATM    5  C   UNL     1      41.755 -13.098   4.742  1.00  0.00     0.055 C 
HETATM    6  C   UNL     1      41.883 -14.113   5.866  1.00  0.00     0.019 C 
HETATM    7  N   UNL     1      41.989 -14.956   6.797  1.00  0.00    -0.096 N 
HETATM    8  C   UNL     1      41.075 -13.574   3.456  1.00  0.00     0.104 C 
HETATM    9  C   UNL     1      40.879 -12.461   2.425  1.00  0.00     0.046 C 
HETATM   10  H   UNL     1      42.520 -10.069   3.907  1.00  0.00     0.166 HD
ENDROOT
BRANCH   4  11
HETATM   11  S   UNL     1      42.842 -11.205   6.361  1.00  0.00    -0.102 SA
BRANCH  11  12
HETATM   12  C   UNL     1      42.092  -9.546   6.386  1.00  0.00     0.184 C 
BRANCH  12  13
HETATM   13  C   UNL     1      42.284  -8.821   7.725  1.00  0.00     0.231 C 
HETATM   14  N   UNL     1      42.165  -9.618   8.847  1.00  0.00    -0.327 N 
HETATM   15  H   UNL     1      41.905 -10.581   8.662  1.00  0.00     0.169 HD
HETATM   16  O   UNL     1      42.536  -7.617   7.731  1.00  0.00    -0.272 OA
BRANCH  14  17
HETATM   17  C   UNL     1      42.319  -9.271  10.204  1.00  0.00     0.035 A 
HETATM   18  C   UNL     1      41.264  -9.177  11.112  1.00  0.00     0.045 A 
HETATM   19  C   UNL     1      41.499  -8.806  12.449  1.00  0.00     0.050 A 
HETATM   20  C   UNL     1      42.814  -8.554  12.871  1.00  0.00     0.016 A 
HETATM   21  C   UNL     1      43.870  -8.647  11.969  1.00  0.00     0.003 A 
HETATM   22  C   UNL     1      43.621  -8.997  10.641  1.00  0.00     0.029 A 
BRANCH  19  23
HETATM   23  C   UNL     1      40.361  -8.712  13.435  1.00  0.00     0.417 C 
HETATM   24  F   UNL     1      40.108  -7.445  13.863  1.00  0.00    -0.166 F 
HETATM   25  F   UNL     1      39.190  -9.177  12.920  1.00  0.00    -0.166 F 
HETATM   26  F   UNL     1      40.584  -9.444  14.565  1.00  0.00    -0.166 F 
ENDBRANCH  19  23
ENDBRANCH  14  17
ENDBRANCH  12  13
ENDBRANCH  11  12
ENDBRANCH   4  11
BRANCH   8  27
HETATM   27  C   UNL     1      41.808 -14.790   2.892  1.00  0.00    -0.042 A 
HETATM   28  C   UNL     1      41.278 -16.076   3.080  1.00  0.00     0.027 A 
HETATM   29  C   UNL     1      41.964 -17.162   2.562  1.00  0.00     0.116 A 
HETATM   30  N   UNL     1      43.118 -17.057   1.874  1.00  0.00    -0.273 NA
HETATM   31  C   UNL     1      43.630 -15.817   1.720  1.00  0.00     0.116 A 
HETATM   32  C   UNL     1      43.025 -14.670   2.209  1.00  0.00     0.027 A 
ENDBRANCH   8  27
BRANCH   9  33
HETATM   33  C   UNL     1      39.786 -12.581   1.399  1.00  0.00     0.255 C 
HETATM   34  N   UNL     1      40.186 -13.010   0.153  1.00  0.00    -0.323 N 
HETATM   35  H   UNL     1      41.171 -13.144  -0.019  1.00  0.00     0.169 HD
HETATM   36  O   UNL     1      38.625 -12.372   1.738  1.00  0.00    -0.268 OA
BRANCH  34  37
HETATM   37  C   UNL     1      39.355 -13.325  -0.946  1.00  0.00     0.035 A 
HETATM   38  C   UNL     1      38.363 -12.480  -1.449  1.00  0.00     0.029 A 
HETATM   39  C   UNL     1      37.572 -12.878  -2.531  1.00  0.00     0.002 A 
HETATM   40  C   UNL     1      37.757 -14.129  -3.114  1.00  0.00     0.000 A 
HETATM   41  C   UNL     1      38.743 -14.979  -2.623  1.00  0.00     0.002 A 
HETATM   42  C   UNL     1      39.545 -14.575  -1.551  1.00  0.00     0.029 A 
ENDBRANCH  34  37
ENDBRANCH   9  33
TORSDOF 8
ENDMDL
MODEL 9
REMARK VINA RESULT:      -8.7     19.146     21.357
REMARK  8 active torsions:
REMARK  status: ('A' for Active; 'I' for Inactive)
REMARK    1  A    between atoms: C_4  and  S_5 
REMARK    2  A    between atoms: S_5  and  C_6 
REMARK    3  A    between atoms: C_6  and  C_7 
REMARK       I    between atoms: C_7  and  N_8 
REMARK    4  A    between atoms: N_8  and  C_9 
REMARK    5  A    between atoms: C_11  and  C_12 
REMARK    6  A    between atoms: C_23  and  C_24 
REMARK    7  A    between atoms: C_30  and  C_31 
REMARK       I    between atoms: C_31  and  N_32 
REMARK    8  A    between atoms: N_32  and  C_33 
ROOT
HETATM    1  C   UNL     1      47.902 -28.338  -0.688  1.00  0.00     0.069 C 
HETATM    2  C   UNL     1      47.569 -29.248   0.469  1.00  0.00     0.019 C 
HETATM    3  N   UNL     1      46.511 -28.832   1.263  1.00  0.00    -0.353 N 
HETATM    4  C   UNL     1      45.897 -29.613   2.225  1.00  0.00     0.087 C 
HETATM    5  C   UNL     1      46.507 -30.750   2.631  1.00  0.00     0.055 C 
HETATM    6  C   UNL     1      45.985 -31.570   3.799  1.00  0.00     0.019 C 
HETATM    7  N   UNL     1      45.552 -32.251   4.767  1.00  0.00    -0.096 N 
HETATM    8  C   UNL     1      47.815 -31.219   1.988  1.00  0.00     0.104 C 
HETATM    9  C   UNL     1      48.206 -30.412   0.749  1.00  0.00     0.046 C 
HETATM   10  H   UNL     1      45.919 -28.097   0.879  1.00  0.00     0.166 HD
ENDROOT
BRANCH   4  11
HETATM   11  S   UNL     1      44.287 -29.189   2.765  1.00  0.00    -0.102 SA
BRANCH  11  12
HETATM   12  C   UNL     1      43.226 -30.267   1.750  1.00  0.00     0.184 C 
BRANCH  12  13
HETATM   13  C   UNL     1      43.770 -30.479   0.330  1.00  0.00     0.231 C 
HETATM   14  N   UNL     1      43.704 -29.374  -0.496  1.00  0.00    -0.327 N 
HETATM   15  H   UNL     1      43.249 -28.563  -0.089  1.00  0.00     0.169 HD
HETATM   16  O   UNL     1      44.228 -31.576   0.016  1.00  0.00    -0.272 OA
BRANCH  14  17
HETATM   17  C   UNL     1      44.146 -29.231  -1.825  1.00  0.00     0.035 A 
HETATM   18  C   UNL     1      43.976 -30.200  -2.815  1.00  0.00     0.045 A 
HETATM   19  C   UNL     1      44.464 -29.987  -4.118  1.00  0.00     0.050 A 
HETATM   20  C   UNL     1      45.104 -28.777  -4.423  1.00  0.00     0.016 A 
HETATM   21  C   UNL     1      45.276 -27.807  -3.439  1.00  0.00     0.003 A 
HETATM   22  C   UNL     1      44.805 -28.038  -2.147  1.00  0.00     0.029 A 
BRANCH  19  23
HETATM   23  C   UNL     1      44.273 -31.031  -5.192  1.00  0.00     0.417 C 
HETATM   24  F   UNL     1      43.957 -32.264  -4.710  1.00  0.00    -0.166 F 
HETATM   25  F   UNL     1      43.282 -30.701  -6.065  1.00  0.00    -0.166 F 
HETATM   26  F   UNL     1      45.392 -31.209  -5.953  1.00  0.00    -0.166 F 
ENDBRANCH  19  23
ENDBRANCH  14  17
ENDBRANCH  12  13
ENDBRANCH  11  12
ENDBRANCH   4  11
BRANCH   8  27
HETATM   27  C   UNL     1      48.924 -31.280   3.037  1.00  0.00    -0.042 A 
HETATM   28  C   UNL     1      49.471 -32.518   3.407  1.00  0.00     0.027 A 
HETATM   29  C   UNL     1      50.473 -32.547   4.363  1.00  0.00     0.116 A 
HETATM   30  N   UNL     1      50.966 -31.443   4.960  1.00  0.00    -0.273 NA
HETATM   31  C   UNL     1      50.416 -30.261   4.613  1.00  0.00     0.116 A 
HETATM   32  C   UNL     1      49.404 -30.129   3.676  1.00  0.00     0.027 A 
ENDBRANCH   8  27
BRANCH   9  33
HETATM   33  C   UNL     1      49.091 -31.035  -0.296  1.00  0.00     0.255 C 
HETATM   34  N   UNL     1      50.436 -30.771  -0.169  1.00  0.00    -0.323 N 
HETATM   35  H   UNL     1      50.737 -30.132   0.551  1.00  0.00     0.169 HD
HETATM   36  O   UNL     1      48.590 -31.783  -1.131  1.00  0.00    -0.268 OA
BRANCH  34  37
HETATM   37  C   UNL     1      51.488 -31.326  -0.932  1.00  0.00     0.035 A 
HETATM   38  C   UNL     1      51.809 -30.929  -2.232  1.00  0.00     0.029 A 
HETATM   39  C   UNL     1      52.857 -31.544  -2.925  1.00  0.00     0.002 A 
HETATM   40  C   UNL     1      53.587 -32.569  -2.328  1.00  0.00     0.000 A 
HETATM   41  C   UNL     1      53.278 -32.971  -1.032  1.00  0.00     0.002 A 
HETATM   42  C   UNL     1      52.240 -32.346  -0.334  1.00  0.00     0.029 A 
ENDBRANCH  34  37
ENDBRANCH   9  33
TORSDOF 8
ENDMDL
MODEL 10
REMARK VINA RESULT:      -8.7      2.831      3.469
REMARK  8 active torsions:
REMARK  status: ('A' for Active; 'I' for Inactive)
REMARK    1  A    between atoms: C_4  and  S_5 
REMARK    2  A    between atoms: S_5  and  C_6 
REMARK    3  A    between atoms: C_6  and  C_7 
REMARK       I    between atoms: C_7  and  N_8 
REMARK    4  A    between atoms: N_8  and  C_9 
REMARK    5  A    between atoms: C_11  and  C_12 
REMARK    6  A    between atoms: C_23  and  C_24 
REMARK    7  A    between atoms: C_30  and  C_31 
REMARK       I    between atoms: C_31  and  N_32 
REMARK    8  A    between atoms: N_32  and  C_33 
ROOT
HETATM    1  C   UNL     1      39.979 -14.249   6.331  1.00  0.00     0.069 C 
HETATM    2  C   UNL     1      40.189 -13.182   5.283  1.00  0.00     0.019 C 
HETATM    3  N   UNL     1      39.383 -12.061   5.412  1.00  0.00    -0.353 N 
HETATM    4  C   UNL     1      39.561 -10.882   4.711  1.00  0.00     0.087 C 
HETATM    5  C   UNL     1      40.385 -10.878   3.639  1.00  0.00     0.055 C 
HETATM    6  C   UNL     1      40.502  -9.673   2.719  1.00  0.00     0.019 C 
HETATM    7  N   UNL     1      40.599  -8.675   1.956  1.00  0.00    -0.096 N 
HETATM    8  C   UNL     1      41.177 -12.127   3.244  1.00  0.00     0.104 C 
HETATM    9  C   UNL     1      41.101 -13.248   4.282  1.00  0.00     0.046 C 
HETATM   10  H   UNL     1      38.898 -11.951   6.302  1.00  0.00     0.166 HD
ENDROOT
BRANCH   4  11
HETATM   11  S   UNL     1      38.843  -9.410   5.327  1.00  0.00    -0.102 SA
BRANCH  11  12
HETATM   12  C   UNL     1      40.181  -8.704   6.341  1.00  0.00     0.184 C 
BRANCH  12  13
HETATM   13  C   UNL     1      40.306  -9.371   7.718  1.00  0.00     0.231 C 
HETATM   14  N   UNL     1      41.356  -8.921   8.495  1.00  0.00    -0.327 N 
HETATM   15  H   UNL     1      41.962  -8.244   8.045  1.00  0.00     0.169 HD
HETATM   16  O   UNL     1      39.491 -10.230   8.050  1.00  0.00    -0.272 OA
BRANCH  14  17
HETATM   17  C   UNL     1      41.718  -9.300   9.803  1.00  0.00     0.035 A 
HETATM   18  C   UNL     1      40.845  -9.288  10.892  1.00  0.00     0.045 A 
HETATM   19  C   UNL     1      41.290  -9.664  12.173  1.00  0.00     0.050 A 
HETATM   20  C   UNL     1      42.620 -10.078  12.343  1.00  0.00     0.016 A 
HETATM   21  C   UNL     1      43.495 -10.092  11.261  1.00  0.00     0.003 A 
HETATM   22  C   UNL     1      43.046  -9.698  10.000  1.00  0.00     0.029 A 
BRANCH  19  23
HETATM   23  C   UNL     1      40.345  -9.660  13.349  1.00  0.00     0.417 C 
HETATM   24  F   UNL     1      39.313  -8.782  13.221  1.00  0.00    -0.166 F 
HETATM   25  F   UNL     1      39.780 -10.879  13.564  1.00  0.00    -0.166 F 
HETATM   26  F   UNL     1      40.967  -9.329  14.518  1.00  0.00    -0.166 F 
ENDBRANCH  19  23
ENDBRANCH  14  17
ENDBRANCH  12  13
ENDBRANCH  11  12
ENDBRANCH   4  11
BRANCH   8  27
HETATM   27  C   UNL     1      40.777 -12.582   1.841  1.00  0.00    -0.042 A 
HETATM   28  C   UNL     1      41.321 -11.944   0.716  1.00  0.00     0.027 A 
HETATM   29  C   UNL     1      40.939 -12.372  -0.545  1.00  0.00     0.116 A 
HETATM   30  N   UNL     1      40.072 -13.382  -0.758  1.00  0.00    -0.273 NA
HETATM   31  C   UNL     1      39.537 -13.972   0.332  1.00  0.00     0.116 A 
HETATM   32  C   UNL     1      39.848 -13.610   1.633  1.00  0.00     0.027 A 
ENDBRANCH   8  27
BRANCH   9  33
HETATM   33  C   UNL     1      42.200 -14.272   4.354  1.00  0.00     0.255 C 
HETATM   34  N   UNL     1      41.851 -15.546   3.967  1.00  0.00    -0.323 N 
HETATM   35  H   UNL     1      40.887 -15.734   3.736  1.00  0.00     0.169 HD
HETATM   36  O   UNL     1      43.331 -13.910   4.670  1.00  0.00    -0.268 OA
BRANCH  34  37
HETATM   37  C   UNL     1      42.712 -16.657   3.822  1.00  0.00     0.035 A 
HETATM   38  C   UNL     1      42.935 -17.326   2.616  1.00  0.00     0.029 A 
HETATM   39  C   UNL     1      43.791 -18.430   2.563  1.00  0.00     0.002 A 
HETATM   40  C   UNL     1      44.424 -18.884   3.718  1.00  0.00     0.000 A 
HETATM   41  C   UNL     1      44.211 -18.225   4.925  1.00  0.00     0.002 A 
HETATM   42  C   UNL     1      43.368 -17.111   4.975  1.00  0.00     0.029 A 
ENDBRANCH  34  37
ENDBRANCH   9  33
TORSDOF 8
ENDMDL
