MODEL 1
REMARK VINA RESULT:      -8.7      0.000      0.000
REMARK  5 active torsions:
REMARK  status: ('A' for Active; 'I' for Inactive)
REMARK    1  A    between atoms: C_3  and  N_4 
REMARK    2  A    between atoms: N_5  and  C_6 
REMARK    3  A    between atoms: C_6  and  C_7 
REMARK    4  A    between atoms: C_7  and  C_8 
REMARK    5  A    between atoms: C_17  and  C_18 
ROOT
HETATM    1  C   UNL     1      43.421 -11.717   3.496  1.00  0.00     0.175 C 
HETATM    2  N   UNL     1      43.248 -12.697   4.559  1.00  0.00    -0.186 N 
HETATM    3  C   UNL     1      42.805 -13.936   4.363  1.00  0.00     0.680 A 
HETATM    4  N   UNL     1      42.965 -14.637   5.479  1.00  0.00    -0.184 N 
HETATM    5  C   UNL     1      43.506 -13.804   6.441  1.00  0.00     0.140 A 
HETATM    6  C   UNL     1      43.650 -12.541   5.902  1.00  0.00     0.077 A 
ENDROOT
BRANCH   4   7
HETATM    7  C   UNL     1      42.553 -16.032   5.728  1.00  0.00     0.231 C 
BRANCH   7   8
HETATM    8  C   UNL     1      43.699 -17.021   5.555  1.00  0.00     0.178 C 
HETATM    9  O   UNL     1      44.671 -17.010   6.315  1.00  0.00    -0.290 OA
BRANCH   8  10
HETATM   10  C   UNL     1      43.631 -18.030   4.466  1.00  0.00     0.012 A 
HETATM   11  C   UNL     1      44.088 -19.343   4.640  1.00  0.00     0.018 A 
HETATM   12  C   UNL     1      44.010 -20.249   3.579  1.00  0.00     0.043 A 
HETATM   13  C   UNL     1      43.475 -19.843   2.361  1.00  0.00     0.116 A 
HETATM   14  F   UNL     1      43.409 -20.716   1.347  1.00  0.00    -0.206 F 
HETATM   15  C   UNL     1      43.003 -18.549   2.182  1.00  0.00     0.043 A 
HETATM   16  C   UNL     1      43.074 -17.639   3.239  1.00  0.00     0.018 A 
ENDBRANCH   8  10
ENDBRANCH   7   8
ENDBRANCH   4   7
BRANCH   3  17
HETATM   17  N   UNL     1      42.301 -14.395   3.223  1.00  0.00    -0.234 N 
HETATM   18  H   UNL     1      42.167 -15.375   3.041  1.00  0.00     0.174 HD
HETATM   19  H   UNL     1      41.854 -13.739   2.580  1.00  0.00     0.174 HD
ENDBRANCH   3  17
BRANCH   6  20
HETATM   20  C   UNL     1      44.146 -11.332   6.651  1.00  0.00    -0.004 A 
HETATM   21  C   UNL     1      43.228 -10.347   7.055  1.00  0.00     0.053 A 
HETATM   22  C   UNL     1      43.710  -9.249   7.737  1.00  0.00     0.106 A 
HETATM   23  C   UNL     1      45.043  -9.095   8.020  1.00  0.00     0.105 A 
HETATM   24  O   UNL     1      42.958  -8.217   8.203  1.00  0.00    -0.323 OA
HETATM   25  O   UNL     1      45.302  -7.948   8.698  1.00  0.00    -0.323 OA
HETATM   26  C   UNL     1      45.973 -10.030   7.626  1.00  0.00     0.040 A 
HETATM   27  C   UNL     1      43.975  -7.391   8.813  1.00  0.00     0.352 A 
HETATM   28  C   UNL     1      45.517 -11.158   6.928  1.00  0.00     0.017 A 
ENDBRANCH   6  20
TORSDOF 5
ENDMDL
MODEL 2
REMARK VINA RESULT:      -8.6      3.444      8.706
REMARK  5 active torsions:
REMARK  status: ('A' for Active; 'I' for Inactive)
REMARK    1  A    between atoms: C_3  and  N_4 
REMARK    2  A    between atoms: N_5  and  C_6 
REMARK    3  A    between atoms: C_6  and  C_7 
REMARK    4  A    between atoms: C_7  and  C_8 
REMARK    5  A    between atoms: C_17  and  C_18 
ROOT
HETATM    1  C   UNL     1      40.521 -15.936   6.451  1.00  0.00     0.175 C 
HETATM    2  N   UNL     1      41.288 -15.021   5.617  1.00  0.00    -0.186 N 
HETATM    3  C   UNL     1      41.222 -13.695   5.713  1.00  0.00     0.680 A 
HETATM    4  N   UNL     1      42.186 -13.157   4.977  1.00  0.00    -0.184 N 
HETATM    5  C   UNL     1      42.884 -14.180   4.360  1.00  0.00     0.140 A 
HETATM    6  C   UNL     1      42.301 -15.382   4.705  1.00  0.00     0.077 A 
ENDROOT
BRANCH   4   7
HETATM    7  C   UNL     1      42.441 -11.722   4.744  1.00  0.00     0.231 C 
BRANCH   7   8
HETATM    8  C   UNL     1      43.890 -11.333   5.012  1.00  0.00     0.178 C 
HETATM    9  O   UNL     1      44.717 -11.281   4.098  1.00  0.00    -0.290 OA
BRANCH   8  10
HETATM   10  C   UNL     1      44.305 -10.987   6.397  1.00  0.00     0.012 A 
HETATM   11  C   UNL     1      43.375 -10.657   7.391  1.00  0.00     0.018 A 
HETATM   12  C   UNL     1      43.822 -10.329   8.674  1.00  0.00     0.043 A 
HETATM   13  C   UNL     1      45.184 -10.340   8.957  1.00  0.00     0.116 A 
HETATM   14  F   UNL     1      45.603 -10.020  10.187  1.00  0.00    -0.206 F 
HETATM   15  C   UNL     1      46.113 -10.683   7.984  1.00  0.00     0.043 A 
HETATM   16  C   UNL     1      45.675 -11.014   6.700  1.00  0.00     0.018 A 
ENDBRANCH   8  10
ENDBRANCH   7   8
ENDBRANCH   4   7
BRANCH   3  17
HETATM   17  N   UNL     1      40.338 -13.027   6.445  1.00  0.00    -0.234 N 
HETATM   18  H   UNL     1      39.446 -13.410   6.709  1.00  0.00     0.174 HD
HETATM   19  H   UNL     1      40.634 -12.175   6.924  1.00  0.00     0.174 HD
ENDBRANCH   3  17
BRANCH   6  20
HETATM   20  C   UNL     1      42.728 -16.731   4.186  1.00  0.00    -0.004 A 
HETATM   21  C   UNL     1      43.302 -17.659   5.071  1.00  0.00     0.053 A 
HETATM   22  C   UNL     1      43.685 -18.886   4.570  1.00  0.00     0.106 A 
HETATM   23  C   UNL     1      43.528 -19.213   3.247  1.00  0.00     0.105 A 
HETATM   24  O   UNL     1      44.245 -19.894   5.290  1.00  0.00    -0.323 OA
HETATM   25  O   UNL     1      43.968 -20.465   2.965  1.00  0.00    -0.323 OA
HETATM   26  C   UNL     1      42.985 -18.324   2.348  1.00  0.00     0.040 A 
HETATM   27  C   UNL     1      44.424 -20.897   4.265  1.00  0.00     0.352 A 
HETATM   28  C   UNL     1      42.587 -17.067   2.824  1.00  0.00     0.017 A 
ENDBRANCH   6  20
TORSDOF 5
ENDMDL
MODEL 3
REMARK VINA RESULT:      -8.4      2.247      3.123
REMARK  5 active torsions:
REMARK  status: ('A' for Active; 'I' for Inactive)
REMARK    1  A    between atoms: C_3  and  N_4 
REMARK    2  A    between atoms: N_5  and  C_6 
REMARK    3  A    between atoms: C_6  and  C_7 
REMARK    4  A    between atoms: C_7  and  C_8 
REMARK    5  A    between atoms: C_17  and  C_18 
ROOT
HETATM    1  C   UNL     1      39.565 -11.693   3.994  1.00  0.00     0.175 C 
HETATM    2  N   UNL     1      40.395 -12.883   3.877  1.00  0.00    -0.186 N 
HETATM    3  C   UNL     1      40.084 -13.936   3.126  1.00  0.00     0.680 A 
HETATM    4  N   UNL     1      41.130 -14.751   3.062  1.00  0.00    -0.184 N 
HETATM    5  C   UNL     1      42.148 -14.211   3.827  1.00  0.00     0.140 A 
HETATM    6  C   UNL     1      41.693 -13.044   4.407  1.00  0.00     0.077 A 
ENDROOT
BRANCH   4   7
HETATM    7  C   UNL     1      41.204 -16.063   2.390  1.00  0.00     0.231 C 
BRANCH   7   8
HETATM    8  C   UNL     1      42.638 -16.519   2.152  1.00  0.00     0.178 C 
HETATM    9  O   UNL     1      43.361 -15.951   1.329  1.00  0.00    -0.290 OA
BRANCH   8  10
HETATM   10  C   UNL     1      43.181 -17.654   2.944  1.00  0.00     0.012 A 
HETATM   11  C   UNL     1      43.592 -17.502   4.275  1.00  0.00     0.018 A 
HETATM   12  C   UNL     1      44.106 -18.600   4.970  1.00  0.00     0.043 A 
HETATM   13  C   UNL     1      44.199 -19.836   4.339  1.00  0.00     0.116 A 
HETATM   14  F   UNL     1      44.697 -20.882   5.011  1.00  0.00    -0.206 F 
HETATM   15  C   UNL     1      43.779 -20.002   3.026  1.00  0.00     0.043 A 
HETATM   16  C   UNL     1      43.262 -18.911   2.325  1.00  0.00     0.018 A 
ENDBRANCH   8  10
ENDBRANCH   7   8
ENDBRANCH   4   7
BRANCH   3  17
HETATM   17  N   UNL     1      38.913 -14.126   2.526  1.00  0.00    -0.234 N 
HETATM   18  H   UNL     1      38.709 -13.773   1.606  1.00  0.00     0.174 HD
HETATM   19  H   UNL     1      38.262 -14.810   2.914  1.00  0.00     0.174 HD
ENDBRANCH   3  17
BRANCH   6  20
HETATM   20  C   UNL     1      42.481 -12.190   5.366  1.00  0.00    -0.004 A 
HETATM   21  C   UNL     1      43.877 -12.334   5.430  1.00  0.00     0.053 A 
HETATM   22  C   UNL     1      44.574 -11.542   6.318  1.00  0.00     0.106 A 
HETATM   23  C   UNL     1      43.944 -10.635   7.133  1.00  0.00     0.105 A 
HETATM   24  O   UNL     1      45.922 -11.551   6.496  1.00  0.00    -0.323 OA
HETATM   25  O   UNL     1      44.813  -9.960   7.928  1.00  0.00    -0.323 OA
HETATM   26  C   UNL     1      42.577 -10.478   7.110  1.00  0.00     0.040 A 
HETATM   27  C   UNL     1      46.070 -10.543   7.522  1.00  0.00     0.352 A 
HETATM   28  C   UNL     1      41.839 -11.271   6.220  1.00  0.00     0.017 A 
ENDBRANCH   6  20
TORSDOF 5
ENDMDL
MODEL 4
REMARK VINA RESULT:      -8.4      1.723      2.146
REMARK  5 active torsions:
REMARK  status: ('A' for Active; 'I' for Inactive)
REMARK    1  A    between atoms: C_3  and  N_4 
REMARK    2  A    between atoms: N_5  and  C_6 
REMARK    3  A    between atoms: C_6  and  C_7 
REMARK    4  A    between atoms: C_7  and  C_8 
REMARK    5  A    between atoms: C_17  and  C_18 
ROOT
HETATM    1  C   UNL     1      42.160 -10.461   3.576  1.00  0.00     0.175 C 
HETATM    2  N   UNL     1      42.266 -11.864   3.950  1.00  0.00    -0.186 N 
HETATM    3  C   UNL     1      41.731 -12.863   3.253  1.00  0.00     0.680 A 
HETATM    4  N   UNL     1      42.182 -14.017   3.729  1.00  0.00    -0.184 N 
HETATM    5  C   UNL     1      43.022 -13.749   4.795  1.00  0.00     0.140 A 
HETATM    6  C   UNL     1      43.055 -12.384   4.998  1.00  0.00     0.077 A 
ENDROOT
BRANCH   4   7
HETATM    7  C   UNL     1      41.800 -15.375   3.295  1.00  0.00     0.231 C 
BRANCH   7   8
HETATM    8  C   UNL     1      42.940 -16.111   2.601  1.00  0.00     0.178 C 
HETATM    9  O   UNL     1      43.563 -15.590   1.672  1.00  0.00    -0.290 OA
BRANCH   8  10
HETATM   10  C   UNL     1      43.320 -17.469   3.069  1.00  0.00     0.012 A 
HETATM   11  C   UNL     1      43.256 -18.589   2.230  1.00  0.00     0.018 A 
HETATM   12  C   UNL     1      43.615 -19.846   2.725  1.00  0.00     0.043 A 
HETATM   13  C   UNL     1      44.039 -19.975   4.043  1.00  0.00     0.116 A 
HETATM   14  F   UNL     1      44.376 -21.183   4.511  1.00  0.00    -0.206 F 
HETATM   15  C   UNL     1      44.124 -18.869   4.879  1.00  0.00     0.043 A 
HETATM   16  C   UNL     1      43.769 -17.609   4.391  1.00  0.00     0.018 A 
ENDBRANCH   8  10
ENDBRANCH   7   8
ENDBRANCH   4   7
BRANCH   3  17
HETATM   17  N   UNL     1      40.891 -12.717   2.234  1.00  0.00    -0.234 N 
HETATM   18  H   UNL     1      40.868 -13.349   1.451  1.00  0.00     0.174 HD
HETATM   19  H   UNL     1      40.111 -12.064   2.324  1.00  0.00     0.174 HD
ENDBRANCH   3  17
BRANCH   6  20
HETATM   20  C   UNL     1      43.805 -11.692   6.107  1.00  0.00    -0.004 A 
HETATM   21  C   UNL     1      43.087 -11.109   7.164  1.00  0.00     0.053 A 
HETATM   22  C   UNL     1      43.798 -10.480   8.166  1.00  0.00     0.106 A 
HETATM   23  C   UNL     1      45.168 -10.407   8.149  1.00  0.00     0.105 A 
HETATM   24  O   UNL     1      43.259  -9.877   9.258  1.00  0.00    -0.323 OA
HETATM   25  O   UNL     1      45.666  -9.748   9.226  1.00  0.00    -0.323 OA
HETATM   26  C   UNL     1      45.903 -10.952   7.122  1.00  0.00     0.040 A 
HETATM   27  C   UNL     1      44.451  -9.411   9.930  1.00  0.00     0.352 A 
HETATM   28  C   UNL     1      45.211 -11.596   6.087  1.00  0.00     0.017 A 
ENDBRANCH   6  20
TORSDOF 5
ENDMDL
MODEL 5
REMARK VINA RESULT:      -8.4      4.199      6.697
REMARK  5 active torsions:
REMARK  status: ('A' for Active; 'I' for Inactive)
REMARK    1  A    between atoms: C_3  and  N_4 
REMARK    2  A    between atoms: N_5  and  C_6 
REMARK    3  A    between atoms: C_6  and  C_7 
REMARK    4  A    between atoms: C_7  and  C_8 
REMARK    5  A    between atoms: C_17  and  C_18 
ROOT
HETATM    1  C   UNL     1      39.469 -12.761   4.198  1.00  0.00     0.175 C 
HETATM    2  N   UNL     1      40.728 -13.476   4.044  1.00  0.00    -0.186 N 
HETATM    3  C   UNL     1      41.464 -13.915   5.063  1.00  0.00     0.680 A 
HETATM    4  N   UNL     1      42.425 -14.704   4.598  1.00  0.00    -0.184 N 
HETATM    5  C   UNL     1      42.319 -14.750   3.219  1.00  0.00     0.140 A 
HETATM    6  C   UNL     1      41.278 -13.933   2.828  1.00  0.00     0.077 A 
ENDROOT
BRANCH   4   7
HETATM    7  C   UNL     1      43.503 -15.353   5.369  1.00  0.00     0.231 C 
BRANCH   7   8
HETATM    8  C   UNL     1      43.068 -16.678   5.983  1.00  0.00     0.178 C 
HETATM    9  O   UNL     1      42.422 -16.713   7.034  1.00  0.00    -0.290 OA
BRANCH   8  10
HETATM   10  C   UNL     1      43.410 -17.947   5.290  1.00  0.00     0.012 A 
HETATM   11  C   UNL     1      43.613 -18.006   3.905  1.00  0.00     0.018 A 
HETATM   12  C   UNL     1      43.921 -19.229   3.302  1.00  0.00     0.043 A 
HETATM   13  C   UNL     1      44.031 -20.376   4.081  1.00  0.00     0.116 A 
HETATM   14  F   UNL     1      44.322 -21.544   3.495  1.00  0.00    -0.206 F 
HETATM   15  C   UNL     1      43.849 -20.326   5.457  1.00  0.00     0.043 A 
HETATM   16  C   UNL     1      43.543 -19.108   6.067  1.00  0.00     0.018 A 
ENDBRANCH   8  10
ENDBRANCH   7   8
ENDBRANCH   4   7
BRANCH   3  17
HETATM   17  N   UNL     1      41.251 -13.619   6.340  1.00  0.00    -0.234 N 
HETATM   18  H   UNL     1      41.890 -13.877   7.074  1.00  0.00     0.174 HD
HETATM   19  H   UNL     1      40.523 -12.944   6.578  1.00  0.00     0.174 HD
ENDBRANCH   3  17
BRANCH   6  20
HETATM   20  C   UNL     1      40.881 -13.661   1.400  1.00  0.00    -0.004 A 
HETATM   21  C   UNL     1      40.181 -14.645   0.681  1.00  0.00     0.053 A 
HETATM   22  C   UNL     1      39.831 -14.371  -0.625  1.00  0.00     0.106 A 
HETATM   23  C   UNL     1      40.151 -13.182  -1.230  1.00  0.00     0.105 A 
HETATM   24  O   UNL     1      39.148 -15.206  -1.452  1.00  0.00    -0.323 OA
HETATM   25  O   UNL     1      39.713 -13.117  -2.513  1.00  0.00    -0.323 OA
HETATM   26  C   UNL     1      40.850 -12.202  -0.562  1.00  0.00     0.040 A 
HETATM   27  C   UNL     1      39.076 -14.405  -2.652  1.00  0.00     0.352 A 
HETATM   28  C   UNL     1      41.223 -12.450   0.766  1.00  0.00     0.017 A 
ENDBRANCH   6  20
TORSDOF 5
ENDMDL
MODEL 6
REMARK VINA RESULT:      -8.3      3.287      8.518
REMARK  5 active torsions:
REMARK  status: ('A' for Active; 'I' for Inactive)
REMARK    1  A    between atoms: C_3  and  N_4 
REMARK    2  A    between atoms: N_5  and  C_6 
REMARK    3  A    between atoms: C_6  and  C_7 
REMARK    4  A    between atoms: C_7  and  C_8 
REMARK    5  A    between atoms: C_17  and  C_18 
ROOT
HETATM    1  C   UNL     1      40.004 -15.556   2.221  1.00  0.00     0.175 C 
HETATM    2  N   UNL     1      41.230 -14.831   2.522  1.00  0.00    -0.186 N 
HETATM    3  C   UNL     1      41.333 -13.504   2.503  1.00  0.00     0.680 A 
HETATM    4  N   UNL     1      42.501 -13.151   3.028  1.00  0.00    -0.184 N 
HETATM    5  C   UNL     1      43.188 -14.301   3.372  1.00  0.00     0.140 A 
HETATM    6  C   UNL     1      42.427 -15.394   3.012  1.00  0.00     0.077 A 
ENDROOT
BRANCH   4   7
HETATM    7  C   UNL     1      43.054 -11.787   3.145  1.00  0.00     0.231 C 
BRANCH   7   8
HETATM    8  C   UNL     1      42.529 -11.045   4.368  1.00  0.00     0.178 C 
HETATM    9  O   UNL     1      41.409 -10.528   4.368  1.00  0.00    -0.290 OA
BRANCH   8  10
HETATM   10  C   UNL     1      43.375 -10.965   5.588  1.00  0.00     0.012 A 
HETATM   11  C   UNL     1      42.910 -10.388   6.777  1.00  0.00     0.018 A 
HETATM   12  C   UNL     1      43.751 -10.328   7.891  1.00  0.00     0.043 A 
HETATM   13  C   UNL     1      45.039 -10.849   7.815  1.00  0.00     0.116 A 
HETATM   14  F   UNL     1      45.840 -10.783   8.886  1.00  0.00    -0.206 F 
HETATM   15  C   UNL     1      45.504 -11.439   6.647  1.00  0.00     0.043 A 
HETATM   16  C   UNL     1      44.669 -11.504   5.530  1.00  0.00     0.018 A 
ENDBRANCH   8  10
ENDBRANCH   7   8
ENDBRANCH   4   7
BRANCH   3  17
HETATM   17  N   UNL     1      40.403 -12.673   2.046  1.00  0.00    -0.234 N 
HETATM   18  H   UNL     1      40.618 -11.879   1.468  1.00  0.00     0.174 HD
HETATM   19  H   UNL     1      39.421 -12.944   2.114  1.00  0.00     0.174 HD
ENDBRANCH   3  17
BRANCH   6  20
HETATM   20  C   UNL     1      42.853 -16.832   3.161  1.00  0.00    -0.004 A 
HETATM   21  C   UNL     1      43.231 -17.311   4.426  1.00  0.00     0.053 A 
HETATM   22  C   UNL     1      43.619 -18.630   4.534  1.00  0.00     0.106 A 
HETATM   23  C   UNL     1      43.650 -19.470   3.450  1.00  0.00     0.105 A 
HETATM   24  O   UNL     1      44.005 -19.250   5.681  1.00  0.00    -0.323 OA
HETATM   25  O   UNL     1      44.059 -20.723   3.775  1.00  0.00    -0.323 OA
HETATM   26  C   UNL     1      43.302 -19.033   2.193  1.00  0.00     0.040 A 
HETATM   27  C   UNL     1      44.284 -20.581   5.194  1.00  0.00     0.352 A 
HETATM   28  C   UNL     1      42.906 -17.696   2.048  1.00  0.00     0.017 A 
ENDBRANCH   6  20
TORSDOF 5
ENDMDL
MODEL 7
REMARK VINA RESULT:      -8.3      5.160      8.591
REMARK  5 active torsions:
REMARK  status: ('A' for Active; 'I' for Inactive)
REMARK    1  A    between atoms: C_3  and  N_4 
REMARK    2  A    between atoms: N_5  and  C_6 
REMARK    3  A    between atoms: C_6  and  C_7 
REMARK    4  A    between atoms: C_7  and  C_8 
REMARK    5  A    between atoms: C_17  and  C_18 
ROOT
HETATM    1  C   UNL     1      40.615 -14.288   5.084  1.00  0.00     0.175 C 
HETATM    2  N   UNL     1      40.882 -14.081   3.668  1.00  0.00    -0.186 N 
HETATM    3  C   UNL     1      40.423 -13.047   2.968  1.00  0.00     0.680 A 
HETATM    4  N   UNL     1      41.011 -13.031   1.778  1.00  0.00    -0.184 N 
HETATM    5  C   UNL     1      41.863 -14.117   1.700  1.00  0.00     0.140 A 
HETATM    6  C   UNL     1      41.764 -14.841   2.871  1.00  0.00     0.077 A 
ENDROOT
BRANCH   4   7
HETATM    7  C   UNL     1      40.753 -12.098   0.663  1.00  0.00     0.231 C 
BRANCH   7   8
HETATM    8  C   UNL     1      39.300 -12.118   0.207  1.00  0.00     0.178 C 
HETATM    9  O   UNL     1      38.428 -11.501   0.825  1.00  0.00    -0.290 OA
BRANCH   8  10
HETATM   10  C   UNL     1      38.933 -12.876  -1.018  1.00  0.00     0.012 A 
HETATM   11  C   UNL     1      37.706 -12.690  -1.667  1.00  0.00     0.018 A 
HETATM   12  C   UNL     1      37.407 -13.438  -2.809  1.00  0.00     0.043 A 
HETATM   13  C   UNL     1      38.332 -14.355  -3.298  1.00  0.00     0.116 A 
HETATM   14  F   UNL     1      38.036 -15.070  -4.390  1.00  0.00    -0.206 F 
HETATM   15  C   UNL     1      39.559 -14.534  -2.673  1.00  0.00     0.043 A 
HETATM   16  C   UNL     1      39.866 -13.790  -1.532  1.00  0.00     0.018 A 
ENDBRANCH   8  10
ENDBRANCH   7   8
ENDBRANCH   4   7
BRANCH   3  17
HETATM   17  N   UNL     1      39.530 -12.166   3.406  1.00  0.00    -0.234 N 
HETATM   18  H   UNL     1      39.481 -11.222   3.062  1.00  0.00     0.174 HD
HETATM   19  H   UNL     1      38.741 -12.496   3.964  1.00  0.00     0.174 HD
ENDBRANCH   3  17
BRANCH   6  20
HETATM   20  C   UNL     1      42.486 -16.133   3.154  1.00  0.00    -0.004 A 
HETATM   21  C   UNL     1      42.247 -17.249   2.333  1.00  0.00     0.053 A 
HETATM   22  C   UNL     1      42.919 -18.420   2.615  1.00  0.00     0.106 A 
HETATM   23  C   UNL     1      43.796 -18.521   3.665  1.00  0.00     0.105 A 
HETATM   24  O   UNL     1      42.809 -19.582   1.917  1.00  0.00    -0.323 OA
HETATM   25  O   UNL     1      44.348 -19.757   3.764  1.00  0.00    -0.323 OA
HETATM   26  C   UNL     1      44.042 -17.455   4.499  1.00  0.00     0.040 A 
HETATM   27  C   UNL     1      43.719 -20.430   2.652  1.00  0.00     0.352 A 
HETATM   28  C   UNL     1      43.373 -16.251   4.242  1.00  0.00     0.017 A 
ENDBRANCH   6  20
TORSDOF 5
ENDMDL
MODEL 8
REMARK VINA RESULT:      -8.1      3.112      4.853
REMARK  5 active torsions:
REMARK  status: ('A' for Active; 'I' for Inactive)
REMARK    1  A    between atoms: C_3  and  N_4 
REMARK    2  A    between atoms: N_5  and  C_6 
REMARK    3  A    between atoms: C_6  and  C_7 
REMARK    4  A    between atoms: C_7  and  C_8 
REMARK    5  A    between atoms: C_17  and  C_18 
ROOT
HETATM    1  C   UNL     1      42.354 -11.396   6.160  1.00  0.00     0.175 C 
HETATM    2  N   UNL     1      42.197 -12.758   5.669  1.00  0.00    -0.186 N 
HETATM    3  C   UNL     1      42.557 -13.841   6.353  1.00  0.00     0.680 A 
HETATM    4  N   UNL     1      42.091 -14.920   5.737  1.00  0.00    -0.184 N 
HETATM    5  C   UNL     1      41.428 -14.515   4.593  1.00  0.00     0.140 A 
HETATM    6  C   UNL     1      41.523 -13.142   4.490  1.00  0.00     0.077 A 
ENDROOT
BRANCH   4   7
HETATM    7  C   UNL     1      42.308 -16.331   6.113  1.00  0.00     0.231 C 
BRANCH   7   8
HETATM    8  C   UNL     1      43.631 -16.879   5.592  1.00  0.00     0.178 C 
HETATM    9  O   UNL     1      44.709 -16.492   6.053  1.00  0.00    -0.290 OA
BRANCH   8  10
HETATM   10  C   UNL     1      43.619 -17.915   4.526  1.00  0.00     0.012 A 
HETATM   11  C   UNL     1      44.047 -19.228   4.761  1.00  0.00     0.018 A 
HETATM   12  C   UNL     1      44.025 -20.159   3.720  1.00  0.00     0.043 A 
HETATM   13  C   UNL     1      43.575 -19.779   2.460  1.00  0.00     0.116 A 
HETATM   14  F   UNL     1      43.562 -20.676   1.466  1.00  0.00    -0.206 F 
HETATM   15  C   UNL     1      43.133 -18.484   2.220  1.00  0.00     0.043 A 
HETATM   16  C   UNL     1      43.149 -17.548   3.256  1.00  0.00     0.018 A 
ENDBRANCH   8  10
ENDBRANCH   7   8
ENDBRANCH   4   7
BRANCH   3  17
HETATM   17  N   UNL     1      43.257 -13.832   7.483  1.00  0.00    -0.234 N 
HETATM   18  H   UNL     1      43.750 -13.020   7.812  1.00  0.00     0.174 HD
HETATM   19  H   UNL     1      43.141 -14.602   8.143  1.00  0.00     0.174 HD
ENDBRANCH   3  17
BRANCH   6  20
HETATM   20  C   UNL     1      40.986 -12.319   3.348  1.00  0.00    -0.004 A 
HETATM   21  C   UNL     1      41.878 -11.578   2.554  1.00  0.00     0.053 A 
HETATM   22  C   UNL     1      41.359 -10.833   1.515  1.00  0.00     0.106 A 
HETATM   23  C   UNL     1      40.014 -10.793   1.249  1.00  0.00     0.105 A 
HETATM   24  O   UNL     1      42.081 -10.070   0.652  1.00  0.00    -0.323 OA
HETATM   25  O   UNL     1      39.718 -10.002   0.186  1.00  0.00    -0.323 OA
HETATM   26  C   UNL     1      39.110 -11.493   2.014  1.00  0.00     0.040 A 
HETATM   27  C   UNL     1      41.033  -9.543  -0.192  1.00  0.00     0.352 A 
HETATM   28  C   UNL     1      39.603 -12.259   3.080  1.00  0.00     0.017 A 
ENDBRANCH   6  20
TORSDOF 5
ENDMDL
MODEL 9
REMARK VINA RESULT:      -7.9      4.906      7.272
REMARK  5 active torsions:
REMARK  status: ('A' for Active; 'I' for Inactive)
REMARK    1  A    between atoms: C_3  and  N_4 
REMARK    2  A    between atoms: N_5  and  C_6 
REMARK    3  A    between atoms: C_6  and  C_7 
REMARK    4  A    between atoms: C_7  and  C_8 
REMARK    5  A    between atoms: C_17  and  C_18 
ROOT
HETATM    1  C   UNL     1      40.899 -10.666   2.557  1.00  0.00     0.175 C 
HETATM    2  N   UNL     1      40.853 -12.083   2.887  1.00  0.00    -0.186 N 
HETATM    3  C   UNL     1      41.343 -12.602   4.011  1.00  0.00     0.680 A 
HETATM    4  N   UNL     1      40.958 -13.869   4.110  1.00  0.00    -0.184 N 
HETATM    5  C   UNL     1      40.213 -14.185   2.988  1.00  0.00     0.140 A 
HETATM    6  C   UNL     1      40.173 -13.082   2.159  1.00  0.00     0.077 A 
ENDROOT
BRANCH   4   7
HETATM    7  C   UNL     1      41.324 -14.837   5.162  1.00  0.00     0.231 C 
BRANCH   7   8
HETATM    8  C   UNL     1      42.793 -15.236   5.104  1.00  0.00     0.178 C 
HETATM    9  O   UNL     1      43.662 -14.556   5.657  1.00  0.00    -0.290 OA
BRANCH   8  10
HETATM   10  C   UNL     1      43.181 -16.480   4.388  1.00  0.00     0.012 A 
HETATM   11  C   UNL     1      43.851 -17.529   5.031  1.00  0.00     0.018 A 
HETATM   12  C   UNL     1      44.202 -18.672   4.308  1.00  0.00     0.043 A 
HETATM   13  C   UNL     1      43.878 -18.763   2.958  1.00  0.00     0.116 A 
HETATM   14  F   UNL     1      44.223 -19.860   2.272  1.00  0.00    -0.206 F 
HETATM   15  C   UNL     1      43.198 -17.737   2.315  1.00  0.00     0.043 A 
HETATM   16  C   UNL     1      42.842 -16.593   3.031  1.00  0.00     0.018 A 
ENDBRANCH   8  10
ENDBRANCH   7   8
ENDBRANCH   4   7
BRANCH   3  17
HETATM   17  N   UNL     1      42.083 -11.943   4.895  1.00  0.00    -0.234 N 
HETATM   18  H   UNL     1      42.213 -10.946   4.864  1.00  0.00     0.174 HD
HETATM   19  H   UNL     1      42.378 -12.421   5.748  1.00  0.00     0.174 HD
ENDBRANCH   3  17
BRANCH   6  20
HETATM   20  C   UNL     1      39.513 -13.040   0.805  1.00  0.00    -0.004 A 
HETATM   21  C   UNL     1      39.768 -14.070  -0.117  1.00  0.00     0.053 A 
HETATM   22  C   UNL     1      39.153 -14.006  -1.350  1.00  0.00     0.106 A 
HETATM   23  C   UNL     1      38.317 -12.974  -1.694  1.00  0.00     0.105 A 
HETATM   24  O   UNL     1      39.286 -14.921  -2.347  1.00  0.00    -0.323 OA
HETATM   25  O   UNL     1      37.818 -13.106  -2.949  1.00  0.00    -0.323 OA
HETATM   26  C   UNL     1      38.057 -11.941  -0.824  1.00  0.00     0.040 A 
HETATM   27  C   UNL     1      38.435 -14.344  -3.363  1.00  0.00     0.352 A 
HETATM   28  C   UNL     1      38.668 -11.974   0.437  1.00  0.00     0.017 A 
ENDBRANCH   6  20
TORSDOF 5
ENDMDL
MODEL 10
REMARK VINA RESULT:      -7.6      3.796      8.829
REMARK  5 active torsions:
REMARK  status: ('A' for Active; 'I' for Inactive)
REMARK    1  A    between atoms: C_3  and  N_4 
REMARK    2  A    between atoms: N_5  and  C_6 
REMARK    3  A    between atoms: C_6  and  C_7 
REMARK    4  A    between atoms: C_7  and  C_8 
REMARK    5  A    between atoms: C_17  and  C_18 
ROOT
HETATM    1  C   UNL     1      41.988 -12.153   1.797  1.00  0.00     0.175 C 
HETATM    2  N   UNL     1      42.285 -12.203   3.222  1.00  0.00    -0.186 N 
HETATM    3  C   UNL     1      42.170 -11.161   4.042  1.00  0.00     0.680 A 
HETATM    4  N   UNL     1      42.301 -11.578   5.296  1.00  0.00    -0.184 N 
HETATM    5  C   UNL     1      42.539 -12.940   5.278  1.00  0.00     0.140 A 
HETATM    6  C   UNL     1      42.589 -13.363   3.966  1.00  0.00     0.077 A 
ENDROOT
BRANCH   4   7
HETATM    7  C   UNL     1      42.306 -10.751   6.519  1.00  0.00     0.231 C 
BRANCH   7   8
HETATM    8  C   UNL     1      43.698 -10.599   7.118  1.00  0.00     0.178 C 
HETATM    9  O   UNL     1      44.706 -10.908   6.477  1.00  0.00    -0.290 OA
BRANCH   8  10
HETATM   10  C   UNL     1      43.842 -10.047   8.491  1.00  0.00     0.012 A 
HETATM   11  C   UNL     1      45.028 -10.181   9.225  1.00  0.00     0.018 A 
HETATM   12  C   UNL     1      45.106  -9.653  10.516  1.00  0.00     0.043 A 
HETATM   13  C   UNL     1      44.009  -8.992  11.061  1.00  0.00     0.116 A 
HETATM   14  F   UNL     1      44.090  -8.494  12.301  1.00  0.00    -0.206 F 
HETATM   15  C   UNL     1      42.835  -8.839  10.336  1.00  0.00     0.043 A 
HETATM   16  C   UNL     1      42.750  -9.362   9.044  1.00  0.00     0.018 A 
ENDBRANCH   8  10
ENDBRANCH   7   8
ENDBRANCH   4   7
BRANCH   3  17
HETATM   17  N   UNL     1      41.943  -9.910   3.658  1.00  0.00    -0.234 N 
HETATM   18  H   UNL     1      41.459  -9.679   2.807  1.00  0.00     0.174 HD
HETATM   19  H   UNL     1      42.086  -9.152   4.329  1.00  0.00     0.174 HD
ENDBRANCH   3  17
BRANCH   6  20
HETATM   20  C   UNL     1      42.892 -14.770   3.520  1.00  0.00    -0.004 A 
HETATM   21  C   UNL     1      43.198 -15.746   4.484  1.00  0.00     0.053 A 
HETATM   22  C   UNL     1      43.474 -17.026   4.049  1.00  0.00     0.106 A 
HETATM   23  C   UNL     1      43.462 -17.361   2.718  1.00  0.00     0.105 A 
HETATM   24  O   UNL     1      43.779 -18.083   4.847  1.00  0.00    -0.323 OA
HETATM   25  O   UNL     1      43.758 -18.668   2.509  1.00  0.00    -0.323 OA
HETATM   26  C   UNL     1      43.182 -16.428   1.746  1.00  0.00     0.040 A 
HETATM   27  C   UNL     1      43.960 -19.126   3.863  1.00  0.00     0.352 A 
HETATM   28  C   UNL     1      42.900 -15.117   2.154  1.00  0.00     0.017 A 
ENDBRANCH   6  20
TORSDOF 5
ENDMDL
