MODEL 1
REMARK VINA RESULT:      -8.5      0.000      0.000
REMARK  12 active torsions:
REMARK  status: ('A' for Active; 'I' for Inactive)
REMARK    1  A    between atoms: C_2  and  N_3 
REMARK    2  A    between atoms: N_3  and  C_5 
REMARK    3  A    between atoms: N_3  and  C_37 
REMARK    4  A    between atoms: C_5  and  C_6 
REMARK    5  A    between atoms: C_6  and  N_7 
REMARK    6  A    between atoms: N_7  and  C_8 
REMARK    7  A    between atoms: N_7  and  C_21 
REMARK    8  A    between atoms: C_8  and  N_9 
REMARK    9  A    between atoms: N_9  and  C_10 
REMARK   10  A    between atoms: C_11  and  C_12 
REMARK   11  A    between atoms: C_12  and  O_13 
REMARK   12  A    between atoms: C_21  and  C_22 
ROOT
HETATM    1  N   UNL     1      41.308 -15.079   2.643  1.00  0.00    -0.352 N 
ENDROOT
BRANCH   1   2
HETATM    2  C   UNL     1      40.369 -15.433   1.562  1.00  0.00     0.153 C 
BRANCH   2   3
HETATM    3  C   UNL     1      40.623 -14.664   0.247  1.00  0.00     0.254 C 
BRANCH   3   4
HETATM    4  N   UNL     1      39.331 -14.073  -0.334  1.00  0.00    -0.070 N 
HETATM    5  H   UNL     1      38.547 -14.409   0.240  1.00  0.00     0.279 HD
BRANCH   4   6
HETATM    6  C   UNL     1      39.093 -14.548  -1.760  1.00  0.00     0.230 C 
HETATM    7  C   UNL     1      38.087 -13.660  -2.473  1.00  0.00     0.034 C 
ENDBRANCH   4   6
BRANCH   4   8
HETATM    8  C   UNL     1      39.339 -12.548  -0.251  1.00  0.00     0.230 C 
HETATM    9  C   UNL     1      40.754 -12.007  -0.370  1.00  0.00     0.034 C 
ENDBRANCH   4   8
ENDBRANCH   3   4
ENDBRANCH   2   3
ENDBRANCH   1   2
BRANCH   1  10
HETATM   10  C   UNL     1      41.621 -15.992   3.689  1.00  0.00     0.174 C 
HETATM   11  S   UNL     1      40.707 -16.164   5.094  1.00  0.00    -0.041 SA
BRANCH  10  12
HETATM   12  N   UNL     1      42.828 -16.633   3.485  1.00  0.00    -0.332 N 
HETATM   13  H   UNL     1      43.634 -16.010   3.413  1.00  0.00     0.168 HD
BRANCH  12  14
HETATM   14  C   UNL     1      43.159 -18.010   3.387  1.00  0.00     0.050 A 
HETATM   15  C   UNL     1      43.677 -18.684   4.522  1.00  0.00     0.066 A 
HETATM   16  C   UNL     1      44.049 -20.038   4.421  1.00  0.00     0.020 A 
HETATM   17  C   UNL     1      43.932 -20.716   3.209  1.00  0.00     0.001 A 
HETATM   18  C   UNL     1      43.458 -20.047   2.087  1.00  0.00     0.002 A 
HETATM   19  C   UNL     1      43.085 -18.703   2.173  1.00  0.00     0.030 A 
BRANCH  15  20
HETATM   20  C   UNL     1      43.885 -17.948   5.809  1.00  0.00     0.295 C 
HETATM   21  O   UNL     1      43.370 -18.286   6.868  1.00  0.00    -0.259 OA
BRANCH  20  22
HETATM   22  O   UNL     1      44.679 -16.862   5.635  1.00  0.00    -0.322 OA
HETATM   23  C   UNL     1      44.392 -15.770   6.510  1.00  0.00     0.213 C 
ENDBRANCH  20  22
ENDBRANCH  15  20
ENDBRANCH  12  14
ENDBRANCH  10  12
ENDBRANCH   1  10
BRANCH   1  24
HETATM   24  C   UNL     1      42.143 -13.872   2.432  1.00  0.00     0.169 C 
BRANCH  24  25
HETATM   25  C   UNL     1      42.244 -12.979   3.637  1.00  0.00     0.029 A 
HETATM   26  C   UNL     1      41.033 -12.214   4.071  1.00  0.00     0.253 A 
HETATM   27  O   UNL     1      39.950 -12.326   3.507  1.00  0.00    -0.268 OA
HETATM   28  N   UNL     1      41.170 -11.392   5.157  1.00  0.00    -0.322 N 
HETATM   29  C   UNL     1      42.378 -11.177   5.828  1.00  0.00     0.048 A 
HETATM   30  H   UNL     1      40.340 -10.879   5.430  1.00  0.00     0.169 HD
HETATM   31  C   UNL     1      43.522 -11.861   5.400  1.00  0.00    -0.006 A 
HETATM   32  C   UNL     1      42.437 -10.279   6.891  1.00  0.00     0.070 A 
HETATM   33  C   UNL     1      44.746 -11.618   6.026  1.00  0.00     0.053 A 
HETATM   34  C   UNL     1      43.411 -12.795   4.281  1.00  0.00     0.028 A 
HETATM   35  C   UNL     1      44.816 -10.696   7.070  1.00  0.00     0.103 A 
HETATM   36  C   UNL     1      43.659 -10.050   7.520  1.00  0.00     0.104 A 
HETATM   37  O   UNL     1      46.057 -10.473   7.608  1.00  0.00    -0.346 OA
HETATM   38  O   UNL     1      43.654  -9.160   8.564  1.00  0.00    -0.346 OA
HETATM   39  C   UNL     1      44.878  -9.211   9.310  1.00  0.00     0.202 C 
HETATM   40  C   UNL     1      46.076  -9.263   8.377  1.00  0.00     0.202 C 
ENDBRANCH  24  25
ENDBRANCH   1  24
TORSDOF 12
ENDMDL
MODEL 2
REMARK VINA RESULT:      -8.1      1.302      1.801
REMARK  12 active torsions:
REMARK  status: ('A' for Active; 'I' for Inactive)
REMARK    1  A    between atoms: C_2  and  N_3 
REMARK    2  A    between atoms: N_3  and  C_5 
REMARK    3  A    between atoms: N_3  and  C_37 
REMARK    4  A    between atoms: C_5  and  C_6 
REMARK    5  A    between atoms: C_6  and  N_7 
REMARK    6  A    between atoms: N_7  and  C_8 
REMARK    7  A    between atoms: N_7  and  C_21 
REMARK    8  A    between atoms: C_8  and  N_9 
REMARK    9  A    between atoms: N_9  and  C_10 
REMARK   10  A    between atoms: C_11  and  C_12 
REMARK   11  A    between atoms: C_12  and  O_13 
REMARK   12  A    between atoms: C_21  and  C_22 
ROOT
HETATM    1  N   UNL     1      42.235 -13.924   2.667  1.00  0.00    -0.352 N 
ENDROOT
BRANCH   1   2
HETATM    2  C   UNL     1      41.599 -14.052   1.343  1.00  0.00     0.153 C 
BRANCH   2   3
HETATM    3  C   UNL     1      40.171 -13.468   1.283  1.00  0.00     0.254 C 
BRANCH   3   4
HETATM    4  N   UNL     1      39.833 -12.910  -0.106  1.00  0.00    -0.070 N 
HETATM    5  H   UNL     1      40.678 -12.456  -0.475  1.00  0.00     0.279 HD
BRANCH   4   6
HETATM    6  C   UNL     1      38.738 -11.855  -0.032  1.00  0.00     0.230 C 
HETATM    7  C   UNL     1      38.284 -11.636   1.402  1.00  0.00     0.034 C 
ENDBRANCH   4   6
BRANCH   4   8
HETATM    8  C   UNL     1      39.458 -14.032  -1.071  1.00  0.00     0.230 C 
HETATM    9  C   UNL     1      38.341 -13.594  -2.004  1.00  0.00     0.034 C 
ENDBRANCH   4   8
ENDBRANCH   3   4
ENDBRANCH   2   3
ENDBRANCH   1   2
BRANCH   1  10
HETATM   10  C   UNL     1      42.114 -14.940   3.656  1.00  0.00     0.174 C 
HETATM   11  S   UNL     1      40.793 -15.096   4.690  1.00  0.00    -0.041 SA
BRANCH  10  12
HETATM   12  N   UNL     1      43.255 -15.711   3.761  1.00  0.00    -0.332 N 
HETATM   13  H   UNL     1      44.117 -15.180   3.897  1.00  0.00     0.168 HD
BRANCH  12  14
HETATM   14  C   UNL     1      43.447 -17.118   3.744  1.00  0.00     0.050 A 
HETATM   15  C   UNL     1      43.895 -17.773   4.920  1.00  0.00     0.066 A 
HETATM   16  C   UNL     1      44.130 -19.160   4.900  1.00  0.00     0.020 A 
HETATM   17  C   UNL     1      43.947 -19.893   3.729  1.00  0.00     0.001 A 
HETATM   18  C   UNL     1      43.544 -19.246   2.567  1.00  0.00     0.002 A 
HETATM   19  C   UNL     1      43.306 -17.869   2.572  1.00  0.00     0.030 A 
BRANCH  15  20
HETATM   20  C   UNL     1      44.174 -16.987   6.164  1.00  0.00     0.295 C 
HETATM   21  O   UNL     1      45.207 -16.352   6.341  1.00  0.00    -0.259 OA
BRANCH  20  22
HETATM   22  O   UNL     1      43.160 -17.099   7.057  1.00  0.00    -0.322 OA
HETATM   23  C   UNL     1      42.803 -15.878   7.707  1.00  0.00     0.213 C 
ENDBRANCH  20  22
ENDBRANCH  15  20
ENDBRANCH  12  14
ENDBRANCH  10  12
ENDBRANCH   1  10
BRANCH   1  24
HETATM   24  C   UNL     1      43.252 -12.855   2.817  1.00  0.00     0.169 C 
BRANCH  24  25
HETATM   25  C   UNL     1      43.074 -12.008   4.047  1.00  0.00     0.029 A 
HETATM   26  C   UNL     1      42.139 -10.841   3.990  1.00  0.00     0.253 A 
HETATM   27  O   UNL     1      41.479 -10.579   2.991  1.00  0.00    -0.268 OA
HETATM   28  N   UNL     1      42.022 -10.080   5.121  1.00  0.00    -0.322 N 
HETATM   29  C   UNL     1      42.771 -10.286   6.284  1.00  0.00     0.048 A 
HETATM   30  H   UNL     1      41.389  -9.291   5.059  1.00  0.00     0.169 HD
HETATM   31  C   UNL     1      43.676 -11.354   6.327  1.00  0.00    -0.006 A 
HETATM   32  C   UNL     1      42.626  -9.426   7.370  1.00  0.00     0.070 A 
HETATM   33  C   UNL     1      44.467 -11.543   7.462  1.00  0.00     0.053 A 
HETATM   34  C   UNL     1      43.791 -12.231   5.164  1.00  0.00     0.028 A 
HETATM   35  C   UNL     1      44.349 -10.665   8.539  1.00  0.00     0.103 A 
HETATM   36  C   UNL     1      43.411  -9.627   8.505  1.00  0.00     0.104 A 
HETATM   37  O   UNL     1      45.189 -10.881   9.601  1.00  0.00    -0.346 OA
HETATM   38  O   UNL     1      43.220  -8.752   9.544  1.00  0.00    -0.346 OA
HETATM   39  C   UNL     1      43.857  -9.209  10.746  1.00  0.00     0.202 C 
HETATM   40  C   UNL     1      45.254  -9.728  10.451  1.00  0.00     0.202 C 
ENDBRANCH  24  25
ENDBRANCH   1  24
TORSDOF 12
ENDMDL
MODEL 3
REMARK VINA RESULT:      -7.9      2.711      6.518
REMARK  12 active torsions:
REMARK  status: ('A' for Active; 'I' for Inactive)
REMARK    1  A    between atoms: C_2  and  N_3 
REMARK    2  A    between atoms: N_3  and  C_5 
REMARK    3  A    between atoms: N_3  and  C_37 
REMARK    4  A    between atoms: C_5  and  C_6 
REMARK    5  A    between atoms: C_6  and  N_7 
REMARK    6  A    between atoms: N_7  and  C_8 
REMARK    7  A    between atoms: N_7  and  C_21 
REMARK    8  A    between atoms: C_8  and  N_9 
REMARK    9  A    between atoms: N_9  and  C_10 
REMARK   10  A    between atoms: C_11  and  C_12 
REMARK   11  A    between atoms: C_12  and  O_13 
REMARK   12  A    between atoms: C_21  and  C_22 
ROOT
HETATM    1  N   UNL     1      39.976 -10.757   2.766  1.00  0.00    -0.352 N 
ENDROOT
BRANCH   1   2
HETATM    2  C   UNL     1      40.203 -10.905   1.317  1.00  0.00     0.153 C 
BRANCH   2   3
HETATM    3  C   UNL     1      41.349 -11.879   0.966  1.00  0.00     0.254 C 
BRANCH   3   4
HETATM    4  N   UNL     1      41.086 -12.631  -0.345  1.00  0.00    -0.070 N 
HETATM    5  H   UNL     1      41.857 -13.298  -0.484  1.00  0.00     0.279 HD
BRANCH   4   6
HETATM    6  C   UNL     1      41.075 -11.686  -1.538  1.00  0.00     0.230 C 
HETATM    7  C   UNL     1      41.080 -12.457  -2.848  1.00  0.00     0.034 C 
ENDBRANCH   4   6
BRANCH   4   8
HETATM    8  C   UNL     1      39.792 -13.439  -0.264  1.00  0.00     0.230 C 
HETATM    9  C   UNL     1      40.070 -14.862   0.190  1.00  0.00     0.034 C 
ENDBRANCH   4   8
ENDBRANCH   3   4
ENDBRANCH   2   3
ENDBRANCH   1   2
BRANCH   1  10
HETATM   10  C   UNL     1      40.402  -9.600   3.475  1.00  0.00     0.174 C 
HETATM   11  S   UNL     1      39.445  -8.232   3.707  1.00  0.00    -0.041 SA
BRANCH  10  12
HETATM   12  N   UNL     1      41.731  -9.667   3.846  1.00  0.00    -0.332 N 
HETATM   13  H   UNL     1      42.319  -8.929   3.457  1.00  0.00     0.168 HD
BRANCH  12  14
HETATM   14  C   UNL     1      42.427 -10.563   4.699  1.00  0.00     0.050 A 
HETATM   15  C   UNL     1      42.435 -10.328   6.098  1.00  0.00     0.066 A 
HETATM   16  C   UNL     1      43.159 -11.187   6.946  1.00  0.00     0.020 A 
HETATM   17  C   UNL     1      43.886 -12.253   6.421  1.00  0.00     0.001 A 
HETATM   18  C   UNL     1      43.910 -12.463   5.048  1.00  0.00     0.002 A 
HETATM   19  C   UNL     1      43.195 -11.619   4.193  1.00  0.00     0.030 A 
BRANCH  15  20
HETATM   20  C   UNL     1      41.725  -9.140   6.669  1.00  0.00     0.295 C 
HETATM   21  O   UNL     1      41.949  -7.989   6.315  1.00  0.00    -0.259 OA
BRANCH  20  22
HETATM   22  O   UNL     1      40.843  -9.506   7.631  1.00  0.00    -0.322 OA
HETATM   23  C   UNL     1      40.987  -8.803   8.867  1.00  0.00     0.213 C 
ENDBRANCH  20  22
ENDBRANCH  15  20
ENDBRANCH  12  14
ENDBRANCH  10  12
ENDBRANCH   1  10
BRANCH   1  24
HETATM   24  C   UNL     1      39.021 -11.705   3.390  1.00  0.00     0.169 C 
BRANCH  24  25
HETATM   25  C   UNL     1      39.675 -12.772   4.224  1.00  0.00     0.029 A 
HETATM   26  C   UNL     1      39.629 -12.650   5.715  1.00  0.00     0.253 A 
HETATM   27  O   UNL     1      39.040 -11.736   6.280  1.00  0.00    -0.268 OA
HETATM   28  N   UNL     1      40.255 -13.628   6.440  1.00  0.00    -0.322 N 
HETATM   29  C   UNL     1      40.984 -14.677   5.873  1.00  0.00     0.048 A 
HETATM   30  H   UNL     1      40.218 -13.522   7.447  1.00  0.00     0.169 HD
HETATM   31  C   UNL     1      41.061 -14.772   4.478  1.00  0.00    -0.006 A 
HETATM   32  C   UNL     1      41.637 -15.597   6.690  1.00  0.00     0.070 A 
HETATM   33  C   UNL     1      41.828 -15.785   3.896  1.00  0.00     0.053 A 
HETATM   34  C   UNL     1      40.359 -13.785   3.661  1.00  0.00     0.028 A 
HETATM   35  C   UNL     1      42.509 -16.688   4.711  1.00  0.00     0.103 A 
HETATM   36  C   UNL     1      42.390 -16.613   6.103  1.00  0.00     0.104 A 
HETATM   37  O   UNL     1      43.279 -17.627   4.075  1.00  0.00    -0.346 OA
HETATM   38  O   UNL     1      43.005 -17.492   6.958  1.00  0.00    -0.346 OA
HETATM   39  C   UNL     1      43.508 -18.642   6.265  1.00  0.00     0.202 C 
HETATM   40  C   UNL     1      44.211 -18.232   4.981  1.00  0.00     0.202 C 
ENDBRANCH  24  25
ENDBRANCH   1  24
TORSDOF 12
ENDMDL
MODEL 4
REMARK VINA RESULT:      -7.9      2.050      7.131
REMARK  12 active torsions:
REMARK  status: ('A' for Active; 'I' for Inactive)
REMARK    1  A    between atoms: C_2  and  N_3 
REMARK    2  A    between atoms: N_3  and  C_5 
REMARK    3  A    between atoms: N_3  and  C_37 
REMARK    4  A    between atoms: C_5  and  C_6 
REMARK    5  A    between atoms: C_6  and  N_7 
REMARK    6  A    between atoms: N_7  and  C_8 
REMARK    7  A    between atoms: N_7  and  C_21 
REMARK    8  A    between atoms: C_8  and  N_9 
REMARK    9  A    between atoms: N_9  and  C_10 
REMARK   10  A    between atoms: C_11  and  C_12 
REMARK   11  A    between atoms: C_12  and  O_13 
REMARK   12  A    between atoms: C_21  and  C_22 
ROOT
HETATM    1  N   UNL     1      42.572 -13.599   4.670  1.00  0.00    -0.352 N 
ENDROOT
BRANCH   1   2
HETATM    2  C   UNL     1      42.355 -12.981   5.991  1.00  0.00     0.153 C 
BRANCH   2   3
HETATM    3  C   UNL     1      43.662 -12.671   6.751  1.00  0.00     0.254 C 
BRANCH   3   4
HETATM    4  N   UNL     1      43.547 -11.399   7.603  1.00  0.00    -0.070 N 
HETATM    5  H   UNL     1      43.261 -11.682   8.550  1.00  0.00     0.279 HD
BRANCH   4   6
HETATM    6  C   UNL     1      42.479 -10.460   7.061  1.00  0.00     0.230 C 
HETATM    7  C   UNL     1      42.738  -9.027   7.497  1.00  0.00     0.034 C 
ENDBRANCH   4   6
BRANCH   4   8
HETATM    8  C   UNL     1      44.896 -10.695   7.724  1.00  0.00     0.230 C 
HETATM    9  C   UNL     1      45.872 -11.211   6.679  1.00  0.00     0.034 C 
ENDBRANCH   4   8
ENDBRANCH   3   4
ENDBRANCH   2   3
ENDBRANCH   1   2
BRANCH   1  10
HETATM   10  C   UNL     1      42.190 -14.943   4.401  1.00  0.00     0.174 C 
HETATM   11  S   UNL     1      40.707 -15.607   4.848  1.00  0.00    -0.041 SA
BRANCH  10  12
HETATM   12  N   UNL     1      43.216 -15.682   3.846  1.00  0.00    -0.332 N 
HETATM   13  H   UNL     1      43.964 -15.126   3.429  1.00  0.00     0.168 HD
BRANCH  12  14
HETATM   14  C   UNL     1      43.439 -17.082   3.777  1.00  0.00     0.050 A 
HETATM   15  C   UNL     1      43.941 -17.765   4.915  1.00  0.00     0.066 A 
HETATM   16  C   UNL     1      44.206 -19.145   4.840  1.00  0.00     0.020 A 
HETATM   17  C   UNL     1      43.999 -19.843   3.652  1.00  0.00     0.001 A 
HETATM   18  C   UNL     1      43.543 -19.169   2.526  1.00  0.00     0.002 A 
HETATM   19  C   UNL     1      43.275 -17.799   2.585  1.00  0.00     0.030 A 
BRANCH  15  20
HETATM   20  C   UNL     1      44.244 -17.014   6.174  1.00  0.00     0.295 C 
HETATM   21  O   UNL     1      45.241 -16.316   6.317  1.00  0.00    -0.259 OA
BRANCH  20  22
HETATM   22  O   UNL     1      43.299 -17.235   7.121  1.00  0.00    -0.322 OA
HETATM   23  C   UNL     1      42.965 -16.088   7.905  1.00  0.00     0.213 C 
ENDBRANCH  20  22
ENDBRANCH  15  20
ENDBRANCH  12  14
ENDBRANCH  10  12
ENDBRANCH   1  10
BRANCH   1  24
HETATM   24  C   UNL     1      42.910 -12.683   3.555  1.00  0.00     0.169 C 
BRANCH  24  25
HETATM   25  C   UNL     1      41.813 -12.526   2.537  1.00  0.00     0.029 A 
HETATM   26  C   UNL     1      40.706 -11.559   2.815  1.00  0.00     0.253 A 
HETATM   27  O   UNL     1      40.685 -10.857   3.821  1.00  0.00    -0.268 OA
HETATM   28  N   UNL     1      39.713 -11.461   1.878  1.00  0.00    -0.322 N 
HETATM   29  C   UNL     1      39.641 -12.254   0.729  1.00  0.00     0.048 A 
HETATM   30  H   UNL     1      38.970 -10.805   2.090  1.00  0.00     0.169 HD
HETATM   31  C   UNL     1      40.656 -13.188   0.485  1.00  0.00    -0.006 A 
HETATM   32  C   UNL     1      38.563 -12.125  -0.143  1.00  0.00     0.070 A 
HETATM   33  C   UNL     1      40.572 -14.023  -0.631  1.00  0.00     0.053 A 
HETATM   34  C   UNL     1      41.768 -13.287   1.429  1.00  0.00     0.028 A 
HETATM   35  C   UNL     1      39.478 -13.919  -1.489  1.00  0.00     0.103 A 
HETATM   36  C   UNL     1      38.491 -12.953  -1.262  1.00  0.00     0.104 A 
HETATM   37  O   UNL     1      39.437 -14.800  -2.538  1.00  0.00    -0.346 OA
HETATM   38  O   UNL     1      37.410 -12.775  -2.088  1.00  0.00    -0.346 OA
HETATM   39  C   UNL     1      37.576 -13.465  -3.334  1.00  0.00     0.202 C 
HETATM   40  C   UNL     1      38.122 -14.865  -3.107  1.00  0.00     0.202 C 
ENDBRANCH  24  25
ENDBRANCH   1  24
TORSDOF 12
ENDMDL
MODEL 5
REMARK VINA RESULT:      -7.8      2.065      5.705
REMARK  12 active torsions:
REMARK  status: ('A' for Active; 'I' for Inactive)
REMARK    1  A    between atoms: C_2  and  N_3 
REMARK    2  A    between atoms: N_3  and  C_5 
REMARK    3  A    between atoms: N_3  and  C_37 
REMARK    4  A    between atoms: C_5  and  C_6 
REMARK    5  A    between atoms: C_6  and  N_7 
REMARK    6  A    between atoms: N_7  and  C_8 
REMARK    7  A    between atoms: N_7  and  C_21 
REMARK    8  A    between atoms: C_8  and  N_9 
REMARK    9  A    between atoms: N_9  and  C_10 
REMARK   10  A    between atoms: C_11  and  C_12 
REMARK   11  A    between atoms: C_12  and  O_13 
REMARK   12  A    between atoms: C_21  and  C_22 
ROOT
HETATM    1  N   UNL     1      42.210 -15.430   3.135  1.00  0.00    -0.352 N 
ENDROOT
BRANCH   1   2
HETATM    2  C   UNL     1      43.457 -16.165   2.850  1.00  0.00     0.153 C 
BRANCH   2   3
HETATM    3  C   UNL     1      43.230 -17.648   2.483  1.00  0.00     0.254 C 
BRANCH   3   4
HETATM    4  N   UNL     1      44.151 -18.585   3.276  1.00  0.00    -0.070 N 
HETATM    5  H   UNL     1      45.122 -18.334   3.051  1.00  0.00     0.279 HD
BRANCH   4   6
HETATM    6  C   UNL     1      43.946 -20.039   2.875  1.00  0.00     0.230 C 
HETATM    7  C   UNL     1      42.858 -20.169   1.823  1.00  0.00     0.034 C 
ENDBRANCH   4   6
BRANCH   4   8
HETATM    8  C   UNL     1      43.965 -18.393   4.780  1.00  0.00     0.230 C 
HETATM    9  C   UNL     1      43.911 -19.734   5.494  1.00  0.00     0.034 C 
ENDBRANCH   4   8
ENDBRANCH   3   4
ENDBRANCH   2   3
ENDBRANCH   1   2
BRANCH   1  10
HETATM   10  C   UNL     1      41.346 -14.992   2.092  1.00  0.00     0.174 C 
HETATM   11  S   UNL     1      39.882 -15.732   1.709  1.00  0.00    -0.041 SA
BRANCH  10  12
HETATM   12  N   UNL     1      41.898 -13.969   1.346  1.00  0.00    -0.332 N 
HETATM   13  H   UNL     1      42.918 -13.977   1.301  1.00  0.00     0.168 HD
BRANCH  12  14
HETATM   14  C   UNL     1      41.302 -12.920   0.598  1.00  0.00     0.050 A 
HETATM   15  C   UNL     1      41.276 -11.608   1.137  1.00  0.00     0.066 A 
HETATM   16  C   UNL     1      40.648 -10.571   0.423  1.00  0.00     0.020 A 
HETATM   17  C   UNL     1      40.032 -10.827  -0.801  1.00  0.00     0.001 A 
HETATM   18  C   UNL     1      40.024 -12.118  -1.313  1.00  0.00     0.002 A 
HETATM   19  C   UNL     1      40.644 -13.157  -0.614  1.00  0.00     0.030 A 
BRANCH  15  20
HETATM   20  C   UNL     1      41.863 -11.334   2.488  1.00  0.00     0.295 C 
HETATM   21  O   UNL     1      42.977 -11.714   2.826  1.00  0.00    -0.259 OA
BRANCH  20  22
HETATM   22  O   UNL     1      40.995 -10.650   3.274  1.00  0.00    -0.322 OA
HETATM   23  C   UNL     1      41.518  -9.437   3.819  1.00  0.00     0.213 C 
ENDBRANCH  20  22
ENDBRANCH  15  20
ENDBRANCH  12  14
ENDBRANCH  10  12
ENDBRANCH   1  10
BRANCH   1  24
HETATM   24  C   UNL     1      41.738 -15.440   4.540  1.00  0.00     0.169 C 
BRANCH  24  25
HETATM   25  C   UNL     1      42.022 -14.169   5.291  1.00  0.00     0.029 A 
HETATM   26  C   UNL     1      40.909 -13.191   5.500  1.00  0.00     0.253 A 
HETATM   27  O   UNL     1      39.764 -13.410   5.121  1.00  0.00    -0.268 OA
HETATM   28  N   UNL     1      41.211 -12.035   6.167  1.00  0.00    -0.322 N 
HETATM   29  C   UNL     1      42.498 -11.691   6.593  1.00  0.00     0.048 A 
HETATM   30  H   UNL     1      40.444 -11.384   6.292  1.00  0.00     0.169 HD
HETATM   31  C   UNL     1      43.550 -12.586   6.364  1.00  0.00    -0.006 A 
HETATM   32  C   UNL     1      42.724 -10.465   7.216  1.00  0.00     0.070 A 
HETATM   33  C   UNL     1      44.848 -12.235   6.737  1.00  0.00     0.053 A 
HETATM   34  C   UNL     1      43.264 -13.861   5.708  1.00  0.00     0.028 A 
HETATM   35  C   UNL     1      45.084 -10.996   7.331  1.00  0.00     0.103 A 
HETATM   36  C   UNL     1      44.021 -10.126   7.597  1.00  0.00     0.104 A 
HETATM   37  O   UNL     1      46.389 -10.698   7.629  1.00  0.00    -0.346 OA
HETATM   38  O   UNL     1      44.181  -8.910   8.211  1.00  0.00    -0.346 OA
HETATM   39  C   UNL     1      45.479  -8.783   8.807  1.00  0.00     0.202 C 
HETATM   40  C   UNL     1      46.557  -9.294   7.865  1.00  0.00     0.202 C 
ENDBRANCH  24  25
ENDBRANCH   1  24
TORSDOF 12
ENDMDL
MODEL 6
REMARK VINA RESULT:      -7.8      2.672      8.671
REMARK  12 active torsions:
REMARK  status: ('A' for Active; 'I' for Inactive)
REMARK    1  A    between atoms: C_2  and  N_3 
REMARK    2  A    between atoms: N_3  and  C_5 
REMARK    3  A    between atoms: N_3  and  C_37 
REMARK    4  A    between atoms: C_5  and  C_6 
REMARK    5  A    between atoms: C_6  and  N_7 
REMARK    6  A    between atoms: N_7  and  C_8 
REMARK    7  A    between atoms: N_7  and  C_21 
REMARK    8  A    between atoms: C_8  and  N_9 
REMARK    9  A    between atoms: N_9  and  C_10 
REMARK   10  A    between atoms: C_11  and  C_12 
REMARK   11  A    between atoms: C_12  and  O_13 
REMARK   12  A    between atoms: C_21  and  C_22 
ROOT
HETATM    1  N   UNL     1      42.063 -12.211   5.095  1.00  0.00    -0.352 N 
ENDROOT
BRANCH   1   2
HETATM    2  C   UNL     1      41.820 -13.525   5.719  1.00  0.00     0.153 C 
BRANCH   2   3
HETATM    3  C   UNL     1      43.058 -14.447   5.721  1.00  0.00     0.254 C 
BRANCH   3   4
HETATM    4  N   UNL     1      42.837 -15.711   4.880  1.00  0.00    -0.070 N 
HETATM    5  H   UNL     1      42.989 -15.462   3.894  1.00  0.00     0.279 HD
BRANCH   4   6
HETATM    6  C   UNL     1      41.411 -16.226   5.010  1.00  0.00     0.230 C 
HETATM    7  C   UNL     1      40.707 -16.235   3.664  1.00  0.00     0.034 C 
ENDBRANCH   4   6
BRANCH   4   8
HETATM    8  C   UNL     1      43.853 -16.794   5.240  1.00  0.00     0.230 C 
HETATM    9  C   UNL     1      44.599 -16.434   6.514  1.00  0.00     0.034 C 
ENDBRANCH   4   8
ENDBRANCH   3   4
ENDBRANCH   2   3
ENDBRANCH   1   2
BRANCH   1  10
HETATM   10  C   UNL     1      41.841 -10.995   5.800  1.00  0.00     0.174 C 
HETATM   11  S   UNL     1      41.034  -9.665   5.153  1.00  0.00    -0.041 SA
BRANCH  10  12
HETATM   12  N   UNL     1      42.468 -10.978   7.031  1.00  0.00    -0.332 N 
HETATM   13  H   UNL     1      41.928 -11.397   7.790  1.00  0.00     0.168 HD
BRANCH  12  14
HETATM   14  C   UNL     1      43.747 -10.510   7.430  1.00  0.00     0.050 A 
HETATM   15  C   UNL     1      43.855  -9.263   8.099  1.00  0.00     0.066 A 
HETATM   16  C   UNL     1      45.123  -8.771   8.459  1.00  0.00     0.020 A 
HETATM   17  C   UNL     1      46.276  -9.489   8.146  1.00  0.00     0.001 A 
HETATM   18  C   UNL     1      46.175 -10.692   7.459  1.00  0.00     0.002 A 
HETATM   19  C   UNL     1      44.922 -11.193   7.095  1.00  0.00     0.030 A 
BRANCH  15  20
HETATM   20  C   UNL     1      42.632  -8.443   8.370  1.00  0.00     0.295 C 
HETATM   21  O   UNL     1      42.471  -7.310   7.932  1.00  0.00    -0.259 OA
BRANCH  20  22
HETATM   22  O   UNL     1      41.762  -9.103   9.174  1.00  0.00    -0.322 OA
HETATM   23  C   UNL     1      42.212  -9.274  10.520  1.00  0.00     0.213 C 
ENDBRANCH  20  22
ENDBRANCH  15  20
ENDBRANCH  12  14
ENDBRANCH  10  12
ENDBRANCH   1  10
BRANCH   1  24
HETATM   24  C   UNL     1      42.837 -12.208   3.830  1.00  0.00     0.169 C 
BRANCH  24  25
HETATM   25  C   UNL     1      42.065 -12.704   2.638  1.00  0.00     0.029 A 
HETATM   26  C   UNL     1      42.598 -13.872   1.869  1.00  0.00     0.253 A 
HETATM   27  O   UNL     1      43.617 -14.467   2.204  1.00  0.00    -0.268 OA
HETATM   28  N   UNL     1      41.881 -14.279   0.777  1.00  0.00    -0.322 N 
HETATM   29  C   UNL     1      40.737 -13.629   0.305  1.00  0.00     0.048 A 
HETATM   30  H   UNL     1      42.264 -15.067   0.267  1.00  0.00     0.169 HD
HETATM   31  C   UNL     1      40.257 -12.511   1.000  1.00  0.00    -0.006 A 
HETATM   32  C   UNL     1      40.101 -14.081  -0.849  1.00  0.00     0.070 A 
HETATM   33  C   UNL     1      39.145 -11.821   0.513  1.00  0.00     0.053 A 
HETATM   34  C   UNL     1      40.956 -12.075   2.207  1.00  0.00     0.028 A 
HETATM   35  C   UNL     1      38.526 -12.251  -0.660  1.00  0.00     0.103 A 
HETATM   36  C   UNL     1      38.985 -13.394  -1.323  1.00  0.00     0.104 A 
HETATM   37  O   UNL     1      37.470 -11.499  -1.106  1.00  0.00    -0.346 OA
HETATM   38  O   UNL     1      38.398 -13.889  -2.460  1.00  0.00    -0.346 OA
HETATM   39  C   UNL     1      37.116 -13.294  -2.698  1.00  0.00     0.202 C 
HETATM   40  C   UNL     1      37.170 -11.791  -2.477  1.00  0.00     0.202 C 
ENDBRANCH  24  25
ENDBRANCH   1  24
TORSDOF 12
ENDMDL
MODEL 7
REMARK VINA RESULT:      -7.7      3.020      8.247
REMARK  12 active torsions:
REMARK  status: ('A' for Active; 'I' for Inactive)
REMARK    1  A    between atoms: C_2  and  N_3 
REMARK    2  A    between atoms: N_3  and  C_5 
REMARK    3  A    between atoms: N_3  and  C_37 
REMARK    4  A    between atoms: C_5  and  C_6 
REMARK    5  A    between atoms: C_6  and  N_7 
REMARK    6  A    between atoms: N_7  and  C_8 
REMARK    7  A    between atoms: N_7  and  C_21 
REMARK    8  A    between atoms: C_8  and  N_9 
REMARK    9  A    between atoms: N_9  and  C_10 
REMARK   10  A    between atoms: C_11  and  C_12 
REMARK   11  A    between atoms: C_12  and  O_13 
REMARK   12  A    between atoms: C_21  and  C_22 
ROOT
HETATM    1  N   UNL     1      40.992 -12.197   2.232  1.00  0.00    -0.352 N 
ENDROOT
BRANCH   1   2
HETATM    2  C   UNL     1      40.133 -11.921   3.399  1.00  0.00     0.153 C 
BRANCH   2   3
HETATM    3  C   UNL     1      39.581 -13.194   4.075  1.00  0.00     0.254 C 
BRANCH   3   4
HETATM    4  N   UNL     1      39.492 -13.046   5.599  1.00  0.00    -0.070 N 
HETATM    5  H   UNL     1      38.505 -13.150   5.867  1.00  0.00     0.279 HD
BRANCH   4   6
HETATM    6  C   UNL     1      39.951 -11.668   6.054  1.00  0.00     0.230 C 
HETATM    7  C   UNL     1      38.802 -10.882   6.662  1.00  0.00     0.034 C 
ENDBRANCH   4   6
BRANCH   4   8
HETATM    8  C   UNL     1      40.275 -14.152   6.304  1.00  0.00     0.230 C 
HETATM    9  C   UNL     1      40.131 -15.473   5.566  1.00  0.00     0.034 C 
ENDBRANCH   4   8
ENDBRANCH   3   4
ENDBRANCH   2   3
ENDBRANCH   1   2
BRANCH   1  10
HETATM   10  C   UNL     1      40.540 -11.974   0.901  1.00  0.00     0.174 C 
HETATM   11  S   UNL     1      41.109 -10.737  -0.091  1.00  0.00    -0.041 SA
BRANCH  10  12
HETATM   12  N   UNL     1      39.491 -12.803   0.555  1.00  0.00    -0.332 N 
HETATM   13  H   UNL     1      38.929 -13.131   1.342  1.00  0.00     0.168 HD
BRANCH  12  14
HETATM   14  C   UNL     1      39.029 -13.262  -0.707  1.00  0.00     0.050 A 
HETATM   15  C   UNL     1      38.039 -12.517  -1.399  1.00  0.00     0.066 A 
HETATM   16  C   UNL     1      37.544 -12.988  -2.629  1.00  0.00     0.020 A 
HETATM   17  C   UNL     1      38.003 -14.190  -3.164  1.00  0.00     0.001 A 
HETATM   18  C   UNL     1      38.946 -14.939  -2.470  1.00  0.00     0.002 A 
HETATM   19  C   UNL     1      39.446 -14.484  -1.247  1.00  0.00     0.030 A 
BRANCH  15  20
HETATM   20  C   UNL     1      37.478 -11.265  -0.798  1.00  0.00     0.295 C 
HETATM   21  O   UNL     1      36.946 -11.229   0.305  1.00  0.00    -0.259 OA
BRANCH  20  22
HETATM   22  O   UNL     1      37.611 -10.211  -1.640  1.00  0.00    -0.322 OA
HETATM   23  C   UNL     1      37.745  -8.946  -0.990  1.00  0.00     0.213 C 
ENDBRANCH  20  22
ENDBRANCH  15  20
ENDBRANCH  12  14
ENDBRANCH  10  12
ENDBRANCH   1  10
BRANCH   1  24
HETATM   24  C   UNL     1      42.434 -12.413   2.503  1.00  0.00     0.169 C 
BRANCH  24  25
HETATM   25  C   UNL     1      42.750 -13.759   3.095  1.00  0.00     0.029 A 
HETATM   26  C   UNL     1      43.278 -13.826   4.493  1.00  0.00     0.253 A 
HETATM   27  O   UNL     1      43.418 -12.826   5.190  1.00  0.00    -0.268 OA
HETATM   28  N   UNL     1      43.578 -15.066   4.989  1.00  0.00    -0.322 N 
HETATM   29  C   UNL     1      43.488 -16.247   4.247  1.00  0.00     0.048 A 
HETATM   30  H   UNL     1      43.940 -15.087   5.935  1.00  0.00     0.169 HD
HETATM   31  C   UNL     1      43.032 -16.184   2.924  1.00  0.00    -0.006 A 
HETATM   32  C   UNL     1      43.868 -17.461   4.816  1.00  0.00     0.070 A 
HETATM   33  C   UNL     1      42.985 -17.348   2.154  1.00  0.00     0.053 A 
HETATM   34  C   UNL     1      42.643 -14.888   2.371  1.00  0.00     0.028 A 
HETATM   35  C   UNL     1      43.395 -18.559   2.710  1.00  0.00     0.103 A 
HETATM   36  C   UNL     1      43.808 -18.621   4.045  1.00  0.00     0.104 A 
HETATM   37  O   UNL     1      43.367 -19.653   1.883  1.00  0.00    -0.346 OA
HETATM   38  O   UNL     1      44.188 -19.786   4.661  1.00  0.00    -0.346 OA
HETATM   39  C   UNL     1      43.825 -20.938   3.888  1.00  0.00     0.202 C 
HETATM   40  C   UNL     1      44.153 -20.726   2.419  1.00  0.00     0.202 C 
ENDBRANCH  24  25
ENDBRANCH   1  24
TORSDOF 12
ENDMDL
MODEL 8
REMARK VINA RESULT:      -7.6      2.366      3.923
REMARK  12 active torsions:
REMARK  status: ('A' for Active; 'I' for Inactive)
REMARK    1  A    between atoms: C_2  and  N_3 
REMARK    2  A    between atoms: N_3  and  C_5 
REMARK    3  A    between atoms: N_3  and  C_37 
REMARK    4  A    between atoms: C_5  and  C_6 
REMARK    5  A    between atoms: C_6  and  N_7 
REMARK    6  A    between atoms: N_7  and  C_8 
REMARK    7  A    between atoms: N_7  and  C_21 
REMARK    8  A    between atoms: C_8  and  N_9 
REMARK    9  A    between atoms: N_9  and  C_10 
REMARK   10  A    between atoms: C_11  and  C_12 
REMARK   11  A    between atoms: C_12  and  O_13 
REMARK   12  A    between atoms: C_21  and  C_22 
ROOT
HETATM    1  N   UNL     1      41.761 -11.902   4.625  1.00  0.00    -0.352 N 
ENDROOT
BRANCH   1   2
HETATM    2  C   UNL     1      40.828 -11.265   3.678  1.00  0.00     0.153 C 
BRANCH   2   3
HETATM    3  C   UNL     1      40.472 -12.154   2.467  1.00  0.00     0.254 C 
BRANCH   3   4
HETATM    4  N   UNL     1      41.411 -11.912   1.278  1.00  0.00    -0.070 N 
HETATM    5  H   UNL     1      42.343 -12.262   1.537  1.00  0.00     0.279 HD
BRANCH   4   6
HETATM    6  C   UNL     1      41.548 -10.428   0.968  1.00  0.00     0.230 C 
HETATM    7  C   UNL     1      41.320 -10.154  -0.509  1.00  0.00     0.034 C 
ENDBRANCH   4   6
BRANCH   4   8
HETATM    8  C   UNL     1      40.954 -12.696   0.049  1.00  0.00     0.230 C 
HETATM    9  C   UNL     1      39.833 -13.657   0.407  1.00  0.00     0.034 C 
ENDBRANCH   4   8
ENDBRANCH   3   4
ENDBRANCH   2   3
ENDBRANCH   1   2
BRANCH   1  10
HETATM   10  C   UNL     1      41.615 -13.262   5.018  1.00  0.00     0.174 C 
HETATM   11  S   UNL     1      40.313 -13.848   5.915  1.00  0.00    -0.041 SA
BRANCH  10  12
HETATM   12  N   UNL     1      42.718 -14.026   4.694  1.00  0.00    -0.332 N 
HETATM   13  H   UNL     1      43.588 -13.729   5.138  1.00  0.00     0.168 HD
BRANCH  12  14
HETATM   14  C   UNL     1      42.860 -15.176   3.874  1.00  0.00     0.050 A 
HETATM   15  C   UNL     1      43.378 -16.372   4.435  1.00  0.00     0.066 A 
HETATM   16  C   UNL     1      43.562 -17.504   3.618  1.00  0.00     0.020 A 
HETATM   17  C   UNL     1      43.260 -17.453   2.259  1.00  0.00     0.001 A 
HETATM   18  C   UNL     1      42.788 -16.272   1.701  1.00  0.00     0.002 A 
HETATM   19  C   UNL     1      42.599 -15.141   2.499  1.00  0.00     0.030 A 
BRANCH  15  20
HETATM   20  C   UNL     1      43.783 -16.417   5.876  1.00  0.00     0.295 C 
HETATM   21  O   UNL     1      44.951 -16.454   6.245  1.00  0.00    -0.259 OA
BRANCH  20  22
HETATM   22  O   UNL     1      42.701 -16.442   6.693  1.00  0.00    -0.322 OA
HETATM   23  C   UNL     1      42.857 -15.706   7.907  1.00  0.00     0.213 C 
ENDBRANCH  20  22
ENDBRANCH  15  20
ENDBRANCH  12  14
ENDBRANCH  10  12
ENDBRANCH   1  10
BRANCH   1  24
HETATM   24  C   UNL     1      43.024 -11.177   4.905  1.00  0.00     0.169 C 
BRANCH  24  25
HETATM   25  C   UNL     1      43.226 -10.837   6.356  1.00  0.00     0.029 A 
HETATM   26  C   UNL     1      44.103 -11.720   7.187  1.00  0.00     0.253 A 
HETATM   27  O   UNL     1      44.698 -12.683   6.717  1.00  0.00    -0.268 OA
HETATM   28  N   UNL     1      44.244 -11.393   8.509  1.00  0.00    -0.322 N 
HETATM   29  C   UNL     1      43.567 -10.339   9.130  1.00  0.00     0.048 A 
HETATM   30  H   UNL     1      44.837 -12.008   9.055  1.00  0.00     0.169 HD
HETATM   31  C   UNL     1      42.715  -9.535   8.364  1.00  0.00    -0.006 A 
HETATM   32  C   UNL     1      43.729 -10.113  10.495  1.00  0.00     0.070 A 
HETATM   33  C   UNL     1      41.994  -8.511   8.980  1.00  0.00     0.053 A 
HETATM   34  C   UNL     1      42.579  -9.809   6.935  1.00  0.00     0.028 A 
HETATM   35  C   UNL     1      42.128  -8.301  10.352  1.00  0.00     0.103 A 
HETATM   36  C   UNL     1      43.015  -9.081  11.102  1.00  0.00     0.104 A 
HETATM   37  O   UNL     1      41.355  -7.310  10.899  1.00  0.00    -0.346 OA
HETATM   38  O   UNL     1      43.219  -8.903  12.447  1.00  0.00    -0.346 OA
HETATM   39  C   UNL     1      42.667  -7.662  12.908  1.00  0.00     0.202 C 
HETATM   40  C   UNL     1      41.281  -7.439  12.325  1.00  0.00     0.202 C 
ENDBRANCH  24  25
ENDBRANCH   1  24
TORSDOF 12
ENDMDL
MODEL 9
REMARK VINA RESULT:      -7.6      2.700      6.243
REMARK  12 active torsions:
REMARK  status: ('A' for Active; 'I' for Inactive)
REMARK    1  A    between atoms: C_2  and  N_3 
REMARK    2  A    between atoms: N_3  and  C_5 
REMARK    3  A    between atoms: N_3  and  C_37 
REMARK    4  A    between atoms: C_5  and  C_6 
REMARK    5  A    between atoms: C_6  and  N_7 
REMARK    6  A    between atoms: N_7  and  C_8 
REMARK    7  A    between atoms: N_7  and  C_21 
REMARK    8  A    between atoms: C_8  and  N_9 
REMARK    9  A    between atoms: N_9  and  C_10 
REMARK   10  A    between atoms: C_11  and  C_12 
REMARK   11  A    between atoms: C_12  and  O_13 
REMARK   12  A    between atoms: C_21  and  C_22 
ROOT
HETATM    1  N   UNL     1      41.865 -14.496   2.568  1.00  0.00    -0.352 N 
ENDROOT
BRANCH   1   2
HETATM    2  C   UNL     1      41.839 -15.719   3.392  1.00  0.00     0.153 C 
BRANCH   2   3
HETATM    3  C   UNL     1      43.154 -16.525   3.343  1.00  0.00     0.254 C 
BRANCH   3   4
HETATM    4  N   UNL     1      43.376 -17.344   4.622  1.00  0.00    -0.070 N 
HETATM    5  H   UNL     1      42.479 -17.780   4.874  1.00  0.00     0.279 HD
BRANCH   4   6
HETATM    6  C   UNL     1      43.801 -16.459   5.785  1.00  0.00     0.230 C 
HETATM    7  C   UNL     1      42.759 -16.471   6.891  1.00  0.00     0.034 C 
ENDBRANCH   4   6
BRANCH   4   8
HETATM    8  C   UNL     1      44.381 -18.470   4.385  1.00  0.00     0.230 C 
HETATM    9  C   UNL     1      44.026 -19.695   5.211  1.00  0.00     0.034 C 
ENDBRANCH   4   8
ENDBRANCH   3   4
ENDBRANCH   2   3
ENDBRANCH   1   2
BRANCH   1  10
HETATM   10  C   UNL     1      40.686 -13.973   1.967  1.00  0.00     0.174 C 
HETATM   11  S   UNL     1      40.582 -13.500   0.353  1.00  0.00    -0.041 SA
BRANCH  10  12
HETATM   12  N   UNL     1      39.670 -13.778   2.883  1.00  0.00    -0.332 N 
HETATM   13  H   UNL     1      38.878 -14.415   2.782  1.00  0.00     0.168 HD
BRANCH  12  14
HETATM   14  C   UNL     1      39.538 -12.868   3.964  1.00  0.00     0.050 A 
HETATM   15  C   UNL     1      39.107 -11.541   3.710  1.00  0.00     0.066 A 
HETATM   16  C   UNL     1      39.016 -10.621   4.770  1.00  0.00     0.020 A 
HETATM   17  C   UNL     1      39.365 -10.996   6.066  1.00  0.00     0.001 A 
HETATM   18  C   UNL     1      39.822 -12.285   6.311  1.00  0.00     0.002 A 
HETATM   19  C   UNL     1      39.918 -13.210   5.268  1.00  0.00     0.030 A 
BRANCH  15  20
HETATM   20  C   UNL     1      38.806 -11.099   2.311  1.00  0.00     0.295 C 
HETATM   21  O   UNL     1      39.448 -10.236   1.725  1.00  0.00    -0.259 OA
BRANCH  20  22
HETATM   22  O   UNL     1      37.729 -11.753   1.807  1.00  0.00    -0.322 OA
HETATM   23  C   UNL     1      37.089 -11.089   0.716  1.00  0.00     0.213 C 
ENDBRANCH  20  22
ENDBRANCH  15  20
ENDBRANCH  12  14
ENDBRANCH  10  12
ENDBRANCH   1  10
BRANCH   1  24
HETATM   24  C   UNL     1      43.091 -13.666   2.648  1.00  0.00     0.169 C 
BRANCH  24  25
HETATM   25  C   UNL     1      43.038 -12.595   3.704  1.00  0.00     0.029 A 
HETATM   26  C   UNL     1      42.702 -11.196   3.294  1.00  0.00     0.253 A 
HETATM   27  O   UNL     1      42.424 -10.900   2.137  1.00  0.00    -0.268 OA
HETATM   28  N   UNL     1      42.688 -10.244   4.277  1.00  0.00    -0.322 N 
HETATM   29  C   UNL     1      43.035 -10.490   5.609  1.00  0.00     0.048 A 
HETATM   30  H   UNL     1      42.464  -9.303   3.977  1.00  0.00     0.169 HD
HETATM   31  C   UNL     1      43.388 -11.792   5.988  1.00  0.00    -0.006 A 
HETATM   32  C   UNL     1      43.046  -9.448   6.533  1.00  0.00     0.070 A 
HETATM   33  C   UNL     1      43.787 -12.043   7.303  1.00  0.00     0.053 A 
HETATM   34  C   UNL     1      43.361 -12.853   4.984  1.00  0.00     0.028 A 
HETATM   35  C   UNL     1      43.830 -10.996   8.223  1.00  0.00     0.103 A 
HETATM   36  C   UNL     1      43.433  -9.708   7.847  1.00  0.00     0.104 A 
HETATM   37  O   UNL     1      44.275 -11.306   9.482  1.00  0.00    -0.346 OA
HETATM   38  O   UNL     1      43.419  -8.644   8.712  1.00  0.00    -0.346 OA
HETATM   39  C   UNL     1      43.555  -9.067  10.076  1.00  0.00     0.202 C 
HETATM   40  C   UNL     1      44.641 -10.123  10.206  1.00  0.00     0.202 C 
ENDBRANCH  24  25
ENDBRANCH   1  24
TORSDOF 12
ENDMDL
MODEL 10
REMARK VINA RESULT:      -7.5      2.461      7.346
REMARK  12 active torsions:
REMARK  status: ('A' for Active; 'I' for Inactive)
REMARK    1  A    between atoms: C_2  and  N_3 
REMARK    2  A    between atoms: N_3  and  C_5 
REMARK    3  A    between atoms: N_3  and  C_37 
REMARK    4  A    between atoms: C_5  and  C_6 
REMARK    5  A    between atoms: C_6  and  N_7 
REMARK    6  A    between atoms: N_7  and  C_8 
REMARK    7  A    between atoms: N_7  and  C_21 
REMARK    8  A    between atoms: C_8  and  N_9 
REMARK    9  A    between atoms: N_9  and  C_10 
REMARK   10  A    between atoms: C_11  and  C_12 
REMARK   11  A    between atoms: C_12  and  O_13 
REMARK   12  A    between atoms: C_21  and  C_22 
ROOT
HETATM    1  N   UNL     1      40.919 -10.623   5.531  1.00  0.00    -0.352 N 
ENDROOT
BRANCH   1   2
HETATM    2  C   UNL     1      41.195 -10.026   4.211  1.00  0.00     0.153 C 
BRANCH   2   3
HETATM    3  C   UNL     1      39.963  -9.354   3.566  1.00  0.00     0.254 C 
BRANCH   3   4
HETATM    4  N   UNL     1      39.570 -10.021   2.242  1.00  0.00    -0.070 N 
HETATM    5  H   UNL     1      39.384 -11.014   2.434  1.00  0.00     0.279 HD
BRANCH   4   6
HETATM    6  C   UNL     1      40.700  -9.952   1.225  1.00  0.00     0.230 C 
HETATM    7  C   UNL     1      41.103 -11.341   0.759  1.00  0.00     0.034 C 
ENDBRANCH   4   6
BRANCH   4   8
HETATM    8  C   UNL     1      38.283  -9.416   1.684  1.00  0.00     0.230 C 
HETATM    9  C   UNL     1      37.498 -10.448   0.891  1.00  0.00     0.034 C 
ENDBRANCH   4   8
ENDBRANCH   3   4
ENDBRANCH   2   3
ENDBRANCH   1   2
BRANCH   1  10
HETATM   10  C   UNL     1      41.263  -9.957   6.740  1.00  0.00     0.174 C 
HETATM   11  S   UNL     1      40.765  -8.394   7.128  1.00  0.00    -0.041 SA
BRANCH  10  12
HETATM   12  N   UNL     1      42.155 -10.682   7.506  1.00  0.00    -0.332 N 
HETATM   13  H   UNL     1      41.721 -11.308   8.186  1.00  0.00     0.168 HD
BRANCH  12  14
HETATM   14  C   UNL     1      43.573 -10.739   7.500  1.00  0.00     0.050 A 
HETATM   15  C   UNL     1      44.303 -10.032   8.489  1.00  0.00     0.066 A 
HETATM   16  C   UNL     1      45.710 -10.048   8.464  1.00  0.00     0.020 A 
HETATM   17  C   UNL     1      46.393 -10.735   7.463  1.00  0.00     0.001 A 
HETATM   18  C   UNL     1      45.680 -11.397   6.471  1.00  0.00     0.002 A 
HETATM   19  C   UNL     1      44.282 -11.390   6.484  1.00  0.00     0.030 A 
BRANCH  15  20
HETATM   20  C   UNL     1      43.585  -9.223   9.525  1.00  0.00     0.295 C 
HETATM   21  O   UNL     1      43.693  -8.006   9.622  1.00  0.00    -0.259 OA
BRANCH  20  22
HETATM   22  O   UNL     1      42.839 -10.011  10.338  1.00  0.00    -0.322 OA
HETATM   23  C   UNL     1      43.549 -10.551  11.455  1.00  0.00     0.213 C 
ENDBRANCH  20  22
ENDBRANCH  15  20
ENDBRANCH  12  14
ENDBRANCH  10  12
ENDBRANCH   1  10
BRANCH   1  24
HETATM   24  C   UNL     1      39.997 -11.784   5.556  1.00  0.00     0.169 C 
BRANCH  24  25
HETATM   25  C   UNL     1      40.503 -12.985   4.804  1.00  0.00     0.029 A 
HETATM   26  C   UNL     1      39.790 -13.408   3.558  1.00  0.00     0.253 A 
HETATM   27  O   UNL     1      38.837 -12.783   3.104  1.00  0.00    -0.268 OA
HETATM   28  N   UNL     1      40.264 -14.518   2.914  1.00  0.00    -0.322 N 
HETATM   29  C   UNL     1      41.316 -15.308   3.389  1.00  0.00     0.048 A 
HETATM   30  H   UNL     1      39.763 -14.791   2.077  1.00  0.00     0.169 HD
HETATM   31  C   UNL     1      41.960 -14.938   4.576  1.00  0.00    -0.006 A 
HETATM   32  C   UNL     1      41.696 -16.455   2.697  1.00  0.00     0.070 A 
HETATM   33  C   UNL     1      42.977 -15.744   5.090  1.00  0.00     0.053 A 
HETATM   34  C   UNL     1      41.526 -13.725   5.268  1.00  0.00     0.028 A 
HETATM   35  C   UNL     1      43.339 -16.910   4.417  1.00  0.00     0.103 A 
HETATM   36  C   UNL     1      42.721 -17.250   3.209  1.00  0.00     0.104 A 
HETATM   37  O   UNL     1      44.313 -17.678   5.003  1.00  0.00    -0.346 OA
HETATM   38  O   UNL     1      43.056 -18.363   2.481  1.00  0.00    -0.346 OA
HETATM   39  C   UNL     1      44.286 -18.943   2.934  1.00  0.00     0.202 C 
HETATM   40  C   UNL     1      44.327 -19.002   4.452  1.00  0.00     0.202 C 
ENDBRANCH  24  25
ENDBRANCH   1  24
TORSDOF 12
ENDMDL
