MODEL 1
REMARK VINA RESULT:      -9.1      0.000      0.000
REMARK  2 active torsions:
REMARK  status: ('A' for Active; 'I' for Inactive)
REMARK       I    between atoms: N_4  and  C_5 
REMARK       I    between atoms: C_5  and  N_6 
REMARK    1  A    between atoms: N_6  and  C_7 
REMARK    2  A    between atoms: C_20  and  C_21 
ROOT
HETATM    1  C   UNL     1      38.518  -9.968   3.752  1.00  0.00     0.011 C 
HETATM    2  C   UNL     1      39.704 -10.681   3.125  1.00  0.00     0.002 C 
HETATM    3  C   UNL     1      39.515 -12.191   3.037  1.00  0.00     0.132 C 
HETATM    4  N   UNL     1      40.374 -12.579   1.934  1.00  0.00    -0.325 N 
HETATM    5  C   UNL     1      41.270 -13.632   1.916  1.00  0.00     0.323 C 
HETATM    6  N   UNL     1      40.985 -14.617   2.836  1.00  0.00    -0.309 N 
HETATM    7  O   UNL     1      42.218 -13.662   1.137  1.00  0.00    -0.247 OA
HETATM    8  C   UNL     1      40.469 -11.505   0.951  1.00  0.00     0.125 C 
HETATM    9  C   UNL     1      39.976 -10.240   1.680  1.00  0.00     0.036 C 
HETATM   10  H   UNL     1      40.005 -14.711   3.057  1.00  0.00     0.170 HD
ENDROOT
BRANCH   6  11
HETATM   11  C   UNL     1      41.840 -15.661   3.237  1.00  0.00     0.038 A 
HETATM   12  C   UNL     1      41.919 -16.882   2.561  1.00  0.00     0.062 A 
HETATM   13  C   UNL     1      42.821 -17.861   2.984  1.00  0.00     0.070 A 
HETATM   14  C   UNL     1      43.647 -17.634   4.085  1.00  0.00     0.096 A 
HETATM   15  N   UNL     1      42.923 -19.052   2.266  1.00  0.00    -0.323 N 
HETATM   16  O   UNL     1      44.572 -18.530   4.540  1.00  0.00    -0.335 OA
HETATM   17  C   UNL     1      43.583 -16.413   4.753  1.00  0.00     0.041 A 
HETATM   18  C   UNL     1      44.456 -19.849   4.009  1.00  0.00     0.217 C 
HETATM   19  C   UNL     1      43.775 -20.049   2.647  1.00  0.00     0.251 C 
HETATM   20  C   UNL     1      43.748 -20.718   5.046  1.00  0.00     0.050 C 
HETATM   21  O   UNL     1      43.914 -21.065   1.969  1.00  0.00    -0.270 OA
HETATM   22  C   UNL     1      42.687 -15.428   4.328  1.00  0.00     0.032 A 
HETATM   23  H   UNL     1      42.400 -19.191   1.412  1.00  0.00     0.169 HD
ENDBRANCH   6  11
BRANCH   8  24
HETATM   24  C   UNL     1      39.699 -11.863  -0.308  1.00  0.00     0.003 A 
HETATM   25  C   UNL     1      40.324 -12.140  -1.531  1.00  0.00     0.124 A 
HETATM   26  F   UNL     1      41.661 -12.095  -1.640  1.00  0.00    -0.205 F 
HETATM   27  C   UNL     1      39.591 -12.452  -2.673  1.00  0.00     0.043 A 
HETATM   28  C   UNL     1      38.200 -12.472  -2.622  1.00  0.00     0.003 A 
HETATM   29  C   UNL     1      37.552 -12.169  -1.426  1.00  0.00     0.001 A 
HETATM   30  C   UNL     1      38.294 -11.865  -0.280  1.00  0.00     0.012 A 
ENDBRANCH   8  24
TORSDOF 2
ENDMDL
MODEL 2
REMARK VINA RESULT:      -8.7      3.164      8.211
REMARK  2 active torsions:
REMARK  status: ('A' for Active; 'I' for Inactive)
REMARK       I    between atoms: N_4  and  C_5 
REMARK       I    between atoms: C_5  and  N_6 
REMARK    1  A    between atoms: N_6  and  C_7 
REMARK    2  A    between atoms: C_20  and  C_21 
ROOT
HETATM    1  C   UNL     1      44.344 -12.935   6.895  1.00  0.00     0.011 C 
HETATM    2  C   UNL     1      43.088 -13.526   6.277  1.00  0.00     0.002 C 
HETATM    3  C   UNL     1      43.152 -13.608   4.756  1.00  0.00     0.132 C 
HETATM    4  N   UNL     1      42.237 -14.686   4.432  1.00  0.00    -0.325 N 
HETATM    5  C   UNL     1      41.259 -14.673   3.455  1.00  0.00     0.323 C 
HETATM    6  N   UNL     1      41.487 -13.753   2.456  1.00  0.00    -0.309 N 
HETATM    7  O   UNL     1      40.291 -15.427   3.498  1.00  0.00    -0.247 OA
HETATM    8  C   UNL     1      42.203 -15.674   5.505  1.00  0.00     0.125 C 
HETATM    9  C   UNL     1      42.815 -14.967   6.731  1.00  0.00     0.036 C 
HETATM   10  H   UNL     1      42.462 -13.556   2.284  1.00  0.00     0.170 HD
ENDROOT
BRANCH   6  11
HETATM   11  C   UNL     1      40.562 -13.322   1.486  1.00  0.00     0.038 A 
HETATM   12  C   UNL     1      40.477 -13.889   0.211  1.00  0.00     0.062 A 
HETATM   13  C   UNL     1      39.506 -13.445  -0.691  1.00  0.00     0.070 A 
HETATM   14  C   UNL     1      38.617 -12.433  -0.331  1.00  0.00     0.096 A 
HETATM   15  N   UNL     1      39.401 -14.059  -1.938  1.00  0.00    -0.323 N 
HETATM   16  O   UNL     1      37.624 -11.967  -1.146  1.00  0.00    -0.335 OA
HETATM   17  C   UNL     1      38.687 -11.875   0.943  1.00  0.00     0.041 A 
HETATM   18  C   UNL     1      37.719 -12.366  -2.512  1.00  0.00     0.217 C 
HETATM   19  C   UNL     1      38.483 -13.651  -2.864  1.00  0.00     0.251 C 
HETATM   20  C   UNL     1      38.315 -11.207  -3.306  1.00  0.00     0.050 C 
HETATM   21  O   UNL     1      38.347 -14.243  -3.933  1.00  0.00    -0.270 OA
HETATM   22  C   UNL     1      39.652 -12.322   1.851  1.00  0.00     0.032 A 
HETATM   23  H   UNL     1      39.976 -14.856  -2.176  1.00  0.00     0.169 HD
ENDBRANCH   6  11
BRANCH   8  24
HETATM   24  C   UNL     1      42.908 -16.950   5.079  1.00  0.00     0.003 A 
HETATM   25  C   UNL     1      43.253 -17.967   5.978  1.00  0.00     0.124 A 
HETATM   26  F   UNL     1      42.968 -17.849   7.284  1.00  0.00    -0.205 F 
HETATM   27  C   UNL     1      43.912 -19.120   5.560  1.00  0.00     0.043 A 
HETATM   28  C   UNL     1      44.265 -19.272   4.222  1.00  0.00     0.003 A 
HETATM   29  C   UNL     1      43.963 -18.260   3.313  1.00  0.00     0.001 A 
HETATM   30  C   UNL     1      43.293 -17.109   3.737  1.00  0.00     0.012 A 
ENDBRANCH   8  24
TORSDOF 2
ENDMDL
MODEL 3
REMARK VINA RESULT:      -8.5      2.908      4.450
REMARK  2 active torsions:
REMARK  status: ('A' for Active; 'I' for Inactive)
REMARK       I    between atoms: N_4  and  C_5 
REMARK       I    between atoms: C_5  and  N_6 
REMARK    1  A    between atoms: N_6  and  C_7 
REMARK    2  A    between atoms: C_20  and  C_21 
ROOT
HETATM    1  C   UNL     1      38.017 -14.809  -4.150  1.00  0.00     0.011 C 
HETATM    2  C   UNL     1      38.141 -14.270  -2.735  1.00  0.00     0.002 C 
HETATM    3  C   UNL     1      39.550 -14.394  -2.169  1.00  0.00     0.132 C 
HETATM    4  N   UNL     1      39.611 -13.343  -1.171  1.00  0.00    -0.325 N 
HETATM    5  C   UNL     1      40.092 -13.458   0.121  1.00  0.00     0.323 C 
HETATM    6  N   UNL     1      40.965 -14.509   0.295  1.00  0.00    -0.309 N 
HETATM    7  O   UNL     1      39.758 -12.678   1.008  1.00  0.00    -0.247 OA
HETATM    8  C   UNL     1      38.760 -12.220  -1.550  1.00  0.00     0.125 C 
HETATM    9  C   UNL     1      37.810 -12.774  -2.630  1.00  0.00     0.036 C 
HETATM   10  H   UNL     1      41.493 -14.754  -0.530  1.00  0.00     0.170 HD
ENDROOT
BRANCH   6  11
HETATM   11  C   UNL     1      41.405 -15.039   1.523  1.00  0.00     0.038 A 
HETATM   12  C   UNL     1      40.642 -14.980   2.693  1.00  0.00     0.062 A 
HETATM   13  C   UNL     1      41.116 -15.565   3.870  1.00  0.00     0.070 A 
HETATM   14  C   UNL     1      42.354 -16.207   3.891  1.00  0.00     0.096 A 
HETATM   15  N   UNL     1      40.319 -15.543   5.013  1.00  0.00    -0.323 N 
HETATM   16  O   UNL     1      42.871 -16.827   4.994  1.00  0.00    -0.335 OA
HETATM   17  C   UNL     1      43.111 -16.282   2.724  1.00  0.00     0.041 A 
HETATM   18  C   UNL     1      42.210 -16.533   6.223  1.00  0.00     0.217 C 
HETATM   19  C   UNL     1      40.742 -16.083   6.194  1.00  0.00     0.251 C 
HETATM   20  C   UNL     1      43.032 -15.484   6.967  1.00  0.00     0.050 C 
HETATM   21  O   UNL     1      40.006 -16.125   7.178  1.00  0.00    -0.270 OA
HETATM   22  C   UNL     1      42.636 -15.705   1.542  1.00  0.00     0.032 A 
HETATM   23  H   UNL     1      39.381 -15.165   4.986  1.00  0.00     0.169 HD
ENDBRANCH   6  11
BRANCH   8  24
HETATM   24  C   UNL     1      39.603 -11.033  -1.982  1.00  0.00     0.003 A 
HETATM   25  C   UNL     1      39.771  -9.889  -1.191  1.00  0.00     0.124 A 
HETATM   26  F   UNL     1      39.177  -9.796   0.009  1.00  0.00    -0.205 F 
HETATM   27  C   UNL     1      40.539  -8.809  -1.620  1.00  0.00     0.043 A 
HETATM   28  C   UNL     1      41.143  -8.841  -2.874  1.00  0.00     0.003 A 
HETATM   29  C   UNL     1      40.965  -9.953  -3.694  1.00  0.00     0.001 A 
HETATM   30  C   UNL     1      40.201 -11.038  -3.254  1.00  0.00     0.012 A 
ENDBRANCH   8  24
TORSDOF 2
ENDMDL
MODEL 4
REMARK VINA RESULT:      -8.5      3.183      8.788
REMARK  2 active torsions:
REMARK  status: ('A' for Active; 'I' for Inactive)
REMARK       I    between atoms: N_4  and  C_5 
REMARK       I    between atoms: C_5  and  N_6 
REMARK    1  A    between atoms: N_6  and  C_7 
REMARK    2  A    between atoms: C_20  and  C_21 
ROOT
HETATM    1  C   UNL     1      43.130 -20.241   2.340  1.00  0.00     0.011 C 
HETATM    2  C   UNL     1      43.382 -18.751   2.185  1.00  0.00     0.002 C 
HETATM    3  C   UNL     1      42.101 -17.926   2.170  1.00  0.00     0.132 C 
HETATM    4  N   UNL     1      42.531 -16.618   2.628  1.00  0.00    -0.325 N 
HETATM    5  C   UNL     1      42.212 -15.398   2.059  1.00  0.00     0.323 C 
HETATM    6  N   UNL     1      41.065 -15.426   1.298  1.00  0.00    -0.309 N 
HETATM    7  O   UNL     1      42.904 -14.400   2.238  1.00  0.00    -0.247 OA
HETATM    8  C   UNL     1      43.656 -16.737   3.549  1.00  0.00     0.125 C 
HETATM    9  C   UNL     1      44.212 -18.159   3.333  1.00  0.00     0.036 C 
HETATM   10  H   UNL     1      40.382 -16.107   1.595  1.00  0.00     0.170 HD
ENDROOT
BRANCH   6  11
HETATM   11  C   UNL     1      40.635 -14.436   0.394  1.00  0.00     0.038 A 
HETATM   12  C   UNL     1      41.107 -13.120   0.426  1.00  0.00     0.062 A 
HETATM   13  C   UNL     1      40.674 -12.196  -0.529  1.00  0.00     0.070 A 
HETATM   14  C   UNL     1      39.767 -12.574  -1.518  1.00  0.00     0.096 A 
HETATM   15  N   UNL     1      41.196 -10.903  -0.514  1.00  0.00    -0.323 N 
HETATM   16  O   UNL     1      39.320 -11.737  -2.501  1.00  0.00    -0.335 OA
HETATM   17  C   UNL     1      39.305 -13.888  -1.564  1.00  0.00     0.041 A 
HETATM   18  C   UNL     1      39.603 -10.354  -2.299  1.00  0.00     0.217 C 
HETATM   19  C   UNL     1      40.793  -9.956  -1.411  1.00  0.00     0.251 C 
HETATM   20  C   UNL     1      38.343  -9.683  -1.760  1.00  0.00     0.050 C 
HETATM   21  O   UNL     1      41.309  -8.841  -1.439  1.00  0.00    -0.270 OA
HETATM   22  C   UNL     1      39.742 -14.817  -0.615  1.00  0.00     0.032 A 
HETATM   23  H   UNL     1      41.924 -10.644   0.138  1.00  0.00     0.169 HD
ENDBRANCH   6  11
BRANCH   8  24
HETATM   24  C   UNL     1      43.218 -16.427   4.970  1.00  0.00     0.003 A 
HETATM   25  C   UNL     1      44.113 -16.349   6.044  1.00  0.00     0.124 A 
HETATM   26  F   UNL     1      45.426 -16.552   5.854  1.00  0.00    -0.205 F 
HETATM   27  C   UNL     1      43.681 -16.075   7.339  1.00  0.00     0.043 A 
HETATM   28  C   UNL     1      42.324 -15.896   7.594  1.00  0.00     0.003 A 
HETATM   29  C   UNL     1      41.408 -16.001   6.549  1.00  0.00     0.001 A 
HETATM   30  C   UNL     1      41.850 -16.266   5.250  1.00  0.00     0.012 A 
ENDBRANCH   8  24
TORSDOF 2
ENDMDL
MODEL 5
REMARK VINA RESULT:      -8.4     15.545     17.028
REMARK  2 active torsions:
REMARK  status: ('A' for Active; 'I' for Inactive)
REMARK       I    between atoms: N_4  and  C_5 
REMARK       I    between atoms: C_5  and  N_6 
REMARK    1  A    between atoms: N_6  and  C_7 
REMARK    2  A    between atoms: C_20  and  C_21 
ROOT
HETATM    1  C   UNL     1      43.955 -29.965  -4.774  1.00  0.00     0.011 C 
HETATM    2  C   UNL     1      43.895 -29.429  -3.353  1.00  0.00     0.002 C 
HETATM    3  C   UNL     1      43.963 -30.527  -2.297  1.00  0.00     0.132 C 
HETATM    4  N   UNL     1      44.499 -29.848  -1.132  1.00  0.00    -0.325 N 
HETATM    5  C   UNL     1      44.021 -29.928   0.163  1.00  0.00     0.323 C 
HETATM    6  N   UNL     1      43.284 -31.065   0.411  1.00  0.00    -0.309 N 
HETATM    7  O   UNL     1      44.252 -29.054   0.993  1.00  0.00    -0.247 OA
HETATM    8  C   UNL     1      45.386 -28.760  -1.531  1.00  0.00     0.125 C 
HETATM    9  C   UNL     1      45.063 -28.492  -3.014  1.00  0.00     0.036 C 
HETATM   10  H   UNL     1      43.549 -31.864  -0.146  1.00  0.00     0.170 HD
ENDROOT
BRANCH   6  11
HETATM   11  C   UNL     1      42.457 -31.301   1.526  1.00  0.00     0.038 A 
HETATM   12  C   UNL     1      42.910 -31.195   2.844  1.00  0.00     0.062 A 
HETATM   13  C   UNL     1      42.028 -31.399   3.908  1.00  0.00     0.070 A 
HETATM   14  C   UNL     1      40.691 -31.714   3.667  1.00  0.00     0.096 A 
HETATM   15  N   UNL     1      42.484 -31.236   5.215  1.00  0.00    -0.323 N 
HETATM   16  O   UNL     1      39.762 -31.899   4.652  1.00  0.00    -0.335 OA
HETATM   17  C   UNL     1      40.231 -31.807   2.355  1.00  0.00     0.041 A 
HETATM   18  C   UNL     1      40.292 -32.043   5.969  1.00  0.00     0.217 C 
HETATM   19  C   UNL     1      41.668 -31.442   6.291  1.00  0.00     0.251 C 
HETATM   20  C   UNL     1      40.313 -33.530   6.313  1.00  0.00     0.050 C 
HETATM   21  O   UNL     1      42.056 -31.226   7.438  1.00  0.00    -0.270 OA
HETATM   22  C   UNL     1      41.109 -31.595   1.288  1.00  0.00     0.032 A 
HETATM   23  H   UNL     1      43.425 -30.915   5.402  1.00  0.00     0.169 HD
ENDBRANCH   6  11
BRANCH   8  24
HETATM   24  C   UNL     1      46.833 -29.118  -1.242  1.00  0.00     0.003 A 
HETATM   25  C   UNL     1      47.529 -28.638  -0.126  1.00  0.00     0.124 A 
HETATM   26  F   UNL     1      46.929 -27.821   0.753  1.00  0.00    -0.205 F 
HETATM   27  C   UNL     1      48.862 -28.973   0.106  1.00  0.00     0.043 A 
HETATM   28  C   UNL     1      49.540 -29.786  -0.798  1.00  0.00     0.003 A 
HETATM   29  C   UNL     1      48.880 -30.251  -1.934  1.00  0.00     0.001 A 
HETATM   30  C   UNL     1      47.541 -29.919  -2.156  1.00  0.00     0.012 A 
ENDBRANCH   8  24
TORSDOF 2
ENDMDL
MODEL 6
REMARK VINA RESULT:      -8.3      2.112      4.030
REMARK  2 active torsions:
REMARK  status: ('A' for Active; 'I' for Inactive)
REMARK       I    between atoms: N_4  and  C_5 
REMARK       I    between atoms: C_5  and  N_6 
REMARK    1  A    between atoms: N_6  and  C_7 
REMARK    2  A    between atoms: C_20  and  C_21 
ROOT
HETATM    1  C   UNL     1      39.068 -11.487  -0.530  1.00  0.00     0.011 C 
HETATM    2  C   UNL     1      39.062 -12.317   0.742  1.00  0.00     0.002 C 
HETATM    3  C   UNL     1      40.458 -12.548   1.311  1.00  0.00     0.132 C 
HETATM    4  N   UNL     1      40.218 -12.774   2.724  1.00  0.00    -0.325 N 
HETATM    5  C   UNL     1      40.754 -13.785   3.501  1.00  0.00     0.323 C 
HETATM    6  N   UNL     1      41.919 -14.315   2.992  1.00  0.00    -0.309 N 
HETATM    7  O   UNL     1      40.221 -14.151   4.544  1.00  0.00    -0.247 OA
HETATM    8  C   UNL     1      39.044 -12.034   3.174  1.00  0.00     0.125 C 
HETATM    9  C   UNL     1      38.281 -11.658   1.888  1.00  0.00     0.036 C 
HETATM   10  H   UNL     1      42.469 -13.668   2.447  1.00  0.00     0.170 HD
ENDROOT
BRANCH   6  11
HETATM   11  C   UNL     1      42.545 -15.509   3.400  1.00  0.00     0.038 A 
HETATM   12  C   UNL     1      42.496 -16.687   2.650  1.00  0.00     0.062 A 
HETATM   13  C   UNL     1      43.176 -17.827   3.089  1.00  0.00     0.070 A 
HETATM   14  C   UNL     1      43.905 -17.801   4.277  1.00  0.00     0.096 A 
HETATM   15  N   UNL     1      43.159 -18.977   2.302  1.00  0.00    -0.323 N 
HETATM   16  O   UNL     1      44.618 -18.864   4.756  1.00  0.00    -0.335 OA
HETATM   17  C   UNL     1      43.970 -16.625   5.020  1.00  0.00     0.041 A 
HETATM   18  C   UNL     1      44.346 -20.113   4.125  1.00  0.00     0.217 C 
HETATM   19  C   UNL     1      43.791 -20.123   2.693  1.00  0.00     0.251 C 
HETATM   20  C   UNL     1      43.399 -20.904   5.024  1.00  0.00     0.050 C 
HETATM   21  O   UNL     1      43.834 -21.110   1.961  1.00  0.00    -0.270 OA
HETATM   22  C   UNL     1      43.297 -15.480   4.581  1.00  0.00     0.032 A 
HETATM   23  H   UNL     1      42.714 -18.980   1.393  1.00  0.00     0.169 HD
ENDBRANCH   6  11
BRANCH   8  24
HETATM   24  C   UNL     1      39.454 -10.860   4.045  1.00  0.00     0.003 A 
HETATM   25  C   UNL     1      39.233 -10.824   5.428  1.00  0.00     0.124 A 
HETATM   26  F   UNL     1      38.634 -11.850   6.051  1.00  0.00    -0.205 F 
HETATM   27  C   UNL     1      39.608  -9.727   6.200  1.00  0.00     0.043 A 
HETATM   28  C   UNL     1      40.197  -8.620   5.594  1.00  0.00     0.003 A 
HETATM   29  C   UNL     1      40.398  -8.617   4.215  1.00  0.00     0.001 A 
HETATM   30  C   UNL     1      40.028  -9.725   3.447  1.00  0.00     0.012 A 
ENDBRANCH   8  24
TORSDOF 2
ENDMDL
MODEL 7
REMARK VINA RESULT:      -8.0      3.469      8.469
REMARK  2 active torsions:
REMARK  status: ('A' for Active; 'I' for Inactive)
REMARK       I    between atoms: N_4  and  C_5 
REMARK       I    between atoms: C_5  and  N_6 
REMARK    1  A    between atoms: N_6  and  C_7 
REMARK    2  A    between atoms: C_20  and  C_21 
ROOT
HETATM    1  C   UNL     1      44.838 -11.581   6.017  1.00  0.00     0.011 C 
HETATM    2  C   UNL     1      43.518 -12.174   5.553  1.00  0.00     0.002 C 
HETATM    3  C   UNL     1      43.593 -12.779   4.156  1.00  0.00     0.132 C 
HETATM    4  N   UNL     1      42.534 -13.770   4.155  1.00  0.00    -0.325 N 
HETATM    5  C   UNL     1      41.584 -13.962   3.168  1.00  0.00     0.323 C 
HETATM    6  N   UNL     1      41.961 -13.478   1.935  1.00  0.00    -0.309 N 
HETATM    7  O   UNL     1      40.514 -14.519   3.399  1.00  0.00    -0.247 OA
HETATM    8  C   UNL     1      42.337 -14.317   5.493  1.00  0.00     0.125 C 
HETATM    9  C   UNL     1      43.028 -13.323   6.446  1.00  0.00     0.036 C 
HETATM   10  H   UNL     1      42.957 -13.484   1.771  1.00  0.00     0.170 HD
ENDROOT
BRANCH   6  11
HETATM   11  C   UNL     1      41.124 -13.285   0.819  1.00  0.00     0.038 A 
HETATM   12  C   UNL     1      40.878 -12.027   0.262  1.00  0.00     0.062 A 
HETATM   13  C   UNL     1      40.073 -11.908  -0.874  1.00  0.00     0.070 A 
HETATM   14  C   UNL     1      39.505 -13.039  -1.460  1.00  0.00     0.096 A 
HETATM   15  N   UNL     1      39.881 -10.651  -1.446  1.00  0.00    -0.323 N 
HETATM   16  O   UNL     1      38.733 -13.006  -2.586  1.00  0.00    -0.335 OA
HETATM   17  C   UNL     1      39.761 -14.297  -0.919  1.00  0.00     0.041 A 
HETATM   18  C   UNL     1      38.284 -11.711  -2.979  1.00  0.00     0.217 C 
HETATM   19  C   UNL     1      39.088 -10.477  -2.545  1.00  0.00     0.251 C 
HETATM   20  C   UNL     1      36.840 -11.546  -2.513  1.00  0.00     0.050 C 
HETATM   21  O   UNL     1      38.982  -9.379  -3.088  1.00  0.00    -0.270 OA
HETATM   22  C   UNL     1      40.572 -14.421   0.214  1.00  0.00     0.032 A 
HETATM   23  H   UNL     1      40.362  -9.837  -1.088  1.00  0.00     0.169 HD
ENDBRANCH   6  11
BRANCH   8  24
HETATM   24  C   UNL     1      42.852 -15.744   5.567  1.00  0.00     0.003 A 
HETATM   25  C   UNL     1      42.703 -16.550   6.703  1.00  0.00     0.124 A 
HETATM   26  F   UNL     1      42.086 -16.079   7.798  1.00  0.00    -0.205 F 
HETATM   27  C   UNL     1      43.199 -17.851   6.747  1.00  0.00     0.043 A 
HETATM   28  C   UNL     1      43.882 -18.371   5.652  1.00  0.00     0.003 A 
HETATM   29  C   UNL     1      44.072 -17.579   4.521  1.00  0.00     0.001 A 
HETATM   30  C   UNL     1      43.564 -16.277   4.479  1.00  0.00     0.012 A 
ENDBRANCH   8  24
TORSDOF 2
ENDMDL
MODEL 8
REMARK VINA RESULT:      -8.0     15.402     18.808
REMARK  2 active torsions:
REMARK  status: ('A' for Active; 'I' for Inactive)
REMARK       I    between atoms: N_4  and  C_5 
REMARK       I    between atoms: C_5  and  N_6 
REMARK    1  A    between atoms: N_6  and  C_7 
REMARK    2  A    between atoms: C_20  and  C_21 
ROOT
HETATM    1  C   UNL     1      47.750 -30.330   4.520  1.00  0.00     0.011 C 
HETATM    2  C   UNL     1      48.418 -29.807   3.260  1.00  0.00     0.002 C 
HETATM    3  C   UNL     1      48.489 -30.845   2.146  1.00  0.00     0.132 C 
HETATM    4  N   UNL     1      48.555 -30.045   0.937  1.00  0.00    -0.325 N 
HETATM    5  C   UNL     1      49.428 -30.221  -0.122  1.00  0.00     0.323 C 
HETATM    6  N   UNL     1      49.941 -31.496  -0.210  1.00  0.00    -0.309 N 
HETATM    7  O   UNL     1      49.697 -29.307  -0.896  1.00  0.00    -0.247 OA
HETATM    8  C   UNL     1      47.842 -28.785   1.112  1.00  0.00     0.125 C 
HETATM    9  C   UNL     1      47.674 -28.618   2.635  1.00  0.00     0.036 C 
HETATM   10  H   UNL     1      49.332 -32.217   0.147  1.00  0.00     0.170 HD
ENDROOT
BRANCH   6  11
HETATM   11  C   UNL     1      51.034 -31.906  -0.998  1.00  0.00     0.038 A 
HETATM   12  C   UNL     1      51.004 -31.913  -2.395  1.00  0.00     0.062 A 
HETATM   13  C   UNL     1      52.139 -32.289  -3.119  1.00  0.00     0.070 A 
HETATM   14  C   UNL     1      53.307 -32.666  -2.457  1.00  0.00     0.096 A 
HETATM   15  N   UNL     1      52.108 -32.239  -4.512  1.00  0.00    -0.323 N 
HETATM   16  O   UNL     1      54.464 -33.018  -3.094  1.00  0.00    -0.335 OA
HETATM   17  C   UNL     1      53.347 -32.646  -1.065  1.00  0.00     0.041 A 
HETATM   18  C   UNL     1      54.336 -33.268  -4.492  1.00  0.00     0.217 C 
HETATM   19  C   UNL     1      53.182 -32.614  -5.267  1.00  0.00     0.251 C 
HETATM   20  C   UNL     1      54.275 -34.779  -4.702  1.00  0.00     0.050 C 
HETATM   21  O   UNL     1      53.175 -32.498  -6.491  1.00  0.00    -0.270 OA
HETATM   22  C   UNL     1      52.216 -32.262  -0.337  1.00  0.00     0.032 A 
HETATM   23  H   UNL     1      51.301 -31.878  -5.002  1.00  0.00     0.169 HD
ENDBRANCH   6  11
BRANCH   8  24
HETATM   24  C   UNL     1      46.547 -28.790   0.319  1.00  0.00     0.003 A 
HETATM   25  C   UNL     1      46.381 -28.076  -0.874  1.00  0.00     0.124 A 
HETATM   26  F   UNL     1      47.385 -27.339  -1.375  1.00  0.00    -0.205 F 
HETATM   27  C   UNL     1      45.176 -28.088  -1.573  1.00  0.00     0.043 A 
HETATM   28  C   UNL     1      44.092 -28.805  -1.075  1.00  0.00     0.003 A 
HETATM   29  C   UNL     1      44.220 -29.498   0.127  1.00  0.00     0.001 A 
HETATM   30  C   UNL     1      45.435 -29.489   0.819  1.00  0.00     0.012 A 
ENDBRANCH   8  24
TORSDOF 2
ENDMDL
MODEL 9
REMARK VINA RESULT:      -7.9      2.922      8.796
REMARK  2 active torsions:
REMARK  status: ('A' for Active; 'I' for Inactive)
REMARK       I    between atoms: N_4  and  C_5 
REMARK       I    between atoms: C_5  and  N_6 
REMARK    1  A    between atoms: N_6  and  C_7 
REMARK    2  A    between atoms: C_20  and  C_21 
ROOT
HETATM    1  C   UNL     1      42.748 -19.058   2.088  1.00  0.00     0.011 C 
HETATM    2  C   UNL     1      42.899 -17.546   2.111  1.00  0.00     0.002 C 
HETATM    3  C   UNL     1      41.606 -16.822   2.470  1.00  0.00     0.132 C 
HETATM    4  N   UNL     1      42.063 -15.562   3.025  1.00  0.00    -0.325 N 
HETATM    5  C   UNL     1      41.582 -14.302   2.718  1.00  0.00     0.323 C 
HETATM    6  N   UNL     1      40.306 -14.308   2.201  1.00  0.00    -0.309 N 
HETATM    7  O   UNL     1      42.252 -13.290   2.905  1.00  0.00    -0.247 OA
HETATM    8  C   UNL     1      43.356 -15.724   3.680  1.00  0.00     0.125 C 
HETATM    9  C   UNL     1      43.918 -17.058   3.150  1.00  0.00     0.036 C 
HETATM   10  H   UNL     1      39.729 -15.072   2.520  1.00  0.00     0.170 HD
ENDROOT
BRANCH   6  11
HETATM   11  C   UNL     1      39.658 -13.237   1.556  1.00  0.00     0.038 A 
HETATM   12  C   UNL     1      39.833 -12.949   0.199  1.00  0.00     0.062 A 
HETATM   13  C   UNL     1      39.126 -11.898  -0.392  1.00  0.00     0.070 A 
HETATM   14  C   UNL     1      38.244 -11.126   0.364  1.00  0.00     0.096 A 
HETATM   15  N   UNL     1      39.272 -11.659  -1.757  1.00  0.00    -0.323 N 
HETATM   16  O   UNL     1      37.497 -10.103  -0.147  1.00  0.00    -0.335 OA
HETATM   17  C   UNL     1      38.054 -11.419   1.713  1.00  0.00     0.041 A 
HETATM   18  C   UNL     1      37.878  -9.662  -1.449  1.00  0.00     0.217 C 
HETATM   19  C   UNL     1      38.620 -10.633  -2.380  1.00  0.00     0.251 C 
HETATM   20  C   UNL     1      38.714  -8.394  -1.296  1.00  0.00     0.050 C 
HETATM   21  O   UNL     1      38.696 -10.473  -3.596  1.00  0.00    -0.270 OA
HETATM   22  C   UNL     1      38.754 -12.475   2.306  1.00  0.00     0.032 A 
HETATM   23  H   UNL     1      39.834 -12.269  -2.335  1.00  0.00     0.169 HD
ENDBRANCH   6  11
BRANCH   8  24
HETATM   24  C   UNL     1      43.204 -15.645   5.189  1.00  0.00     0.003 A 
HETATM   25  C   UNL     1      43.359 -14.453   5.909  1.00  0.00     0.124 A 
HETATM   26  F   UNL     1      43.656 -13.308   5.277  1.00  0.00    -0.205 F 
HETATM   27  C   UNL     1      43.227 -14.414   7.295  1.00  0.00     0.043 A 
HETATM   28  C   UNL     1      42.958 -15.583   8.001  1.00  0.00     0.003 A 
HETATM   29  C   UNL     1      42.832 -16.788   7.312  1.00  0.00     0.001 A 
HETATM   30  C   UNL     1      42.956 -16.819   5.920  1.00  0.00     0.012 A 
ENDBRANCH   8  24
TORSDOF 2
ENDMDL
MODEL 10
REMARK VINA RESULT:      -7.8      3.006      9.024
REMARK  2 active torsions:
REMARK  status: ('A' for Active; 'I' for Inactive)
REMARK       I    between atoms: N_4  and  C_5 
REMARK       I    between atoms: C_5  and  N_6 
REMARK    1  A    between atoms: N_6  and  C_7 
REMARK    2  A    between atoms: C_20  and  C_21 
ROOT
HETATM    1  C   UNL     1      42.689 -18.974   2.103  1.00  0.00     0.011 C 
HETATM    2  C   UNL     1      42.827 -17.461   2.096  1.00  0.00     0.002 C 
HETATM    3  C   UNL     1      41.531 -16.741   2.450  1.00  0.00     0.132 C 
HETATM    4  N   UNL     1      41.981 -15.466   2.977  1.00  0.00    -0.325 N 
HETATM    5  C   UNL     1      41.487 -14.217   2.649  1.00  0.00     0.323 C 
HETATM    6  N   UNL     1      40.207 -14.244   2.141  1.00  0.00    -0.309 N 
HETATM    7  O   UNL     1      42.150 -13.196   2.811  1.00  0.00    -0.247 OA
HETATM    8  C   UNL     1      43.280 -15.605   3.626  1.00  0.00     0.125 C 
HETATM    9  C   UNL     1      43.849 -16.945   3.118  1.00  0.00     0.036 C 
HETATM   10  H   UNL     1      39.639 -15.006   2.480  1.00  0.00     0.170 HD
ENDROOT
BRANCH   6  11
HETATM   11  C   UNL     1      39.546 -13.191   1.480  1.00  0.00     0.038 A 
HETATM   12  C   UNL     1      38.900 -12.154   2.159  1.00  0.00     0.062 A 
HETATM   13  C   UNL     1      38.300 -11.114   1.443  1.00  0.00     0.070 A 
HETATM   14  C   UNL     1      38.335 -11.102   0.049  1.00  0.00     0.096 A 
HETATM   15  N   UNL     1      37.706 -10.061   2.138  1.00  0.00    -0.323 N 
HETATM   16  O   UNL     1      37.798 -10.107  -0.718  1.00  0.00    -0.335 OA
HETATM   17  C   UNL     1      38.991 -12.125  -0.632  1.00  0.00     0.041 A 
HETATM   18  C   UNL     1      36.929  -9.210  -0.029  1.00  0.00     0.217 C 
HETATM   19  C   UNL     1      37.090  -9.030   1.488  1.00  0.00     0.251 C 
HETATM   20  C   UNL     1      35.489  -9.619  -0.326  1.00  0.00     0.050 C 
HETATM   21  O   UNL     1      36.633  -8.069   2.103  1.00  0.00    -0.270 OA
HETATM   22  C   UNL     1      39.600 -13.164   0.081  1.00  0.00     0.032 A 
HETATM   23  H   UNL     1      37.757 -10.009   3.146  1.00  0.00     0.169 HD
ENDBRANCH   6  11
BRANCH   8  24
HETATM   24  C   UNL     1      43.138 -15.497   5.134  1.00  0.00     0.003 A 
HETATM   25  C   UNL     1      43.365 -14.308   5.837  1.00  0.00     0.124 A 
HETATM   26  F   UNL     1      43.727 -13.190   5.190  1.00  0.00    -0.205 F 
HETATM   27  C   UNL     1      43.240 -14.242   7.223  1.00  0.00     0.043 A 
HETATM   28  C   UNL     1      42.906 -15.385   7.945  1.00  0.00     0.003 A 
HETATM   29  C   UNL     1      42.707 -16.589   7.273  1.00  0.00     0.001 A 
HETATM   30  C   UNL     1      42.824 -16.646   5.881  1.00  0.00     0.012 A 
ENDBRANCH   8  24
TORSDOF 2
ENDMDL
