MODEL 1
REMARK VINA RESULT:      -8.0      0.000      0.000
REMARK  5 active torsions:
REMARK  status: ('A' for Active; 'I' for Inactive)
REMARK    1  A    between atoms: C_3  and  C_4 
REMARK    2  A    between atoms: C_15  and  C_16 
REMARK       I    between atoms: C_16  and  N_17 
REMARK    3  A    between atoms: N_17  and  C_18 
REMARK    4  A    between atoms: C_18  and  C_19 
REMARK    5  A    between atoms: C_22  and  O_23 
ROOT
HETATM    1  C   UNL     1      42.792 -10.710   6.377  1.00  0.00     0.055 C 
HETATM    2  C   UNL     1      42.655 -12.087   5.802  1.00  0.00     0.024 A 
HETATM    3  C   UNL     1      41.918 -12.454   4.739  1.00  0.00     0.096 A 
HETATM    4  O   UNL     1      41.864 -13.727   4.208  1.00  0.00    -0.307 OA
HETATM    5  C   UNL     1      42.535 -14.750   4.825  1.00  0.00     0.106 A 
HETATM    6  C   UNL     1      43.297 -14.523   5.973  1.00  0.00     0.050 A 
HETATM    7  C   UNL     1      43.425 -13.151   6.492  1.00  0.00     0.193 A 
HETATM    8  O   UNL     1      44.136 -12.907   7.461  1.00  0.00    -0.287 OA
HETATM    9  C   UNL     1      42.447 -16.049   4.295  1.00  0.00     0.066 A 
HETATM   10  C   UNL     1      43.094 -17.102   4.970  1.00  0.00     0.020 A 
HETATM   11  C   UNL     1      43.834 -16.870   6.129  1.00  0.00     0.002 A 
HETATM   12  C   UNL     1      43.946 -15.576   6.627  1.00  0.00     0.018 A 
ENDROOT
BRANCH   9  13
HETATM   13  C   UNL     1      41.752 -16.405   3.013  1.00  0.00     0.254 C 
HETATM   14  N   UNL     1      40.606 -15.716   2.692  1.00  0.00    -0.353 N 
HETATM   15  H   UNL     1      40.182 -15.100   3.373  1.00  0.00     0.163 HD
HETATM   16  O   UNL     1      42.241 -17.252   2.271  1.00  0.00    -0.268 OA
BRANCH  14  17
HETATM   17  C   UNL     1      39.929 -15.880   1.429  1.00  0.00     0.161 C 
BRANCH  17  18
HETATM   18  C   UNL     1      40.135 -14.695   0.524  1.00  0.00    -0.040 A 
HETATM   19  C   UNL     1      40.764 -13.535   0.991  1.00  0.00     0.011 A 
HETATM   20  C   UNL     1      40.987 -12.460   0.127  1.00  0.00     0.037 A 
HETATM   21  C   UNL     1      40.591 -12.524  -1.210  1.00  0.00     0.068 A 
HETATM   22  C   UNL     1      39.930 -13.663  -1.671  1.00  0.00     0.037 A 
HETATM   23  C   UNL     1      39.699 -14.739  -0.806  1.00  0.00     0.011 A 
BRANCH  21  24
HETATM   24  O   UNL     1      40.895 -11.418  -1.956  1.00  0.00    -0.356 OA
HETATM   25  C   UNL     1      41.432 -10.305  -1.251  1.00  0.00     0.210 C 
ENDBRANCH  21  24
ENDBRANCH  17  18
ENDBRANCH  14  17
ENDBRANCH   9  13
BRANCH   3  26
HETATM   26  C   UNL     1      41.051 -11.518   4.008  1.00  0.00    -0.002 A 
HETATM   27  C   UNL     1      39.658 -11.611   4.114  1.00  0.00     0.014 A 
HETATM   28  C   UNL     1      38.842 -10.704   3.434  1.00  0.00     0.001 A 
HETATM   29  C   UNL     1      39.413  -9.699   2.651  1.00  0.00     0.000 A 
HETATM   30  C   UNL     1      40.799  -9.598   2.546  1.00  0.00     0.001 A 
HETATM   31  C   UNL     1      41.617 -10.503   3.225  1.00  0.00     0.014 A 
ENDBRANCH   3  26
TORSDOF 5
ENDMDL
MODEL 2
REMARK VINA RESULT:      -7.8      1.991      3.577
REMARK  5 active torsions:
REMARK  status: ('A' for Active; 'I' for Inactive)
REMARK    1  A    between atoms: C_3  and  C_4 
REMARK    2  A    between atoms: C_15  and  C_16 
REMARK       I    between atoms: C_16  and  N_17 
REMARK    3  A    between atoms: N_17  and  C_18 
REMARK    4  A    between atoms: C_18  and  C_19 
REMARK    5  A    between atoms: C_22  and  O_23 
ROOT
HETATM    1  C   UNL     1      43.020 -15.346   8.288  1.00  0.00     0.055 C 
HETATM    2  C   UNL     1      42.973 -15.758   6.847  1.00  0.00     0.024 A 
HETATM    3  C   UNL     1      42.493 -15.043   5.814  1.00  0.00     0.096 A 
HETATM    4  O   UNL     1      42.521 -15.438   4.492  1.00  0.00    -0.307 OA
HETATM    5  C   UNL     1      42.990 -16.684   4.163  1.00  0.00     0.106 A 
HETATM    6  C   UNL     1      43.468 -17.555   5.145  1.00  0.00     0.050 A 
HETATM    7  C   UNL     1      43.520 -17.103   6.545  1.00  0.00     0.193 A 
HETATM    8  O   UNL     1      43.991 -17.819   7.422  1.00  0.00    -0.287 OA
HETATM    9  C   UNL     1      42.983 -17.089   2.817  1.00  0.00     0.066 A 
HETATM   10  C   UNL     1      43.415 -18.391   2.499  1.00  0.00     0.020 A 
HETATM   11  C   UNL     1      43.869 -19.263   3.489  1.00  0.00     0.002 A 
HETATM   12  C   UNL     1      43.907 -18.841   4.814  1.00  0.00     0.018 A 
ENDROOT
BRANCH   9  13
HETATM   13  C   UNL     1      42.596 -16.212   1.662  1.00  0.00     0.254 C 
HETATM   14  N   UNL     1      41.318 -15.705   1.640  1.00  0.00    -0.353 N 
HETATM   15  H   UNL     1      40.635 -16.037   2.307  1.00  0.00     0.163 HD
HETATM   16  O   UNL     1      43.430 -15.933   0.804  1.00  0.00    -0.268 OA
BRANCH  14  17
HETATM   17  C   UNL     1      40.878 -14.750   0.654  1.00  0.00     0.161 C 
BRANCH  17  18
HETATM   18  C   UNL     1      40.637 -13.392   1.255  1.00  0.00    -0.040 A 
HETATM   19  C   UNL     1      39.415 -12.733   1.075  1.00  0.00     0.011 A 
HETATM   20  C   UNL     1      39.189 -11.493   1.676  1.00  0.00     0.037 A 
HETATM   21  C   UNL     1      40.171 -10.891   2.465  1.00  0.00     0.068 A 
HETATM   22  C   UNL     1      41.405 -11.526   2.617  1.00  0.00     0.037 A 
HETATM   23  C   UNL     1      41.637 -12.766   2.011  1.00  0.00     0.011 A 
BRANCH  21  24
HETATM   24  O   UNL     1      39.813  -9.693   3.019  1.00  0.00    -0.356 OA
HETATM   25  C   UNL     1      38.510  -9.619   3.583  1.00  0.00     0.210 C 
ENDBRANCH  21  24
ENDBRANCH  17  18
ENDBRANCH  14  17
ENDBRANCH   9  13
BRANCH   3  26
HETATM   26  C   UNL     1      41.856 -13.729   5.980  1.00  0.00    -0.002 A 
HETATM   27  C   UNL     1      42.636 -12.577   6.135  1.00  0.00     0.014 A 
HETATM   28  C   UNL     1      42.023 -11.329   6.270  1.00  0.00     0.001 A 
HETATM   29  C   UNL     1      40.632 -11.226   6.246  1.00  0.00     0.000 A 
HETATM   30  C   UNL     1      39.850 -12.368   6.085  1.00  0.00     0.001 A 
HETATM   31  C   UNL     1      40.459 -13.616   5.950  1.00  0.00     0.014 A 
ENDBRANCH   3  26
TORSDOF 5
ENDMDL
MODEL 3
REMARK VINA RESULT:      -7.7      2.035      6.181
REMARK  5 active torsions:
REMARK  status: ('A' for Active; 'I' for Inactive)
REMARK    1  A    between atoms: C_3  and  C_4 
REMARK    2  A    between atoms: C_15  and  C_16 
REMARK       I    between atoms: C_16  and  N_17 
REMARK    3  A    between atoms: N_17  and  C_18 
REMARK    4  A    between atoms: C_18  and  C_19 
REMARK    5  A    between atoms: C_22  and  O_23 
ROOT
HETATM    1  C   UNL     1      41.921 -10.642   6.739  1.00  0.00     0.055 C 
HETATM    2  C   UNL     1      41.787 -11.123   5.325  1.00  0.00     0.024 A 
HETATM    3  C   UNL     1      41.815 -12.396   4.894  1.00  0.00     0.096 A 
HETATM    4  O   UNL     1      41.630 -12.798   3.587  1.00  0.00    -0.307 OA
HETATM    5  C   UNL     1      41.484 -11.858   2.600  1.00  0.00     0.106 A 
HETATM    6  C   UNL     1      41.492 -10.494   2.898  1.00  0.00     0.050 A 
HETATM    7  C   UNL     1      41.602 -10.065   4.302  1.00  0.00     0.193 A 
HETATM    8  O   UNL     1      41.550  -8.877   4.605  1.00  0.00    -0.287 OA
HETATM    9  C   UNL     1      41.330 -12.278   1.267  1.00  0.00     0.066 A 
HETATM   10  C   UNL     1      41.237 -11.302   0.256  1.00  0.00     0.020 A 
HETATM   11  C   UNL     1      41.269  -9.942   0.560  1.00  0.00     0.002 A 
HETATM   12  C   UNL     1      41.385  -9.535   1.885  1.00  0.00     0.018 A 
ENDROOT
BRANCH   9  13
HETATM   13  C   UNL     1      41.199 -13.708   0.830  1.00  0.00     0.254 C 
HETATM   14  N   UNL     1      42.019 -14.638   1.424  1.00  0.00    -0.353 N 
HETATM   15  H   UNL     1      42.774 -14.333   2.023  1.00  0.00     0.163 HD
HETATM   16  O   UNL     1      40.345 -14.015   0.004  1.00  0.00    -0.268 OA
BRANCH  14  17
HETATM   17  C   UNL     1      41.893 -16.053   1.180  1.00  0.00     0.161 C 
BRANCH  17  18
HETATM   18  C   UNL     1      42.597 -16.870   2.230  1.00  0.00    -0.040 A 
HETATM   19  C   UNL     1      42.839 -18.235   2.036  1.00  0.00     0.011 A 
HETATM   20  C   UNL     1      43.533 -18.970   3.001  1.00  0.00     0.037 A 
HETATM   21  C   UNL     1      43.996 -18.360   4.168  1.00  0.00     0.068 A 
HETATM   22  C   UNL     1      43.724 -17.008   4.383  1.00  0.00     0.037 A 
HETATM   23  C   UNL     1      43.024 -16.270   3.422  1.00  0.00     0.011 A 
BRANCH  21  24
HETATM   24  O   UNL     1      44.686 -19.183   5.015  1.00  0.00    -0.356 OA
HETATM   25  C   UNL     1      44.171 -20.498   5.182  1.00  0.00     0.210 C 
ENDBRANCH  21  24
ENDBRANCH  17  18
ENDBRANCH  14  17
ENDBRANCH   9  13
BRANCH   3  26
HETATM   26  C   UNL     1      42.064 -13.536   5.788  1.00  0.00    -0.002 A 
HETATM   27  C   UNL     1      43.304 -13.686   6.419  1.00  0.00     0.014 A 
HETATM   28  C   UNL     1      43.526 -14.759   7.285  1.00  0.00     0.001 A 
HETATM   29  C   UNL     1      42.509 -15.684   7.526  1.00  0.00     0.000 A 
HETATM   30  C   UNL     1      41.270 -15.538   6.906  1.00  0.00     0.001 A 
HETATM   31  C   UNL     1      41.046 -14.466   6.042  1.00  0.00     0.014 A 
ENDBRANCH   3  26
TORSDOF 5
ENDMDL
MODEL 4
REMARK VINA RESULT:      -7.7      2.080      7.438
REMARK  5 active torsions:
REMARK  status: ('A' for Active; 'I' for Inactive)
REMARK    1  A    between atoms: C_3  and  C_4 
REMARK    2  A    between atoms: C_15  and  C_16 
REMARK       I    between atoms: C_16  and  N_17 
REMARK    3  A    between atoms: N_17  and  C_18 
REMARK    4  A    between atoms: C_18  and  C_19 
REMARK    5  A    between atoms: C_22  and  O_23 
ROOT
HETATM    1  C   UNL     1      40.003 -14.588  -1.188  1.00  0.00     0.055 C 
HETATM    2  C   UNL     1      39.820 -13.630  -0.050  1.00  0.00     0.024 A 
HETATM    3  C   UNL     1      40.402 -13.687   1.162  1.00  0.00     0.096 A 
HETATM    4  O   UNL     1      40.248 -12.750   2.163  1.00  0.00    -0.307 OA
HETATM    5  C   UNL     1      39.382 -11.702   1.988  1.00  0.00     0.106 A 
HETATM    6  C   UNL     1      38.668 -11.550   0.798  1.00  0.00     0.050 A 
HETATM    7  C   UNL     1      38.894 -12.499  -0.304  1.00  0.00     0.193 A 
HETATM    8  O   UNL     1      38.330 -12.359  -1.384  1.00  0.00    -0.287 OA
HETATM    9  C   UNL     1      39.209 -10.771   3.027  1.00  0.00     0.066 A 
HETATM   10  C   UNL     1      38.275  -9.732   2.857  1.00  0.00     0.020 A 
HETATM   11  C   UNL     1      37.548  -9.600   1.673  1.00  0.00     0.002 A 
HETATM   12  C   UNL     1      37.752 -10.504   0.636  1.00  0.00     0.018 A 
ENDROOT
BRANCH   9  13
HETATM   13  C   UNL     1      39.992 -10.763   4.308  1.00  0.00     0.254 C 
HETATM   14  N   UNL     1      40.322 -11.975   4.866  1.00  0.00    -0.353 N 
HETATM   15  H   UNL     1      39.920 -12.826   4.495  1.00  0.00     0.163 HD
HETATM   16  O   UNL     1      40.355  -9.694   4.791  1.00  0.00    -0.268 OA
BRANCH  14  17
HETATM   17  C   UNL     1      41.180 -12.091   6.019  1.00  0.00     0.161 C 
BRANCH  17  18
HETATM   18  C   UNL     1      41.945 -13.387   6.021  1.00  0.00    -0.040 A 
HETATM   19  C   UNL     1      43.284 -13.431   6.429  1.00  0.00     0.011 A 
HETATM   20  C   UNL     1      43.968 -14.648   6.469  1.00  0.00     0.037 A 
HETATM   21  C   UNL     1      43.333 -15.837   6.105  1.00  0.00     0.068 A 
HETATM   22  C   UNL     1      42.010 -15.794   5.661  1.00  0.00     0.037 A 
HETATM   23  C   UNL     1      41.324 -14.575   5.615  1.00  0.00     0.011 A 
BRANCH  21  24
HETATM   24  O   UNL     1      44.104 -16.961   6.216  1.00  0.00    -0.356 OA
HETATM   25  C   UNL     1      43.431 -18.207   6.089  1.00  0.00     0.210 C 
ENDBRANCH  21  24
ENDBRANCH  17  18
ENDBRANCH  14  17
ENDBRANCH   9  13
BRANCH   3  26
HETATM   26  C   UNL     1      41.281 -14.790   1.573  1.00  0.00    -0.002 A 
HETATM   27  C   UNL     1      40.742 -16.024   1.956  1.00  0.00     0.014 A 
HETATM   28  C   UNL     1      41.586 -17.074   2.324  1.00  0.00     0.001 A 
HETATM   29  C   UNL     1      42.970 -16.898   2.307  1.00  0.00     0.000 A 
HETATM   30  C   UNL     1      43.514 -15.675   1.921  1.00  0.00     0.001 A 
HETATM   31  C   UNL     1      42.673 -14.624   1.552  1.00  0.00     0.014 A 
ENDBRANCH   3  26
TORSDOF 5
ENDMDL
MODEL 5
REMARK VINA RESULT:      -7.6      2.084      3.069
REMARK  5 active torsions:
REMARK  status: ('A' for Active; 'I' for Inactive)
REMARK    1  A    between atoms: C_3  and  C_4 
REMARK    2  A    between atoms: C_15  and  C_16 
REMARK       I    between atoms: C_16  and  N_17 
REMARK    3  A    between atoms: N_17  and  C_18 
REMARK    4  A    between atoms: C_18  and  C_19 
REMARK    5  A    between atoms: C_22  and  O_23 
ROOT
HETATM    1  C   UNL     1      43.557 -13.496   7.174  1.00  0.00     0.055 C 
HETATM    2  C   UNL     1      43.059 -14.203   5.949  1.00  0.00     0.024 A 
HETATM    3  C   UNL     1      42.099 -13.787   5.105  1.00  0.00     0.096 A 
HETATM    4  O   UNL     1      41.710 -14.444   3.955  1.00  0.00    -0.307 OA
HETATM    5  C   UNL     1      42.260 -15.661   3.648  1.00  0.00     0.106 A 
HETATM    6  C   UNL     1      43.231 -16.240   4.468  1.00  0.00     0.050 A 
HETATM    7  C   UNL     1      43.710 -15.502   5.648  1.00  0.00     0.193 A 
HETATM    8  O   UNL     1      44.605 -15.953   6.355  1.00  0.00    -0.287 OA
HETATM    9  C   UNL     1      41.833 -16.337   2.492  1.00  0.00     0.066 A 
HETATM   10  C   UNL     1      42.364 -17.612   2.218  1.00  0.00     0.020 A 
HETATM   11  C   UNL     1      43.317 -18.193   3.054  1.00  0.00     0.002 A 
HETATM   12  C   UNL     1      43.761 -17.502   4.177  1.00  0.00     0.018 A 
ENDROOT
BRANCH   9  13
HETATM   13  C   UNL     1      40.879 -15.778   1.477  1.00  0.00     0.254 C 
HETATM   14  N   UNL     1      41.252 -14.639   0.804  1.00  0.00    -0.353 N 
HETATM   15  H   UNL     1      42.075 -14.129   1.097  1.00  0.00     0.163 HD
HETATM   16  O   UNL     1      39.828 -16.368   1.241  1.00  0.00    -0.268 OA
BRANCH  14  17
HETATM   17  C   UNL     1      40.478 -14.089  -0.281  1.00  0.00     0.161 C 
BRANCH  17  18
HETATM   18  C   UNL     1      39.585 -12.968   0.178  1.00  0.00    -0.040 A 
HETATM   19  C   UNL     1      38.680 -12.363  -0.704  1.00  0.00     0.011 A 
HETATM   20  C   UNL     1      37.826 -11.355  -0.252  1.00  0.00     0.037 A 
HETATM   21  C   UNL     1      37.857 -10.934   1.079  1.00  0.00     0.068 A 
HETATM   22  C   UNL     1      38.782 -11.508   1.952  1.00  0.00     0.037 A 
HETATM   23  C   UNL     1      39.644 -12.514   1.502  1.00  0.00     0.011 A 
BRANCH  21  24
HETATM   24  O   UNL     1      36.950  -9.962   1.399  1.00  0.00    -0.356 OA
HETATM   25  C   UNL     1      36.239  -9.377   0.315  1.00  0.00     0.210 C 
ENDBRANCH  21  24
ENDBRANCH  17  18
ENDBRANCH  14  17
ENDBRANCH   9  13
BRANCH   3  26
HETATM   26  C   UNL     1      41.323 -12.557   5.323  1.00  0.00    -0.002 A 
HETATM   27  C   UNL     1      41.763 -11.337   4.798  1.00  0.00     0.014 A 
HETATM   28  C   UNL     1      41.009 -10.178   4.990  1.00  0.00     0.001 A 
HETATM   29  C   UNL     1      39.810 -10.233   5.703  1.00  0.00     0.000 A 
HETATM   30  C   UNL     1      39.363 -11.446   6.224  1.00  0.00     0.001 A 
HETATM   31  C   UNL     1      40.114 -12.606   6.032  1.00  0.00     0.014 A 
ENDBRANCH   3  26
TORSDOF 5
ENDMDL
MODEL 6
REMARK VINA RESULT:      -7.6      2.071      6.158
REMARK  5 active torsions:
REMARK  status: ('A' for Active; 'I' for Inactive)
REMARK    1  A    between atoms: C_3  and  C_4 
REMARK    2  A    between atoms: C_15  and  C_16 
REMARK       I    between atoms: C_16  and  N_17 
REMARK    3  A    between atoms: N_17  and  C_18 
REMARK    4  A    between atoms: C_18  and  C_19 
REMARK    5  A    between atoms: C_22  and  O_23 
ROOT
HETATM    1  C   UNL     1      40.187 -10.149   6.610  1.00  0.00     0.055 C 
HETATM    2  C   UNL     1      40.147 -10.738   5.232  1.00  0.00     0.024 A 
HETATM    3  C   UNL     1      41.068 -11.534   4.662  1.00  0.00     0.096 A 
HETATM    4  O   UNL     1      40.964 -12.101   3.408  1.00  0.00    -0.307 OA
HETATM    5  C   UNL     1      39.893 -11.794   2.609  1.00  0.00     0.106 A 
HETATM    6  C   UNL     1      38.887 -10.933   3.052  1.00  0.00     0.050 A 
HETATM    7  C   UNL     1      38.952 -10.396   4.421  1.00  0.00     0.193 A 
HETATM    8  O   UNL     1      38.054  -9.687   4.864  1.00  0.00    -0.287 OA
HETATM    9  C   UNL     1      39.814 -12.351   1.320  1.00  0.00     0.066 A 
HETATM   10  C   UNL     1      38.739 -11.984   0.488  1.00  0.00     0.020 A 
HETATM   11  C   UNL     1      37.750 -11.106   0.932  1.00  0.00     0.002 A 
HETATM   12  C   UNL     1      37.817 -10.587   2.221  1.00  0.00     0.018 A 
ENDROOT
BRANCH   9  13
HETATM   13  C   UNL     1      40.770 -13.368   0.767  1.00  0.00     0.254 C 
HETATM   14  N   UNL     1      41.440 -14.171   1.660  1.00  0.00    -0.353 N 
HETATM   15  H   UNL     1      41.388 -13.975   2.650  1.00  0.00     0.163 HD
HETATM   16  O   UNL     1      40.893 -13.488  -0.448  1.00  0.00    -0.268 OA
BRANCH  14  17
HETATM   17  C   UNL     1      42.280 -15.266   1.240  1.00  0.00     0.161 C 
BRANCH  17  18
HETATM   18  C   UNL     1      42.701 -16.127   2.400  1.00  0.00    -0.040 A 
HETATM   19  C   UNL     1      43.168 -17.431   2.195  1.00  0.00     0.011 A 
HETATM   20  C   UNL     1      43.598 -18.203   3.277  1.00  0.00     0.037 A 
HETATM   21  C   UNL     1      43.570 -17.691   4.575  1.00  0.00     0.068 A 
HETATM   22  C   UNL     1      43.070 -16.406   4.790  1.00  0.00     0.037 A 
HETATM   23  C   UNL     1      42.633 -15.632   3.709  1.00  0.00     0.011 A 
BRANCH  21  24
HETATM   24  O   UNL     1      44.045 -18.537   5.539  1.00  0.00    -0.356 OA
HETATM   25  C   UNL     1      44.063 -19.921   5.216  1.00  0.00     0.210 C 
ENDBRANCH  21  24
ENDBRANCH  17  18
ENDBRANCH  14  17
ENDBRANCH   9  13
BRANCH   3  26
HETATM   26  C   UNL     1      42.332 -11.892   5.322  1.00  0.00    -0.002 A 
HETATM   27  C   UNL     1      42.391 -12.981   6.198  1.00  0.00     0.014 A 
HETATM   28  C   UNL     1      43.601 -13.328   6.804  1.00  0.00     0.001 A 
HETATM   29  C   UNL     1      44.755 -12.592   6.534  1.00  0.00     0.000 A 
HETATM   30  C   UNL     1      44.704 -11.510   5.658  1.00  0.00     0.001 A 
HETATM   31  C   UNL     1      43.497 -11.161   5.051  1.00  0.00     0.014 A 
ENDBRANCH   3  26
TORSDOF 5
ENDMDL
MODEL 7
REMARK VINA RESULT:      -7.6      2.036      4.782
REMARK  5 active torsions:
REMARK  status: ('A' for Active; 'I' for Inactive)
REMARK    1  A    between atoms: C_3  and  C_4 
REMARK    2  A    between atoms: C_15  and  C_16 
REMARK       I    between atoms: C_16  and  N_17 
REMARK    3  A    between atoms: N_17  and  C_18 
REMARK    4  A    between atoms: C_18  and  C_19 
REMARK    5  A    between atoms: C_22  and  O_23 
ROOT
HETATM    1  C   UNL     1      43.946 -14.818   6.387  1.00  0.00     0.055 C 
HETATM    2  C   UNL     1      43.212 -13.595   5.926  1.00  0.00     0.024 A 
HETATM    3  C   UNL     1      42.470 -13.464   4.812  1.00  0.00     0.096 A 
HETATM    4  O   UNL     1      41.764 -12.333   4.454  1.00  0.00    -0.307 OA
HETATM    5  C   UNL     1      41.860 -11.200   5.219  1.00  0.00     0.106 A 
HETATM    6  C   UNL     1      42.643 -11.177   6.375  1.00  0.00     0.050 A 
HETATM    7  C   UNL     1      43.328 -12.407   6.807  1.00  0.00     0.193 A 
HETATM    8  O   UNL     1      43.972 -12.438   7.849  1.00  0.00    -0.287 OA
HETATM    9  C   UNL     1      41.163 -10.044   4.827  1.00  0.00     0.066 A 
HETATM   10  C   UNL     1      41.316  -8.870   5.590  1.00  0.00     0.020 A 
HETATM   11  C   UNL     1      42.118  -8.849   6.731  1.00  0.00     0.002 A 
HETATM   12  C   UNL     1      42.775 -10.007   7.133  1.00  0.00     0.018 A 
ENDROOT
BRANCH   9  13
HETATM   13  C   UNL     1      40.210  -9.970   3.670  1.00  0.00     0.254 C 
HETATM   14  N   UNL     1      39.480 -11.096   3.368  1.00  0.00    -0.353 N 
HETATM   15  H   UNL     1      39.696 -11.972   3.824  1.00  0.00     0.163 HD
HETATM   16  O   UNL     1      40.070  -8.912   3.064  1.00  0.00    -0.268 OA
BRANCH  14  17
HETATM   17  C   UNL     1      38.443 -11.103   2.366  1.00  0.00     0.161 C 
BRANCH  17  18
HETATM   18  C   UNL     1      38.812 -11.953   1.181  1.00  0.00    -0.040 A 
HETATM   19  C   UNL     1      39.695 -13.030   1.316  1.00  0.00     0.011 A 
HETATM   20  C   UNL     1      39.994 -13.837   0.216  1.00  0.00     0.037 A 
HETATM   21  C   UNL     1      39.420 -13.586  -1.032  1.00  0.00     0.068 A 
HETATM   22  C   UNL     1      38.569 -12.490  -1.181  1.00  0.00     0.037 A 
HETATM   23  C   UNL     1      38.272 -11.676  -0.082  1.00  0.00     0.011 A 
BRANCH  21  24
HETATM   24  O   UNL     1      39.772 -14.467  -2.017  1.00  0.00    -0.356 OA
HETATM   25  C   UNL     1      38.707 -15.050  -2.757  1.00  0.00     0.210 C 
ENDBRANCH  21  24
ENDBRANCH  17  18
ENDBRANCH  14  17
ENDBRANCH   9  13
BRANCH   3  26
HETATM   26  C   UNL     1      42.331 -14.536   3.816  1.00  0.00    -0.002 A 
HETATM   27  C   UNL     1      41.278 -15.453   3.902  1.00  0.00     0.014 A 
HETATM   28  C   UNL     1      41.140 -16.455   2.938  1.00  0.00     0.001 A 
HETATM   29  C   UNL     1      42.050 -16.541   1.884  1.00  0.00     0.000 A 
HETATM   30  C   UNL     1      43.097 -15.627   1.788  1.00  0.00     0.001 A 
HETATM   31  C   UNL     1      43.236 -14.625   2.749  1.00  0.00     0.014 A 
ENDBRANCH   3  26
TORSDOF 5
ENDMDL
MODEL 8
REMARK VINA RESULT:      -7.5      1.724      6.171
REMARK  5 active torsions:
REMARK  status: ('A' for Active; 'I' for Inactive)
REMARK    1  A    between atoms: C_3  and  C_4 
REMARK    2  A    between atoms: C_15  and  C_16 
REMARK       I    between atoms: C_16  and  N_17 
REMARK    3  A    between atoms: N_17  and  C_18 
REMARK    4  A    between atoms: C_18  and  C_19 
REMARK    5  A    between atoms: C_22  and  O_23 
ROOT
HETATM    1  C   UNL     1      40.652  -8.943   3.182  1.00  0.00     0.055 C 
HETATM    2  C   UNL     1      40.588 -10.272   2.491  1.00  0.00     0.024 A 
HETATM    3  C   UNL     1      41.244 -11.397   2.830  1.00  0.00     0.096 A 
HETATM    4  O   UNL     1      41.113 -12.616   2.198  1.00  0.00    -0.307 OA
HETATM    5  C   UNL     1      40.325 -12.723   1.082  1.00  0.00     0.106 A 
HETATM    6  C   UNL     1      39.629 -11.619   0.584  1.00  0.00     0.050 A 
HETATM    7  C   UNL     1      39.699 -10.338   1.306  1.00  0.00     0.193 A 
HETATM    8  O   UNL     1      39.051  -9.367   0.931  1.00  0.00    -0.287 OA
HETATM    9  C   UNL     1      40.224 -13.963   0.426  1.00  0.00     0.066 A 
HETATM   10  C   UNL     1      39.458 -14.046  -0.752  1.00  0.00     0.020 A 
HETATM   11  C   UNL     1      38.784 -12.933  -1.255  1.00  0.00     0.002 A 
HETATM   12  C   UNL     1      38.859 -11.719  -0.581  1.00  0.00     0.018 A 
ENDROOT
BRANCH   9  13
HETATM   13  C   UNL     1      40.835 -15.243   0.918  1.00  0.00     0.254 C 
HETATM   14  N   UNL     1      42.206 -15.343   0.913  1.00  0.00    -0.353 N 
HETATM   15  H   UNL     1      42.761 -14.631   0.458  1.00  0.00     0.163 HD
HETATM   16  O   UNL     1      40.110 -16.134   1.351  1.00  0.00    -0.268 OA
BRANCH  14  17
HETATM   17  C   UNL     1      42.904 -16.469   1.483  1.00  0.00     0.161 C 
BRANCH  17  18
HETATM   18  C   UNL     1      43.122 -16.304   2.963  1.00  0.00    -0.040 A 
HETATM   19  C   UNL     1      43.524 -17.386   3.755  1.00  0.00     0.011 A 
HETATM   20  C   UNL     1      43.765 -17.208   5.119  1.00  0.00     0.037 A 
HETATM   21  C   UNL     1      43.612 -15.955   5.715  1.00  0.00     0.068 A 
HETATM   22  C   UNL     1      43.175 -14.881   4.937  1.00  0.00     0.037 A 
HETATM   23  C   UNL     1      42.926 -15.057   3.571  1.00  0.00     0.011 A 
BRANCH  21  24
HETATM   24  O   UNL     1      43.908 -15.909   7.049  1.00  0.00    -0.356 OA
HETATM   25  C   UNL     1      42.843 -15.562   7.925  1.00  0.00     0.210 C 
ENDBRANCH  21  24
ENDBRANCH  17  18
ENDBRANCH  14  17
ENDBRANCH   9  13
BRANCH   3  26
HETATM   26  C   UNL     1      42.212 -11.453   3.936  1.00  0.00    -0.002 A 
HETATM   27  C   UNL     1      43.587 -11.415   3.678  1.00  0.00     0.014 A 
HETATM   28  C   UNL     1      44.499 -11.447   4.735  1.00  0.00     0.001 A 
HETATM   29  C   UNL     1      44.041 -11.512   6.052  1.00  0.00     0.000 A 
HETATM   30  C   UNL     1      42.674 -11.544   6.316  1.00  0.00     0.001 A 
HETATM   31  C   UNL     1      41.760 -11.512   5.262  1.00  0.00     0.014 A 
ENDBRANCH   3  26
TORSDOF 5
ENDMDL
MODEL 9
REMARK VINA RESULT:      -7.5     16.499     18.447
REMARK  5 active torsions:
REMARK  status: ('A' for Active; 'I' for Inactive)
REMARK    1  A    between atoms: C_3  and  C_4 
REMARK    2  A    between atoms: C_15  and  C_16 
REMARK       I    between atoms: C_16  and  N_17 
REMARK    3  A    between atoms: N_17  and  C_18 
REMARK    4  A    between atoms: C_18  and  C_19 
REMARK    5  A    between atoms: C_22  and  O_23 
ROOT
HETATM    1  C   UNL     1      49.616 -29.905  -2.234  1.00  0.00     0.055 C 
HETATM    2  C   UNL     1      48.900 -29.896  -0.917  1.00  0.00     0.024 A 
HETATM    3  C   UNL     1      47.575 -29.794  -0.713  1.00  0.00     0.096 A 
HETATM    4  O   UNL     1      46.952 -29.846   0.518  1.00  0.00    -0.307 OA
HETATM    5  C   UNL     1      47.707 -29.927   1.660  1.00  0.00     0.106 A 
HETATM    6  C   UNL     1      49.101 -29.983   1.599  1.00  0.00     0.050 A 
HETATM    7  C   UNL     1      49.764 -30.015   0.284  1.00  0.00     0.193 A 
HETATM    8  O   UNL     1      50.981 -30.127   0.194  1.00  0.00    -0.287 OA
HETATM    9  C   UNL     1      47.064 -29.946   2.909  1.00  0.00     0.066 A 
HETATM   10  C   UNL     1      47.851 -29.972   4.076  1.00  0.00     0.020 A 
HETATM   11  C   UNL     1      49.244 -30.005   4.007  1.00  0.00     0.002 A 
HETATM   12  C   UNL     1      49.872 -30.022   2.766  1.00  0.00     0.018 A 
ENDROOT
BRANCH   9  13
HETATM   13  C   UNL     1      45.576 -29.997   3.106  1.00  0.00     0.254 C 
HETATM   14  N   UNL     1      44.791 -29.253   2.257  1.00  0.00    -0.353 N 
HETATM   15  H   UNL     1      45.221 -28.591   1.626  1.00  0.00     0.163 HD
HETATM   16  O   UNL     1      45.102 -30.726   3.972  1.00  0.00    -0.268 OA
BRANCH  14  17
HETATM   17  C   UNL     1      43.351 -29.326   2.267  1.00  0.00     0.161 C 
BRANCH  17  18
HETATM   18  C   UNL     1      42.847 -30.563   1.572  1.00  0.00    -0.040 A 
HETATM   19  C   UNL     1      43.547 -31.117   0.494  1.00  0.00     0.011 A 
HETATM   20  C   UNL     1      43.091 -32.290  -0.112  1.00  0.00     0.037 A 
HETATM   21  C   UNL     1      41.935 -32.927   0.344  1.00  0.00     0.068 A 
HETATM   22  C   UNL     1      41.213 -32.358   1.394  1.00  0.00     0.037 A 
HETATM   23  C   UNL     1      41.664 -31.180   2.000  1.00  0.00     0.011 A 
BRANCH  21  24
HETATM   24  O   UNL     1      41.615 -34.082  -0.315  1.00  0.00    -0.356 OA
HETATM   25  C   UNL     1      42.625 -34.641  -1.145  1.00  0.00     0.210 C 
ENDBRANCH  21  24
ENDBRANCH  17  18
ENDBRANCH  14  17
ENDBRANCH   9  13
BRANCH   3  26
HETATM   26  C   UNL     1      46.613 -29.597  -1.806  1.00  0.00    -0.002 A 
HETATM   27  C   UNL     1      45.998 -30.695  -2.417  1.00  0.00     0.014 A 
HETATM   28  C   UNL     1      45.068 -30.499  -3.440  1.00  0.00     0.001 A 
HETATM   29  C   UNL     1      44.745 -29.205  -3.854  1.00  0.00     0.000 A 
HETATM   30  C   UNL     1      45.349 -28.107  -3.245  1.00  0.00     0.001 A 
HETATM   31  C   UNL     1      46.278 -28.300  -2.222  1.00  0.00     0.014 A 
ENDBRANCH   3  26
TORSDOF 5
ENDMDL
MODEL 10
REMARK VINA RESULT:      -7.5     16.280     18.325
REMARK  5 active torsions:
REMARK  status: ('A' for Active; 'I' for Inactive)
REMARK    1  A    between atoms: C_3  and  C_4 
REMARK    2  A    between atoms: C_15  and  C_16 
REMARK       I    between atoms: C_16  and  N_17 
REMARK    3  A    between atoms: N_17  and  C_18 
REMARK    4  A    between atoms: C_18  and  C_19 
REMARK    5  A    between atoms: C_22  and  O_23 
ROOT
HETATM    1  C   UNL     1      46.430 -32.310   5.858  1.00  0.00     0.055 C 
HETATM    2  C   UNL     1      45.662 -31.789   4.681  1.00  0.00     0.024 A 
HETATM    3  C   UNL     1      46.154 -31.133   3.615  1.00  0.00     0.096 A 
HETATM    4  O   UNL     1      45.417 -30.720   2.524  1.00  0.00    -0.307 OA
HETATM    5  C   UNL     1      44.057 -30.896   2.515  1.00  0.00     0.106 A 
HETATM    6  C   UNL     1      43.404 -31.513   3.585  1.00  0.00     0.050 A 
HETATM    7  C   UNL     1      44.198 -32.032   4.710  1.00  0.00     0.193 A 
HETATM    8  O   UNL     1      43.663 -32.634   5.635  1.00  0.00    -0.287 OA
HETATM    9  C   UNL     1      43.312 -30.441   1.414  1.00  0.00     0.066 A 
HETATM   10  C   UNL     1      41.910 -30.576   1.442  1.00  0.00     0.020 A 
HETATM   11  C   UNL     1      41.264 -31.174   2.524  1.00  0.00     0.002 A 
HETATM   12  C   UNL     1      42.012 -31.654   3.594  1.00  0.00     0.018 A 
ENDROOT
BRANCH   9  13
HETATM   13  C   UNL     1      43.902 -29.860   0.162  1.00  0.00     0.254 C 
HETATM   14  N   UNL     1      44.487 -28.619   0.245  1.00  0.00    -0.353 N 
HETATM   15  H   UNL     1      44.386 -28.070   1.088  1.00  0.00     0.163 HD
HETATM   16  O   UNL     1      43.892 -30.516  -0.875  1.00  0.00    -0.268 OA
BRANCH  14  17
HETATM   17  C   UNL     1      45.200 -28.021  -0.857  1.00  0.00     0.161 C 
BRANCH  17  18
HETATM   18  C   UNL     1      46.624 -28.502  -0.932  1.00  0.00    -0.040 A 
HETATM   19  C   UNL     1      47.423 -28.562   0.216  1.00  0.00     0.011 A 
HETATM   20  C   UNL     1      48.729 -29.051   0.138  1.00  0.00     0.037 A 
HETATM   21  C   UNL     1      49.258 -29.488  -1.078  1.00  0.00     0.068 A 
HETATM   22  C   UNL     1      48.478 -29.395  -2.232  1.00  0.00     0.037 A 
HETATM   23  C   UNL     1      47.171 -28.899  -2.159  1.00  0.00     0.011 A 
BRANCH  21  24
HETATM   24  O   UNL     1      50.535 -29.972  -1.011  1.00  0.00    -0.356 OA
HETATM   25  C   UNL     1      51.079 -30.496  -2.216  1.00  0.00     0.210 C 
ENDBRANCH  21  24
ENDBRANCH  17  18
ENDBRANCH  14  17
ENDBRANCH   9  13
BRANCH   3  26
HETATM   26  C   UNL     1      47.571 -30.761   3.492  1.00  0.00    -0.002 A 
HETATM   27  C   UNL     1      48.486 -31.637   2.896  1.00  0.00     0.014 A 
HETATM   28  C   UNL     1      49.826 -31.267   2.763  1.00  0.00     0.001 A 
HETATM   29  C   UNL     1      50.256 -30.020   3.220  1.00  0.00     0.000 A 
HETATM   30  C   UNL     1      49.349 -29.141   3.809  1.00  0.00     0.001 A 
HETATM   31  C   UNL     1      48.010 -29.508   3.942  1.00  0.00     0.014 A 
ENDBRANCH   3  26
TORSDOF 5
ENDMDL
