MODEL 1
REMARK VINA RESULT:      -9.2      0.000      0.000
REMARK  6 active torsions:
REMARK  status: ('A' for Active; 'I' for Inactive)
REMARK    1  A    between atoms: C_4  and  N_5 
REMARK       I    between atoms: N_5  and  C_6 
REMARK       I    between atoms: C_6  and  N_16 
REMARK    2  A    between atoms: N_16  and  CA_17 
REMARK    3  A    between atoms: CA_17  and  C_18 
REMARK    4  A    between atoms: CA_17  and  CB_20 
REMARK    5  A    between atoms: C_18  and  O_19 
REMARK    6  A    between atoms: CB_20  and  CG_21 
ROOT
HETATM    1  N   UNK A   0      39.958 -12.056   1.809  1.00  0.00    -0.307 N 
HETATM    2  C   UNK A   0      40.252 -13.017   2.720  1.00  0.00     0.321 C 
HETATM    3  O   UNK A   0      39.712 -12.994   3.824  1.00  0.00    -0.247 OA
HETATM    4  H   UNK A   0      39.233 -11.422   2.143  1.00  0.00     0.170 HD
ATOM      5  N   TRP A   1      41.143 -13.976   2.369  1.00  0.00    -0.336 N 
ATOM      6  H   TRP A   1      41.022 -14.327   1.431  1.00  0.00     0.164 HD
ENDROOT
BRANCH   5   7
ATOM      7  CA  TRP A   1      41.632 -14.967   3.338  1.00  0.00     0.114 C 
BRANCH   7   8
ATOM      8  C   TRP A   1      40.561 -16.046   3.581  1.00  0.00     0.189 C 
BRANCH   8   9
ATOM      9  O   TRP A   1      40.078 -15.980   4.925  1.00  0.00    -0.399 OA
ATOM     10  H   TRP A   1      40.777 -16.363   5.484  1.00  0.00     0.209 HD
ENDBRANCH   8   9
ENDBRANCH   7   8
BRANCH   7  11
ATOM     11  CB  TRP A   1      42.954 -15.594   2.845  1.00  0.00     0.068 C 
BRANCH  11  12
ATOM     12  CG  TRP A   1      43.438 -16.726   3.714  1.00  0.00    -0.028 A 
ATOM     13  CD2 TRP A   1      43.497 -18.117   3.362  1.00  0.00    -0.002 A 
ATOM     14  CE2 TRP A   1      43.993 -18.811   4.468  1.00  0.00     0.042 A 
ATOM     15  CE3 TRP A   1      43.169 -18.855   2.206  1.00  0.00     0.014 A 
ATOM     16  CZ2 TRP A   1      44.177 -20.198   4.477  1.00  0.00     0.030 A 
ATOM     17  NE1 TRP A   1      44.228 -17.884   5.454  1.00  0.00    -0.365 N 
ATOM     18  CH2 TRP A   1      43.844 -20.904   3.318  1.00  0.00     0.002 A 
ATOM     19  CZ3 TRP A   1      43.349 -20.244   2.197  1.00  0.00     0.001 A 
ATOM     20  HE1 TRP A   1      44.578 -18.105   6.376  1.00  0.00     0.165 HD
ATOM     21  CD1 TRP A   1      43.909 -16.631   5.011  1.00  0.00     0.096 A 
ENDBRANCH  11  12
ENDBRANCH   7  11
ENDBRANCH   5   7
BRANCH   1  22
HETATM   22  C   UNK A   0      40.513 -11.634   0.574  1.00  0.00     0.066 A 
HETATM   23  C   UNK A   0      41.196 -10.429   0.372  1.00  0.00     0.038 A 
HETATM   24  C   UNK A   0      41.698 -10.085  -0.889  1.00  0.00    -0.059 A 
HETATM   25  C   UNK A   0      42.417  -8.786  -1.102  1.00  0.00     0.048 C 
HETATM   26  C   UNK A   0      41.477 -10.948  -1.964  1.00  0.00     0.020 A 
HETATM   27  C   UNK A   0      40.772 -12.147  -1.784  1.00  0.00    -0.005 A 
HETATM   28  C   UNK A   0      40.288 -12.507  -0.507  1.00  0.00     0.093 A 
HETATM   29  C   UNK A   0      40.520 -13.009  -2.860  1.00  0.00     0.015 A 
HETATM   30  N   UNK A   0      39.598 -13.658  -0.314  1.00  0.00    -0.258 NA
HETATM   31  C   UNK A   0      39.372 -14.461  -1.377  1.00  0.00     0.117 A 
HETATM   32  C   UNK A   0      39.807 -14.182  -2.657  1.00  0.00     0.020 A 
ENDBRANCH   1  22
TORSDOF 6
ENDMDL
MODEL 2
REMARK VINA RESULT:      -9.2      2.707      7.342
REMARK  6 active torsions:
REMARK  status: ('A' for Active; 'I' for Inactive)
REMARK    1  A    between atoms: C_4  and  N_5 
REMARK       I    between atoms: N_5  and  C_6 
REMARK       I    between atoms: C_6  and  N_16 
REMARK    2  A    between atoms: N_16  and  CA_17 
REMARK    3  A    between atoms: CA_17  and  C_18 
REMARK    4  A    between atoms: CA_17  and  CB_20 
REMARK    5  A    between atoms: C_18  and  O_19 
REMARK    6  A    between atoms: CB_20  and  CG_21 
ROOT
HETATM    1  N   UNK A   0      43.456 -16.394   6.200  1.00  0.00    -0.307 N 
HETATM    2  C   UNK A   0      43.385 -15.201   6.840  1.00  0.00     0.321 C 
HETATM    3  O   UNK A   0      43.166 -15.171   8.049  1.00  0.00    -0.247 OA
HETATM    4  H   UNK A   0      43.375 -17.179   6.846  1.00  0.00     0.170 HD
ATOM      5  N   TRP A   1      43.561 -14.074   6.108  1.00  0.00    -0.336 N 
ATOM      6  H   TRP A   1      44.310 -14.133   5.436  1.00  0.00     0.164 HD
ENDROOT
BRANCH   5   7
ATOM      7  CA  TRP A   1      43.355 -12.738   6.686  1.00  0.00     0.114 C 
BRANCH   7   8
ATOM      8  C   TRP A   1      44.710 -12.059   6.948  1.00  0.00     0.189 C 
BRANCH   8   9
ATOM      9  O   TRP A   1      44.782 -11.583   8.295  1.00  0.00    -0.399 OA
ATOM     10  H   TRP A   1      44.957 -10.627   8.235  1.00  0.00     0.209 HD
ENDBRANCH   8   9
ENDBRANCH   7   8
BRANCH   7  11
ATOM     11  CB  TRP A   1      42.471 -11.881   5.754  1.00  0.00     0.068 C 
BRANCH  11  12
ATOM     12  CG  TRP A   1      41.466 -12.688   4.976  1.00  0.00    -0.028 A 
ATOM     13  CD2 TRP A   1      41.275 -12.686   3.552  1.00  0.00    -0.002 A 
ATOM     14  CE2 TRP A   1      40.231 -13.567   3.265  1.00  0.00     0.042 A 
ATOM     15  CE3 TRP A   1      41.890 -12.010   2.478  1.00  0.00     0.014 A 
ATOM     16  CZ2 TRP A   1      39.772 -13.806   1.965  1.00  0.00     0.030 A 
ATOM     17  NE1 TRP A   1      39.801 -14.088   4.461  1.00  0.00    -0.365 N 
ATOM     18  CH2 TRP A   1      40.399 -13.124   0.920  1.00  0.00     0.002 A 
ATOM     19  CZ3 TRP A   1      41.444 -12.240   1.170  1.00  0.00     0.001 A 
ATOM     20  HE1 TRP A   1      39.041 -14.746   4.560  1.00  0.00     0.165 HD
ATOM     21  CD1 TRP A   1      40.540 -13.576   5.491  1.00  0.00     0.096 A 
ENDBRANCH  11  12
ENDBRANCH   7  11
ENDBRANCH   5   7
BRANCH   1  22
HETATM   22  C   UNK A   0      43.468 -16.813   4.845  1.00  0.00     0.066 A 
HETATM   23  C   UNK A   0      43.267 -15.972   3.745  1.00  0.00     0.038 A 
HETATM   24  C   UNK A   0      43.279 -16.477   2.438  1.00  0.00    -0.059 A 
HETATM   25  C   UNK A   0      43.049 -15.573   1.263  1.00  0.00     0.048 C 
HETATM   26  C   UNK A   0      43.462 -17.847   2.243  1.00  0.00     0.020 A 
HETATM   27  C   UNK A   0      43.639 -18.706   3.337  1.00  0.00    -0.005 A 
HETATM   28  C   UNK A   0      43.651 -18.196   4.653  1.00  0.00     0.093 A 
HETATM   29  C   UNK A   0      43.795 -20.087   3.156  1.00  0.00     0.015 A 
HETATM   30  N   UNK A   0      43.814 -19.011   5.723  1.00  0.00    -0.258 NA
HETATM   31  C   UNK A   0      43.959 -20.337   5.509  1.00  0.00     0.117 A 
HETATM   32  C   UNK A   0      43.954 -20.917   4.257  1.00  0.00     0.020 A 
ENDBRANCH   1  22
TORSDOF 6
ENDMDL
MODEL 3
REMARK VINA RESULT:      -9.1      0.680      2.481
REMARK  6 active torsions:
REMARK  status: ('A' for Active; 'I' for Inactive)
REMARK    1  A    between atoms: C_4  and  N_5 
REMARK       I    between atoms: N_5  and  C_6 
REMARK       I    between atoms: C_6  and  N_16 
REMARK    2  A    between atoms: N_16  and  CA_17 
REMARK    3  A    between atoms: CA_17  and  C_18 
REMARK    4  A    between atoms: CA_17  and  CB_20 
REMARK    5  A    between atoms: C_18  and  O_19 
REMARK    6  A    between atoms: CB_20  and  CG_21 
ROOT
HETATM    1  N   UNK A   0      39.299 -12.771   1.507  1.00  0.00    -0.307 N 
HETATM    2  C   UNK A   0      39.845 -13.405   2.574  1.00  0.00     0.321 C 
HETATM    3  O   UNK A   0      39.552 -13.044   3.712  1.00  0.00    -0.247 OA
HETATM    4  H   UNK A   0      38.620 -12.065   1.788  1.00  0.00     0.170 HD
ATOM      5  N   TRP A   1      40.705 -14.426   2.338  1.00  0.00    -0.336 N 
ATOM      6  H   TRP A   1      40.412 -15.047   1.600  1.00  0.00     0.164 HD
ENDROOT
BRANCH   5   7
ATOM      7  CA  TRP A   1      41.455 -15.070   3.425  1.00  0.00     0.114 C 
BRANCH   7   8
ATOM      8  C   TRP A   1      40.602 -16.170   4.080  1.00  0.00     0.189 C 
BRANCH   8   9
ATOM      9  O   TRP A   1      40.089 -15.726   5.338  1.00  0.00    -0.399 OA
ATOM     10  H   TRP A   1      40.584 -16.215   6.020  1.00  0.00     0.209 HD
ENDBRANCH   8   9
ENDBRANCH   7   8
BRANCH   7  11
ATOM     11  CB  TRP A   1      42.789 -15.640   2.893  1.00  0.00     0.068 C 
BRANCH  11  12
ATOM     12  CG  TRP A   1      43.339 -16.758   3.739  1.00  0.00    -0.028 A 
ATOM     13  CD2 TRP A   1      43.433 -18.145   3.378  1.00  0.00    -0.002 A 
ATOM     14  CE2 TRP A   1      43.989 -18.826   4.463  1.00  0.00     0.042 A 
ATOM     15  CE3 TRP A   1      43.091 -18.890   2.231  1.00  0.00     0.014 A 
ATOM     16  CZ2 TRP A   1      44.219 -20.206   4.460  1.00  0.00     0.030 A 
ATOM     17  NE1 TRP A   1      44.227 -17.895   5.445  1.00  0.00    -0.365 N 
ATOM     18  CH2 TRP A   1      43.871 -20.919   3.310  1.00  0.00     0.002 A 
ATOM     19  CZ3 TRP A   1      43.316 -20.272   2.209  1.00  0.00     0.001 A 
ATOM     20  HE1 TRP A   1      44.615 -18.107   6.354  1.00  0.00     0.165 HD
ATOM     21  CD1 TRP A   1      43.851 -16.652   5.019  1.00  0.00     0.096 A 
ENDBRANCH  11  12
ENDBRANCH   7  11
ENDBRANCH   5   7
BRANCH   1  22
HETATM   22  C   UNK A   0      39.548 -12.749   0.111  1.00  0.00     0.066 A 
HETATM   23  C   UNK A   0      39.113 -13.724  -0.796  1.00  0.00     0.038 A 
HETATM   24  C   UNK A   0      39.419 -13.629  -2.160  1.00  0.00    -0.059 A 
HETATM   25  C   UNK A   0      38.963 -14.683  -3.124  1.00  0.00     0.048 C 
HETATM   26  C   UNK A   0      40.200 -12.562  -2.606  1.00  0.00     0.020 A 
HETATM   27  C   UNK A   0      40.665 -11.592  -1.706  1.00  0.00    -0.005 A 
HETATM   28  C   UNK A   0      40.336 -11.672  -0.335  1.00  0.00     0.093 A 
HETATM   29  C   UNK A   0      41.472 -10.530  -2.137  1.00  0.00     0.015 A 
HETATM   30  N   UNK A   0      40.781 -10.748   0.551  1.00  0.00    -0.258 NA
HETATM   31  C   UNK A   0      41.560  -9.741   0.098  1.00  0.00     0.117 A 
HETATM   32  C   UNK A   0      41.931  -9.592  -1.223  1.00  0.00     0.020 A 
ENDBRANCH   1  22
TORSDOF 6
ENDMDL
MODEL 4
REMARK VINA RESULT:      -9.1      3.050      5.247
REMARK  6 active torsions:
REMARK  status: ('A' for Active; 'I' for Inactive)
REMARK    1  A    between atoms: C_4  and  N_5 
REMARK       I    between atoms: N_5  and  C_6 
REMARK       I    between atoms: C_6  and  N_16 
REMARK    2  A    between atoms: N_16  and  CA_17 
REMARK    3  A    between atoms: CA_17  and  C_18 
REMARK    4  A    between atoms: CA_17  and  CB_20 
REMARK    5  A    between atoms: C_18  and  O_19 
REMARK    6  A    between atoms: CB_20  and  CG_21 
ROOT
HETATM    1  N   UNK A   0      40.141 -14.318   5.537  1.00  0.00    -0.307 N 
HETATM    2  C   UNK A   0      40.469 -15.214   4.574  1.00  0.00     0.321 C 
HETATM    3  O   UNK A   0      40.325 -16.416   4.787  1.00  0.00    -0.247 OA
HETATM    4  H   UNK A   0      39.731 -14.768   6.354  1.00  0.00     0.170 HD
ATOM      5  N   TRP A   1      40.948 -14.740   3.398  1.00  0.00    -0.336 N 
ATOM      6  H   TRP A   1      40.459 -13.929   3.052  1.00  0.00     0.164 HD
ENDROOT
BRANCH   5   7
ATOM      7  CA  TRP A   1      41.466 -15.638   2.357  1.00  0.00     0.114 C 
BRANCH   7   8
ATOM      8  C   TRP A   1      41.033 -15.144   0.966  1.00  0.00     0.189 C 
BRANCH   8   9
ATOM      9  O   TRP A   1      39.654 -14.769   0.972  1.00  0.00    -0.399 OA
ATOM     10  H   TRP A   1      39.159 -15.550   0.668  1.00  0.00     0.209 HD
ENDBRANCH   8   9
ENDBRANCH   7   8
BRANCH   7  11
ATOM     11  CB  TRP A   1      43.003 -15.748   2.457  1.00  0.00     0.068 C 
BRANCH  11  12
ATOM     12  CG  TRP A   1      43.464 -16.778   3.456  1.00  0.00    -0.028 A 
ATOM     13  CD2 TRP A   1      43.535 -18.198   3.257  1.00  0.00    -0.002 A 
ATOM     14  CE2 TRP A   1      44.001 -18.767   4.445  1.00  0.00     0.042 A 
ATOM     15  CE3 TRP A   1      43.242 -19.058   2.179  1.00  0.00     0.014 A 
ATOM     16  CZ2 TRP A   1      44.186 -20.145   4.608  1.00  0.00     0.030 A 
ATOM     17  NE1 TRP A   1      44.207 -17.738   5.331  1.00  0.00    -0.365 N 
ATOM     18  CH2 TRP A   1      43.888 -20.972   3.523  1.00  0.00     0.002 A 
ATOM     19  CZ3 TRP A   1      43.423 -20.439   2.325  1.00  0.00     0.001 A 
ATOM     20  HE1 TRP A   1      44.531 -17.857   6.281  1.00  0.00     0.165 HD
ATOM     21  CD1 TRP A   1      43.899 -16.542   4.747  1.00  0.00     0.096 A 
ENDBRANCH  11  12
ENDBRANCH   7  11
ENDBRANCH   5   7
BRANCH   1  22
HETATM   22  C   UNK A   0      40.363 -12.932   5.742  1.00  0.00     0.066 A 
HETATM   23  C   UNK A   0      39.400 -11.931   5.563  1.00  0.00     0.038 A 
HETATM   24  C   UNK A   0      39.712 -10.582   5.775  1.00  0.00    -0.059 A 
HETATM   25  C   UNK A   0      38.680  -9.513   5.568  1.00  0.00     0.048 C 
HETATM   26  C   UNK A   0      41.016 -10.237   6.136  1.00  0.00     0.020 A 
HETATM   27  C   UNK A   0      41.997 -11.226   6.294  1.00  0.00    -0.005 A 
HETATM   28  C   UNK A   0      41.679 -12.588   6.106  1.00  0.00     0.093 A 
HETATM   29  C   UNK A   0      43.317 -10.890   6.629  1.00  0.00     0.015 A 
HETATM   30  N   UNK A   0      42.615 -13.557   6.247  1.00  0.00    -0.258 NA
HETATM   31  C   UNK A   0      43.876 -13.194   6.568  1.00  0.00     0.117 A 
HETATM   32  C   UNK A   0      44.273 -11.887   6.765  1.00  0.00     0.020 A 
ENDBRANCH   1  22
TORSDOF 6
ENDMDL
MODEL 5
REMARK VINA RESULT:      -8.9      3.097      7.657
REMARK  6 active torsions:
REMARK  status: ('A' for Active; 'I' for Inactive)
REMARK    1  A    between atoms: C_4  and  N_5 
REMARK       I    between atoms: N_5  and  C_6 
REMARK       I    between atoms: C_6  and  N_16 
REMARK    2  A    between atoms: N_16  and  CA_17 
REMARK    3  A    between atoms: CA_17  and  C_18 
REMARK    4  A    between atoms: CA_17  and  CB_20 
REMARK    5  A    between atoms: C_18  and  O_19 
REMARK    6  A    between atoms: CB_20  and  CG_21 
ROOT
HETATM    1  N   UNK A   0      43.650 -16.360   3.055  1.00  0.00    -0.307 N 
HETATM    2  C   UNK A   0      42.960 -15.479   2.290  1.00  0.00     0.321 C 
HETATM    3  O   UNK A   0      43.440 -15.088   1.228  1.00  0.00    -0.247 OA
HETATM    4  H   UNK A   0      44.514 -16.662   2.605  1.00  0.00     0.170 HD
ATOM      5  N   TRP A   1      41.750 -15.061   2.734  1.00  0.00    -0.336 N 
ATOM      6  H   TRP A   1      41.180 -15.794   3.128  1.00  0.00     0.164 HD
ENDROOT
BRANCH   5   7
ATOM      7  CA  TRP A   1      41.000 -13.999   2.048  1.00  0.00     0.114 C 
BRANCH   7   8
ATOM      8  C   TRP A   1      40.115 -14.603   0.944  1.00  0.00     0.189 C 
BRANCH   8   9
ATOM      9  O   TRP A   1      40.804 -14.603  -0.309  1.00  0.00    -0.399 OA
ATOM     10  H   TRP A   1      40.333 -13.969  -0.877  1.00  0.00     0.209 HD
ENDBRANCH   8   9
ENDBRANCH   7   8
BRANCH   7  11
ATOM     11  CB  TRP A   1      40.157 -13.195   3.062  1.00  0.00     0.068 C 
BRANCH  11  12
ATOM     12  CG  TRP A   1      40.797 -13.094   4.423  1.00  0.00    -0.028 A 
ATOM     13  CD2 TRP A   1      42.081 -12.531   4.731  1.00  0.00    -0.002 A 
ATOM     14  CE2 TRP A   1      42.279 -12.660   6.107  1.00  0.00     0.042 A 
ATOM     15  CE3 TRP A   1      43.100 -11.926   3.966  1.00  0.00     0.014 A 
ATOM     16  CZ2 TRP A   1      43.438 -12.218   6.755  1.00  0.00     0.030 A 
ATOM     17  NE1 TRP A   1      41.163 -13.275   6.620  1.00  0.00    -0.365 N 
ATOM     18  CH2 TRP A   1      44.430 -11.622   5.973  1.00  0.00     0.002 A 
ATOM     19  CZ3 TRP A   1      44.266 -11.476   4.599  1.00  0.00     0.001 A 
ATOM     20  HE1 TRP A   1      41.035 -13.511   7.594  1.00  0.00     0.165 HD
ATOM     21  CD1 TRP A   1      40.264 -13.531   5.622  1.00  0.00     0.096 A 
ENDBRANCH  11  12
ENDBRANCH   7  11
ENDBRANCH   5   7
BRANCH   1  22
HETATM   22  C   UNK A   0      43.538 -16.849   4.382  1.00  0.00     0.066 A 
HETATM   23  C   UNK A   0      43.388 -16.048   5.520  1.00  0.00     0.038 A 
HETATM   24  C   UNK A   0      43.300 -16.617   6.797  1.00  0.00    -0.059 A 
HETATM   25  C   UNK A   0      43.155 -15.754   8.015  1.00  0.00     0.048 C 
HETATM   26  C   UNK A   0      43.400 -18.003   6.929  1.00  0.00     0.020 A 
HETATM   27  C   UNK A   0      43.575 -18.817   5.800  1.00  0.00    -0.005 A 
HETATM   28  C   UNK A   0      43.638 -18.247   4.510  1.00  0.00     0.093 A 
HETATM   29  C   UNK A   0      43.704 -20.207   5.922  1.00  0.00     0.015 A 
HETATM   30  N   UNK A   0      43.815 -19.015   3.408  1.00  0.00    -0.258 NA
HETATM   31  C   UNK A   0      43.938 -20.352   3.566  1.00  0.00     0.117 A 
HETATM   32  C   UNK A   0      43.892 -20.988   4.790  1.00  0.00     0.020 A 
ENDBRANCH   1  22
TORSDOF 6
ENDMDL
MODEL 6
REMARK VINA RESULT:      -8.9      1.995      8.056
REMARK  6 active torsions:
REMARK  status: ('A' for Active; 'I' for Inactive)
REMARK    1  A    between atoms: C_4  and  N_5 
REMARK       I    between atoms: N_5  and  C_6 
REMARK       I    between atoms: C_6  and  N_16 
REMARK    2  A    between atoms: N_16  and  CA_17 
REMARK    3  A    between atoms: CA_17  and  C_18 
REMARK    4  A    between atoms: CA_17  and  CB_20 
REMARK    5  A    between atoms: C_18  and  O_19 
REMARK    6  A    between atoms: CB_20  and  CG_21 
ROOT
HETATM    1  N   UNK A   0      40.415 -15.391   3.695  1.00  0.00    -0.307 N 
HETATM    2  C   UNK A   0      40.193 -14.181   3.125  1.00  0.00     0.321 C 
HETATM    3  O   UNK A   0      39.039 -13.786   2.967  1.00  0.00    -0.247 OA
HETATM    4  H   UNK A   0      39.550 -15.834   4.002  1.00  0.00     0.170 HD
ATOM      5  N   TRP A   1      41.267 -13.447   2.747  1.00  0.00    -0.336 N 
ATOM      6  H   TRP A   1      42.023 -13.450   3.415  1.00  0.00     0.164 HD
ENDROOT
BRANCH   5   7
ATOM      7  CA  TRP A   1      41.120 -12.196   1.990  1.00  0.00     0.114 C 
BRANCH   7   8
ATOM      8  C   TRP A   1      42.219 -11.198   2.395  1.00  0.00     0.189 C 
BRANCH   8   9
ATOM      9  O   TRP A   1      42.293 -10.123   1.455  1.00  0.00    -0.399 OA
ATOM     10  H   TRP A   1      43.215 -10.098   1.144  1.00  0.00     0.209 HD
ENDBRANCH   8   9
ENDBRANCH   7   8
BRANCH   7  11
ATOM     11  CB  TRP A   1      41.155 -12.479   0.472  1.00  0.00     0.068 C 
BRANCH  11  12
ATOM     12  CG  TRP A   1      39.813 -12.324  -0.195  1.00  0.00    -0.028 A 
ATOM     13  CD2 TRP A   1      39.286 -13.122  -1.265  1.00  0.00    -0.002 A 
ATOM     14  CE2 TRP A   1      38.022 -12.620  -1.583  1.00  0.00     0.042 A 
ATOM     15  CE3 TRP A   1      39.768 -14.224  -2.002  1.00  0.00     0.014 A 
ATOM     16  CZ2 TRP A   1      37.220 -13.161  -2.594  1.00  0.00     0.030 A 
ATOM     17  NE1 TRP A   1      37.785 -11.561  -0.741  1.00  0.00    -0.365 N 
ATOM     18  CH2 TRP A   1      37.722 -14.252  -3.307  1.00  0.00     0.002 A 
ATOM     19  CZ3 TRP A   1      38.977 -14.779  -3.016  1.00  0.00     0.001 A 
ATOM     20  HE1 TRP A   1      36.949 -10.994  -0.755  1.00  0.00     0.165 HD
ATOM     21  CD1 TRP A   1      38.847 -11.380   0.101  1.00  0.00     0.096 A 
ENDBRANCH  11  12
ENDBRANCH   7  11
ENDBRANCH   5   7
BRANCH   1  22
HETATM   22  C   UNK A   0      41.536 -16.248   3.837  1.00  0.00     0.066 A 
HETATM   23  C   UNK A   0      41.999 -17.130   2.853  1.00  0.00     0.038 A 
HETATM   24  C   UNK A   0      43.108 -17.954   3.085  1.00  0.00    -0.059 A 
HETATM   25  C   UNK A   0      43.591 -18.908   2.033  1.00  0.00     0.048 C 
HETATM   26  C   UNK A   0      43.732 -17.913   4.333  1.00  0.00     0.020 A 
HETATM   27  C   UNK A   0      43.264 -17.054   5.337  1.00  0.00    -0.005 A 
HETATM   28  C   UNK A   0      42.163 -16.204   5.097  1.00  0.00     0.093 A 
HETATM   29  C   UNK A   0      43.865 -17.023   6.604  1.00  0.00     0.015 A 
HETATM   30  N   UNK A   0      41.691 -15.372   6.057  1.00  0.00    -0.258 NA
HETATM   31  C   UNK A   0      42.295 -15.373   7.265  1.00  0.00     0.117 A 
HETATM   32  C   UNK A   0      43.373 -16.173   7.584  1.00  0.00     0.020 A 
ENDBRANCH   1  22
TORSDOF 6
ENDMDL
MODEL 7
REMARK VINA RESULT:      -8.8      2.848      5.360
REMARK  6 active torsions:
REMARK  status: ('A' for Active; 'I' for Inactive)
REMARK    1  A    between atoms: C_4  and  N_5 
REMARK       I    between atoms: N_5  and  C_6 
REMARK       I    between atoms: C_6  and  N_16 
REMARK    2  A    between atoms: N_16  and  CA_17 
REMARK    3  A    between atoms: CA_17  and  C_18 
REMARK    4  A    between atoms: CA_17  and  CB_20 
REMARK    5  A    between atoms: C_18  and  O_19 
REMARK    6  A    between atoms: CB_20  and  CG_21 
ROOT
HETATM    1  N   UNK A   0      43.732 -13.090   2.625  1.00  0.00    -0.307 N 
HETATM    2  C   UNK A   0      43.560 -11.998   3.410  1.00  0.00     0.321 C 
HETATM    3  O   UNK A   0      44.505 -11.237   3.610  1.00  0.00    -0.247 OA
HETATM    4  H   UNK A   0      44.666 -13.123   2.217  1.00  0.00     0.170 HD
ATOM      5  N   TRP A   1      42.335 -11.787   3.949  1.00  0.00    -0.336 N 
ATOM      6  H   TRP A   1      41.571 -11.957   3.313  1.00  0.00     0.164 HD
ENDROOT
BRANCH   5   7
ATOM      7  CA  TRP A   1      42.095 -10.716   4.927  1.00  0.00     0.114 C 
BRANCH   7   8
ATOM      8  C   TRP A   1      41.056  -9.722   4.382  1.00  0.00     0.189 C 
BRANCH   8   9
ATOM      9  O   TRP A   1      41.697  -8.676   3.648  1.00  0.00    -0.399 OA
ATOM     10  H   TRP A   1      41.702  -7.898   4.233  1.00  0.00     0.209 HD
ENDBRANCH   8   9
ENDBRANCH   7   8
BRANCH   7  11
ATOM     11  CB  TRP A   1      41.642 -11.314   6.277  1.00  0.00     0.068 C 
BRANCH  11  12
ATOM     12  CG  TRP A   1      41.180 -12.744   6.172  1.00  0.00    -0.028 A 
ATOM     13  CD2 TRP A   1      41.993 -13.922   6.280  1.00  0.00    -0.002 A 
ATOM     14  CE2 TRP A   1      41.158 -15.028   6.105  1.00  0.00     0.042 A 
ATOM     15  CE3 TRP A   1      43.366 -14.154   6.504  1.00  0.00     0.014 A 
ATOM     16  CZ2 TRP A   1      41.623 -16.347   6.142  1.00  0.00     0.030 A 
ATOM     17  NE1 TRP A   1      39.888 -14.547   5.900  1.00  0.00    -0.365 N 
ATOM     18  CH2 TRP A   1      42.987 -16.547   6.367  1.00  0.00     0.002 A 
ATOM     19  CZ3 TRP A   1      43.848 -15.469   6.547  1.00  0.00     0.001 A 
ATOM     20  HE1 TRP A   1      39.077 -15.124   5.729  1.00  0.00     0.165 HD
ATOM     21  CD1 TRP A   1      39.887 -13.181   5.948  1.00  0.00     0.096 A 
ENDBRANCH  11  12
ENDBRANCH   7  11
ENDBRANCH   5   7
BRANCH   1  22
HETATM   22  C   UNK A   0      42.985 -14.264   2.352  1.00  0.00     0.066 A 
HETATM   23  C   UNK A   0      43.311 -15.546   2.811  1.00  0.00     0.038 A 
HETATM   24  C   UNK A   0      42.522 -16.654   2.478  1.00  0.00    -0.059 A 
HETATM   25  C   UNK A   0      42.884 -18.028   2.961  1.00  0.00     0.048 C 
HETATM   26  C   UNK A   0      41.415 -16.473   1.647  1.00  0.00     0.020 A 
HETATM   27  C   UNK A   0      41.090 -15.199   1.160  1.00  0.00    -0.005 A 
HETATM   28  C   UNK A   0      41.869 -14.076   1.514  1.00  0.00     0.093 A 
HETATM   29  C   UNK A   0      39.997 -15.008   0.303  1.00  0.00     0.015 A 
HETATM   30  N   UNK A   0      41.576 -12.839   1.047  1.00  0.00    -0.258 NA
HETATM   31  C   UNK A   0      40.517 -12.695   0.221  1.00  0.00     0.117 A 
HETATM   32  C   UNK A   0      39.706 -13.739  -0.178  1.00  0.00     0.020 A 
ENDBRANCH   1  22
TORSDOF 6
ENDMDL
MODEL 8
REMARK VINA RESULT:      -8.7      2.887      6.419
REMARK  6 active torsions:
REMARK  status: ('A' for Active; 'I' for Inactive)
REMARK    1  A    between atoms: C_4  and  N_5 
REMARK       I    between atoms: N_5  and  C_6 
REMARK       I    between atoms: C_6  and  N_16 
REMARK    2  A    between atoms: N_16  and  CA_17 
REMARK    3  A    between atoms: CA_17  and  C_18 
REMARK    4  A    between atoms: CA_17  and  CB_20 
REMARK    5  A    between atoms: C_18  and  O_19 
REMARK    6  A    between atoms: CB_20  and  CG_21 
ROOT
HETATM    1  N   UNK A   0      40.558 -11.643   5.030  1.00  0.00    -0.307 N 
HETATM    2  C   UNK A   0      40.138 -11.277   3.794  1.00  0.00     0.321 C 
HETATM    3  O   UNK A   0      38.943 -11.072   3.593  1.00  0.00    -0.247 OA
HETATM    4  H   UNK A   0      39.796 -11.648   5.707  1.00  0.00     0.170 HD
ATOM      5  N   TRP A   1      41.068 -11.149   2.816  1.00  0.00    -0.336 N 
ATOM      6  H   TRP A   1      41.915 -10.690   3.112  1.00  0.00     0.164 HD
ENDROOT
BRANCH   5   7
ATOM      7  CA  TRP A   1      40.689 -10.902   1.418  1.00  0.00     0.114 C 
BRANCH   7   8
ATOM      8  C   TRP A   1      41.071  -9.468   1.010  1.00  0.00     0.189 C 
BRANCH   8   9
ATOM      9  O   TRP A   1      42.290  -9.466   0.264  1.00  0.00    -0.399 OA
ATOM     10  H   TRP A   1      42.925  -9.994   0.780  1.00  0.00     0.209 HD
ENDBRANCH   8   9
ENDBRANCH   7   8
BRANCH   7  11
ATOM     11  CB  TRP A   1      41.353 -11.943   0.489  1.00  0.00     0.068 C 
BRANCH  11  12
ATOM     12  CG  TRP A   1      40.950 -13.361   0.799  1.00  0.00    -0.028 A 
ATOM     13  CD2 TRP A   1      41.642 -14.286   1.652  1.00  0.00    -0.002 A 
ATOM     14  CE2 TRP A   1      40.929 -15.486   1.640  1.00  0.00     0.042 A 
ATOM     15  CE3 TRP A   1      42.815 -14.218   2.433  1.00  0.00     0.014 A 
ATOM     16  CZ2 TRP A   1      41.326 -16.616   2.363  1.00  0.00     0.030 A 
ATOM     17  NE1 TRP A   1      39.846 -15.303   0.815  1.00  0.00    -0.365 N 
ATOM     18  CH2 TRP A   1      42.491 -16.520   3.128  1.00  0.00     0.002 A 
ATOM     19  CZ3 TRP A   1      43.226 -15.339   3.165  1.00  0.00     0.001 A 
ATOM     20  HE1 TRP A   1      39.159 -16.014   0.605  1.00  0.00     0.165 HD
ATOM     21  CD1 TRP A   1      39.843 -14.032   0.314  1.00  0.00     0.096 A 
ENDBRANCH  11  12
ENDBRANCH   7  11
ENDBRANCH   5   7
BRANCH   1  22
HETATM   22  C   UNK A   0      41.762 -12.159   5.574  1.00  0.00     0.066 A 
HETATM   23  C   UNK A   0      42.973 -11.460   5.647  1.00  0.00     0.038 A 
HETATM   24  C   UNK A   0      44.119 -12.056   6.189  1.00  0.00    -0.059 A 
HETATM   25  C   UNK A   0      45.417 -11.307   6.252  1.00  0.00     0.048 C 
HETATM   26  C   UNK A   0      44.052 -13.379   6.627  1.00  0.00     0.020 A 
HETATM   27  C   UNK A   0      42.853 -14.101   6.537  1.00  0.00    -0.005 A 
HETATM   28  C   UNK A   0      41.690 -13.494   6.015  1.00  0.00     0.093 A 
HETATM   29  C   UNK A   0      42.779 -15.439   6.948  1.00  0.00     0.015 A 
HETATM   30  N   UNK A   0      40.524 -14.177   5.912  1.00  0.00    -0.258 NA
HETATM   31  C   UNK A   0      40.493 -15.466   6.316  1.00  0.00     0.117 A 
HETATM   32  C   UNK A   0      41.584 -16.135   6.834  1.00  0.00     0.020 A 
ENDBRANCH   1  22
TORSDOF 6
ENDMDL
MODEL 9
REMARK VINA RESULT:      -8.6      1.905      3.219
REMARK  6 active torsions:
REMARK  status: ('A' for Active; 'I' for Inactive)
REMARK    1  A    between atoms: C_4  and  N_5 
REMARK       I    between atoms: N_5  and  C_6 
REMARK       I    between atoms: C_6  and  N_16 
REMARK    2  A    between atoms: N_16  and  CA_17 
REMARK    3  A    between atoms: CA_17  and  C_18 
REMARK    4  A    between atoms: CA_17  and  CB_20 
REMARK    5  A    between atoms: C_18  and  O_19 
REMARK    6  A    between atoms: CB_20  and  CG_21 
ROOT
HETATM    1  N   UNK A   0      41.669 -13.366   0.914  1.00  0.00    -0.307 N 
HETATM    2  C   UNK A   0      41.853 -13.580   2.240  1.00  0.00     0.321 C 
HETATM    3  O   UNK A   0      42.985 -13.789   2.672  1.00  0.00    -0.247 OA
HETATM    4  H   UNK A   0      42.552 -13.342   0.405  1.00  0.00     0.170 HD
ATOM      5  N   TRP A   1      40.765 -13.552   3.047  1.00  0.00    -0.336 N 
ATOM      6  H   TRP A   1      40.117 -12.808   2.840  1.00  0.00     0.164 HD
ENDROOT
BRANCH   5   7
ATOM      7  CA  TRP A   1      40.848 -13.918   4.468  1.00  0.00     0.114 C 
BRANCH   7   8
ATOM      8  C   TRP A   1      39.930 -13.009   5.305  1.00  0.00     0.189 C 
BRANCH   8   9
ATOM      9  O   TRP A   1      40.026 -13.339   6.693  1.00  0.00    -0.399 OA
ATOM     10  H   TRP A   1      40.868 -12.961   7.003  1.00  0.00     0.209 HD
ENDBRANCH   8   9
ENDBRANCH   7   8
BRANCH   7  11
ATOM     11  CB  TRP A   1      40.487 -15.407   4.663  1.00  0.00     0.068 C 
BRANCH  11  12
ATOM     12  CG  TRP A   1      41.672 -16.265   5.025  1.00  0.00    -0.028 A 
ATOM     13  CD2 TRP A   1      42.437 -17.095   4.138  1.00  0.00    -0.002 A 
ATOM     14  CE2 TRP A   1      43.428 -17.721   4.896  1.00  0.00     0.042 A 
ATOM     15  CE3 TRP A   1      42.377 -17.379   2.758  1.00  0.00     0.014 A 
ATOM     16  CZ2 TRP A   1      44.357 -18.613   4.349  1.00  0.00     0.030 A 
ATOM     17  NE1 TRP A   1      43.276 -17.292   6.192  1.00  0.00    -0.365 N 
ATOM     18  CH2 TRP A   1      44.275 -18.875   2.980  1.00  0.00     0.002 A 
ATOM     19  CZ3 TRP A   1      43.301 -18.268   2.193  1.00  0.00     0.001 A 
ATOM     20  HE1 TRP A   1      43.850 -17.594   6.967  1.00  0.00     0.165 HD
ATOM     21  CD1 TRP A   1      42.234 -16.412   6.279  1.00  0.00     0.096 A 
ENDBRANCH  11  12
ENDBRANCH   7  11
ENDBRANCH   5   7
BRANCH   1  22
HETATM   22  C   UNK A   0      40.548 -13.315   0.047  1.00  0.00     0.066 A 
HETATM   23  C   UNK A   0      40.176 -14.330  -0.843  1.00  0.00     0.038 A 
HETATM   24  C   UNK A   0      39.060 -14.187  -1.677  1.00  0.00    -0.059 A 
HETATM   25  C   UNK A   0      38.674 -15.273  -2.638  1.00  0.00     0.048 C 
HETATM   26  C   UNK A   0      38.333 -12.996  -1.637  1.00  0.00     0.020 A 
HETATM   27  C   UNK A   0      38.708 -11.960  -0.769  1.00  0.00    -0.005 A 
HETATM   28  C   UNK A   0      39.818 -12.112   0.090  1.00  0.00     0.093 A 
HETATM   29  C   UNK A   0      38.004 -10.749  -0.739  1.00  0.00     0.015 A 
HETATM   30  N   UNK A   0      40.201 -11.120   0.930  1.00  0.00    -0.258 NA
HETATM   31  C   UNK A   0      39.499  -9.966   0.928  1.00  0.00     0.117 A 
HETATM   32  C   UNK A   0      38.405  -9.734   0.118  1.00  0.00     0.020 A 
ENDBRANCH   1  22
TORSDOF 6
ENDMDL
MODEL 10
REMARK VINA RESULT:      -8.5      3.446      7.797
REMARK  6 active torsions:
REMARK  status: ('A' for Active; 'I' for Inactive)
REMARK    1  A    between atoms: C_4  and  N_5 
REMARK       I    between atoms: N_5  and  C_6 
REMARK       I    between atoms: C_6  and  N_16 
REMARK    2  A    between atoms: N_16  and  CA_17 
REMARK    3  A    between atoms: CA_17  and  C_18 
REMARK    4  A    between atoms: CA_17  and  CB_20 
REMARK    5  A    between atoms: C_18  and  O_19 
REMARK    6  A    between atoms: CB_20  and  CG_21 
ROOT
HETATM    1  N   UNK A   0      43.577 -15.530   2.463  1.00  0.00    -0.307 N 
HETATM    2  C   UNK A   0      42.773 -14.459   2.667  1.00  0.00     0.321 C 
HETATM    3  O   UNK A   0      43.149 -13.340   2.324  1.00  0.00    -0.247 OA
HETATM    4  H   UNK A   0      44.429 -15.278   1.963  1.00  0.00     0.170 HD
ATOM      5  N   TRP A   1      41.567 -14.668   3.249  1.00  0.00    -0.336 N 
ATOM      6  H   TRP A   1      41.082 -15.484   2.908  1.00  0.00     0.164 HD
ENDROOT
BRANCH   5   7
ATOM      7  CA  TRP A   1      40.694 -13.553   3.642  1.00  0.00     0.114 C 
BRANCH   7   8
ATOM      8  C   TRP A   1      39.377 -13.603   2.848  1.00  0.00     0.189 C 
BRANCH   8   9
ATOM      9  O   TRP A   1      39.050 -14.951   2.502  1.00  0.00    -0.399 OA
ATOM     10  H   TRP A   1      39.629 -15.188   1.757  1.00  0.00     0.209 HD
ENDBRANCH   8   9
ENDBRANCH   7   8
BRANCH   7  11
ATOM     11  CB  TRP A   1      40.430 -13.587   5.164  1.00  0.00     0.068 C 
BRANCH  11  12
ATOM     12  CG  TRP A   1      40.904 -12.349   5.879  1.00  0.00    -0.028 A 
ATOM     13  CD2 TRP A   1      42.262 -11.994   6.181  1.00  0.00    -0.002 A 
ATOM     14  CE2 TRP A   1      42.239 -10.777   6.864  1.00  0.00     0.042 A 
ATOM     15  CE3 TRP A   1      43.514 -12.599   5.942  1.00  0.00     0.014 A 
ATOM     16  CZ2 TRP A   1      43.396 -10.135   7.319  1.00  0.00     0.030 A 
ATOM     17  NE1 TRP A   1      40.922 -10.401   6.975  1.00  0.00    -0.365 N 
ATOM     18  CH2 TRP A   1      44.622 -10.756   7.068  1.00  0.00     0.002 A 
ATOM     19  CZ3 TRP A   1      44.683 -11.970   6.389  1.00  0.00     0.001 A 
ATOM     20  HE1 TRP A   1      40.602  -9.563   7.439  1.00  0.00     0.165 HD
ATOM     21  CD1 TRP A   1      40.114 -11.330   6.380  1.00  0.00     0.096 A 
ENDBRANCH  11  12
ENDBRANCH   7  11
ENDBRANCH   5   7
BRANCH   1  22
HETATM   22  C   UNK A   0      43.592 -16.879   2.901  1.00  0.00     0.066 A 
HETATM   23  C   UNK A   0      43.539 -17.996   2.059  1.00  0.00     0.038 A 
HETATM   24  C   UNK A   0      43.542 -19.295   2.581  1.00  0.00    -0.059 A 
HETATM   25  C   UNK A   0      43.471 -20.488   1.674  1.00  0.00     0.048 C 
HETATM   26  C   UNK A   0      43.563 -19.469   3.966  1.00  0.00     0.020 A 
HETATM   27  C   UNK A   0      43.590 -18.360   4.824  1.00  0.00    -0.005 A 
HETATM   28  C   UNK A   0      43.613 -17.049   4.299  1.00  0.00     0.093 A 
HETATM   29  C   UNK A   0      43.583 -18.519   6.216  1.00  0.00     0.015 A 
HETATM   30  N   UNK A   0      43.631 -15.965   5.111  1.00  0.00    -0.258 NA
HETATM   31  C   UNK A   0      43.621 -16.159   6.448  1.00  0.00     0.117 A 
HETATM   32  C   UNK A   0      43.596 -17.405   7.043  1.00  0.00     0.020 A 
ENDBRANCH   1  22
TORSDOF 6
ENDMDL
