MODEL 1
REMARK VINA RESULT:      -9.4      0.000      0.000
REMARK  2 active torsions:
REMARK  status: ('A' for Active; 'I' for Inactive)
REMARK    1  A    between atoms: C_7  and  C_8 
REMARK       I    between atoms: C_8  and  N_9 
REMARK    2  A    between atoms: N_9  and  C_10 
ROOT
HETATM    1  C   UNL     1      41.732 -14.554   1.406  1.00  0.00     0.256 C 
HETATM    2  N   UNL     1      40.628 -15.037   0.722  1.00  0.00    -0.323 N 
HETATM    3  O   UNL     1      42.215 -13.433   1.299  1.00  0.00    -0.267 OA
HETATM    4  H   UNL     1      40.308 -15.965   0.958  1.00  0.00     0.169 HD
ENDROOT
BRANCH   1   5
HETATM    5  C   UNL     1      42.349 -15.499   2.387  1.00  0.00     0.033 A 
HETATM    6  C   UNL     1      42.680 -14.999   3.653  1.00  0.00     0.019 A 
HETATM    7  C   UNL     1      43.244 -15.819   4.634  1.00  0.00     0.031 A 
HETATM    8  C   UNL     1      43.466 -17.159   4.304  1.00  0.00     0.043 A 
HETATM    9  C   UNL     1      43.166 -17.695   3.054  1.00  0.00    -0.001 A 
HETATM   10  N   UNL     1      43.998 -18.175   5.063  1.00  0.00    -0.359 N 
HETATM   11  C   UNL     1      43.527 -19.081   3.083  1.00  0.00    -0.027 A 
HETATM   12  C   UNL     1      42.610 -16.844   2.072  1.00  0.00     0.031 A 
HETATM   13  C   UNL     1      43.386 -20.064   1.974  1.00  0.00     0.051 C 
HETATM   14  C   UNL     1      44.041 -19.342   4.344  1.00  0.00     0.012 A 
HETATM   15  C   UNL     1      44.573 -20.599   4.933  1.00  0.00     0.068 C 
HETATM   16  H   UNL     1      44.313 -18.067   6.017  1.00  0.00     0.166 HD
ENDBRANCH   1   5
BRANCH   2  17
HETATM   17  C   UNL     1      39.838 -14.345  -0.224  1.00  0.00     0.037 A 
HETATM   18  C   UNL     1      39.383 -13.033  -0.043  1.00  0.00     0.061 A 
HETATM   19  C   UNL     1      38.599 -12.497  -1.039  1.00  0.00     0.065 A 
HETATM   20  C   UNL     1      38.268 -13.201  -2.194  1.00  0.00     0.063 A 
HETATM   21  N   UNL     1      38.000 -11.243  -1.119  1.00  0.00    -0.306 N 
HETATM   22  N   UNL     1      37.470 -12.383  -2.983  1.00  0.00    -0.307 N 
HETATM   23  C   UNL     1      38.702 -14.484  -2.410  1.00  0.00     0.034 A 
HETATM   24  C   UNL     1      37.290 -11.158  -2.324  1.00  0.00     0.325 A 
HETATM   25  H   UNL     1      37.062 -12.600  -3.877  1.00  0.00     0.170 HD
HETATM   26  O   UNL     1      36.639 -10.208  -2.723  1.00  0.00    -0.247 OA
HETATM   27  C   UNL     1      39.494 -15.057  -1.406  1.00  0.00     0.032 A 
HETATM   28  H   UNL     1      38.046 -10.505  -0.435  1.00  0.00     0.170 HD
ENDBRANCH   2  17
TORSDOF 2
ENDMDL
MODEL 2
REMARK VINA RESULT:      -9.0      5.482      8.095
REMARK  2 active torsions:
REMARK  status: ('A' for Active; 'I' for Inactive)
REMARK    1  A    between atoms: C_7  and  C_8 
REMARK       I    between atoms: C_8  and  N_9 
REMARK    2  A    between atoms: N_9  and  C_10 
ROOT
HETATM    1  C   UNL     1      43.289 -13.920   6.068  1.00  0.00     0.256 C 
HETATM    2  N   UNL     1      43.961 -12.758   5.726  1.00  0.00    -0.323 N 
HETATM    3  O   UNL     1      42.764 -14.160   7.149  1.00  0.00    -0.267 OA
HETATM    4  H   UNL     1      44.291 -12.678   4.775  1.00  0.00     0.169 HD
ENDROOT
BRANCH   1   5
HETATM    5  C   UNL     1      43.177 -14.945   4.984  1.00  0.00     0.033 A 
HETATM    6  C   UNL     1      42.670 -14.530   3.747  1.00  0.00     0.019 A 
HETATM    7  C   UNL     1      42.548 -15.419   2.676  1.00  0.00     0.031 A 
HETATM    8  C   UNL     1      42.951 -16.742   2.886  1.00  0.00     0.043 A 
HETATM    9  C   UNL     1      43.448 -17.200   4.104  1.00  0.00    -0.001 A 
HETATM   10  N   UNL     1      42.945 -17.812   2.023  1.00  0.00    -0.359 N 
HETATM   11  C   UNL     1      43.752 -18.591   3.948  1.00  0.00    -0.027 A 
HETATM   12  C   UNL     1      43.548 -16.287   5.178  1.00  0.00     0.031 A 
HETATM   13  C   UNL     1      44.309 -19.505   4.982  1.00  0.00     0.051 C 
HETATM   14  C   UNL     1      43.425 -18.935   2.645  1.00  0.00     0.012 A 
HETATM   15  C   UNL     1      43.526 -20.236   1.932  1.00  0.00     0.068 C 
HETATM   16  H   UNL     1      42.626 -17.767   1.066  1.00  0.00     0.166 HD
ENDBRANCH   1   5
BRANCH   2  17
HETATM   17  C   UNL     1      44.174 -11.621   6.539  1.00  0.00     0.037 A 
HETATM   18  C   UNL     1      43.176 -10.687   6.842  1.00  0.00     0.061 A 
HETATM   19  C   UNL     1      43.536  -9.615   7.627  1.00  0.00     0.065 A 
HETATM   20  C   UNL     1      44.826  -9.449   8.122  1.00  0.00     0.063 A 
HETATM   21  N   UNL     1      42.770  -8.538   8.064  1.00  0.00    -0.306 N 
HETATM   22  N   UNL     1      44.855  -8.275   8.864  1.00  0.00    -0.307 N 
HETATM   23  C   UNL     1      45.828 -10.347   7.855  1.00  0.00     0.034 A 
HETATM   24  C   UNL     1      43.579  -7.692   8.834  1.00  0.00     0.325 A 
HETATM   25  H   UNL     1      45.640  -7.872   9.347  1.00  0.00     0.170 HD
HETATM   26  O   UNL     1      43.244  -6.651   9.372  1.00  0.00    -0.247 OA
HETATM   27  C   UNL     1      45.489 -11.443   7.049  1.00  0.00     0.032 A 
HETATM   28  H   UNL     1      41.798  -8.367   7.866  1.00  0.00     0.170 HD
ENDBRANCH   2  17
TORSDOF 2
ENDMDL
MODEL 3
REMARK VINA RESULT:      -8.8      2.552      9.158
REMARK  2 active torsions:
REMARK  status: ('A' for Active; 'I' for Inactive)
REMARK    1  A    between atoms: C_7  and  C_8 
REMARK       I    between atoms: C_8  and  N_9 
REMARK    2  A    between atoms: N_9  and  C_10 
ROOT
HETATM    1  C   UNL     1      40.643 -14.968   0.980  1.00  0.00     0.256 C 
HETATM    2  N   UNL     1      41.978 -15.309   1.122  1.00  0.00    -0.323 N 
HETATM    3  O   UNL     1      39.731 -15.282   1.737  1.00  0.00    -0.267 OA
HETATM    4  H   UNL     1      42.627 -14.926   0.449  1.00  0.00     0.169 HD
ENDROOT
BRANCH   1   5
HETATM    5  C   UNL     1      40.318 -14.103  -0.197  1.00  0.00     0.033 A 
HETATM    6  C   UNL     1      39.429 -14.611  -1.152  1.00  0.00     0.019 A 
HETATM    7  C   UNL     1      39.060 -13.862  -2.273  1.00  0.00     0.031 A 
HETATM    8  C   UNL     1      39.613 -12.584  -2.405  1.00  0.00     0.043 A 
HETATM    9  C   UNL     1      40.511 -12.045  -1.487  1.00  0.00    -0.001 A 
HETATM   10  N   UNL     1      39.428 -11.643  -3.390  1.00  0.00    -0.359 N 
HETATM   11  C   UNL     1      40.860 -10.734  -1.946  1.00  0.00    -0.027 A 
HETATM   12  C   UNL     1      40.882 -12.827  -0.369  1.00  0.00     0.031 A 
HETATM   13  C   UNL     1      41.790  -9.776  -1.288  1.00  0.00     0.051 C 
HETATM   14  C   UNL     1      40.171 -10.520  -3.129  1.00  0.00     0.012 A 
HETATM   15  C   UNL     1      40.151  -9.346  -4.041  1.00  0.00     0.068 C 
HETATM   16  H   UNL     1      38.827 -11.770  -4.192  1.00  0.00     0.166 HD
ENDBRANCH   1   5
BRANCH   2  17
HETATM   17  C   UNL     1      42.559 -16.075   2.158  1.00  0.00     0.037 A 
HETATM   18  C   UNL     1      42.877 -17.432   2.033  1.00  0.00     0.061 A 
HETATM   19  C   UNL     1      43.416 -18.056   3.136  1.00  0.00     0.065 A 
HETATM   20  C   UNL     1      43.657 -17.386   4.333  1.00  0.00     0.063 A 
HETATM   21  N   UNL     1      43.804 -19.382   3.305  1.00  0.00    -0.306 N 
HETATM   22  N   UNL     1      44.194 -18.295   5.235  1.00  0.00    -0.307 N 
HETATM   23  C   UNL     1      43.367 -16.055   4.490  1.00  0.00     0.034 A 
HETATM   24  C   UNL     1      44.289 -19.547   4.609  1.00  0.00     0.325 A 
HETATM   25  H   UNL     1      44.471 -18.126   6.187  1.00  0.00     0.170 HD
HETATM   26  O   UNL     1      44.708 -20.577   5.108  1.00  0.00    -0.247 OA
HETATM   27  C   UNL     1      42.808 -15.399   3.385  1.00  0.00     0.032 A 
HETATM   28  H   UNL     1      43.748 -20.121   2.623  1.00  0.00     0.170 HD
ENDBRANCH   2  17
TORSDOF 2
ENDMDL
MODEL 4
REMARK VINA RESULT:      -8.7      5.000      8.699
REMARK  2 active torsions:
REMARK  status: ('A' for Active; 'I' for Inactive)
REMARK    1  A    between atoms: C_7  and  C_8 
REMARK       I    between atoms: C_8  and  N_9 
REMARK    2  A    between atoms: N_9  and  C_10 
ROOT
HETATM    1  C   UNL     1      41.914 -13.920   5.039  1.00  0.00     0.256 C 
HETATM    2  N   UNL     1      43.063 -14.600   4.673  1.00  0.00    -0.323 N 
HETATM    3  O   UNL     1      40.762 -14.297   4.859  1.00  0.00    -0.267 OA
HETATM    4  H   UNL     1      43.948 -14.190   4.941  1.00  0.00     0.169 HD
ENDROOT
BRANCH   1   5
HETATM    5  C   UNL     1      42.129 -12.623   5.753  1.00  0.00     0.033 A 
HETATM    6  C   UNL     1      41.027 -11.772   5.903  1.00  0.00     0.019 A 
HETATM    7  C   UNL     1      41.138 -10.550   6.572  1.00  0.00     0.031 A 
HETATM    8  C   UNL     1      42.393 -10.208   7.086  1.00  0.00     0.043 A 
HETATM    9  C   UNL     1      43.518 -11.017   6.948  1.00  0.00    -0.001 A 
HETATM   10  N   UNL     1      42.783  -9.086   7.779  1.00  0.00    -0.359 N 
HETATM   11  C   UNL     1      44.609 -10.349   7.592  1.00  0.00    -0.027 A 
HETATM   12  C   UNL     1      43.386 -12.241   6.254  1.00  0.00     0.031 A 
HETATM   13  C   UNL     1      46.012 -10.833   7.703  1.00  0.00     0.051 C 
HETATM   14  C   UNL     1      44.116  -9.154   8.094  1.00  0.00     0.012 A 
HETATM   15  C   UNL     1      44.794  -8.066   8.846  1.00  0.00     0.068 C 
HETATM   16  H   UNL     1      42.167  -8.322   8.017  1.00  0.00     0.166 HD
ENDBRANCH   1   5
BRANCH   2  17
HETATM   17  C   UNL     1      43.147 -15.855   4.029  1.00  0.00     0.037 A 
HETATM   18  C   UNL     1      43.516 -17.038   4.681  1.00  0.00     0.061 A 
HETATM   19  C   UNL     1      43.579 -18.183   3.919  1.00  0.00     0.065 A 
HETATM   20  C   UNL     1      43.280 -18.195   2.559  1.00  0.00     0.063 A 
HETATM   21  N   UNL     1      43.931 -19.477   4.290  1.00  0.00    -0.306 N 
HETATM   22  N   UNL     1      43.444 -19.493   2.094  1.00  0.00    -0.307 N 
HETATM   23  C   UNL     1      42.905 -17.059   1.888  1.00  0.00     0.034 A 
HETATM   24  C   UNL     1      43.855 -20.305   3.161  1.00  0.00     0.325 A 
HETATM   25  H   UNL     1      43.312 -19.831   1.156  1.00  0.00     0.170 HD
HETATM   26  O   UNL     1      44.100 -21.498   3.113  1.00  0.00    -0.247 OA
HETATM   27  C   UNL     1      42.844 -15.878   2.640  1.00  0.00     0.032 A 
HETATM   28  H   UNL     1      44.207 -19.791   5.205  1.00  0.00     0.170 HD
ENDBRANCH   2  17
TORSDOF 2
ENDMDL
MODEL 5
REMARK VINA RESULT:      -8.2      1.803      2.470
REMARK  2 active torsions:
REMARK  status: ('A' for Active; 'I' for Inactive)
REMARK    1  A    between atoms: C_7  and  C_8 
REMARK       I    between atoms: C_8  and  N_9 
REMARK    2  A    between atoms: N_9  and  C_10 
ROOT
HETATM    1  C   UNL     1      40.376 -15.380   1.058  1.00  0.00     0.256 C 
HETATM    2  N   UNL     1      40.582 -14.097   0.579  1.00  0.00    -0.323 N 
HETATM    3  O   UNL     1      39.502 -16.157   0.693  1.00  0.00    -0.267 OA
HETATM    4  H   UNL     1      41.383 -13.594   0.934  1.00  0.00     0.169 HD
ENDROOT
BRANCH   1   5
HETATM    5  C   UNL     1      41.351 -15.848   2.092  1.00  0.00     0.033 A 
HETATM    6  C   UNL     1      42.576 -16.362   1.645  1.00  0.00     0.019 A 
HETATM    7  C   UNL     1      43.549 -16.806   2.545  1.00  0.00     0.031 A 
HETATM    8  C   UNL     1      43.255 -16.717   3.909  1.00  0.00     0.043 A 
HETATM    9  C   UNL     1      42.046 -16.227   4.396  1.00  0.00    -0.001 A 
HETATM   10  N   UNL     1      44.016 -17.072   4.998  1.00  0.00    -0.359 N 
HETATM   11  C   UNL     1      42.102 -16.288   5.826  1.00  0.00    -0.027 A 
HETATM   12  C   UNL     1      41.070 -15.798   3.468  1.00  0.00     0.031 A 
HETATM   13  C   UNL     1      41.040 -15.868   6.780  1.00  0.00     0.051 C 
HETATM   14  C   UNL     1      43.338 -16.819   6.162  1.00  0.00     0.012 A 
HETATM   15  C   UNL     1      43.937 -17.112   7.491  1.00  0.00     0.068 C 
HETATM   16  H   UNL     1      44.944 -17.466   4.938  1.00  0.00     0.166 HD
ENDBRANCH   1   5
BRANCH   2  17
HETATM   17  C   UNL     1      39.840 -13.428  -0.421  1.00  0.00     0.037 A 
HETATM   18  C   UNL     1      38.870 -12.457  -0.147  1.00  0.00     0.061 A 
HETATM   19  C   UNL     1      38.208 -11.908  -1.222  1.00  0.00     0.065 A 
HETATM   20  C   UNL     1      38.481 -12.276  -2.537  1.00  0.00     0.063 A 
HETATM   21  N   UNL     1      37.198 -10.951  -1.248  1.00  0.00    -0.306 N 
HETATM   22  N   UNL     1      37.643 -11.547  -3.371  1.00  0.00    -0.307 N 
HETATM   23  C   UNL     1      39.429 -13.217  -2.845  1.00  0.00     0.034 A 
HETATM   24  C   UNL     1      36.833 -10.717  -2.581  1.00  0.00     0.325 A 
HETATM   25  H   UNL     1      37.589 -11.586  -4.375  1.00  0.00     0.170 HD
HETATM   26  O   UNL     1      35.977  -9.947  -2.980  1.00  0.00    -0.247 OA
HETATM   27  C   UNL     1      40.110 -13.798  -1.767  1.00  0.00     0.032 A 
HETATM   28  H   UNL     1      36.776 -10.494  -0.457  1.00  0.00     0.170 HD
ENDBRANCH   2  17
TORSDOF 2
ENDMDL
MODEL 6
REMARK VINA RESULT:      -8.2      1.897      9.259
REMARK  2 active torsions:
REMARK  status: ('A' for Active; 'I' for Inactive)
REMARK    1  A    between atoms: C_7  and  C_8 
REMARK       I    between atoms: C_8  and  N_9 
REMARK    2  A    between atoms: N_9  and  C_10 
ROOT
HETATM    1  C   UNL     1      40.706 -14.205   0.726  1.00  0.00     0.256 C 
HETATM    2  N   UNL     1      40.477 -15.438   1.313  1.00  0.00    -0.323 N 
HETATM    3  O   UNL     1      41.637 -13.447   0.975  1.00  0.00    -0.267 OA
HETATM    4  H   UNL     1      39.699 -15.979   0.962  1.00  0.00     0.169 HD
ENDROOT
BRANCH   1   5
HETATM    5  C   UNL     1      39.731 -13.802  -0.334  1.00  0.00     0.033 A 
HETATM    6  C   UNL     1      39.480 -14.713  -1.368  1.00  0.00     0.019 A 
HETATM    7  C   UNL     1      38.571 -14.423  -2.388  1.00  0.00     0.031 A 
HETATM    8  C   UNL     1      37.920 -13.186  -2.340  1.00  0.00     0.043 A 
HETATM    9  C   UNL     1      38.150 -12.245  -1.339  1.00  0.00    -0.001 A 
HETATM   10  N   UNL     1      36.990 -12.647  -3.197  1.00  0.00    -0.359 N 
HETATM   11  C   UNL     1      37.316 -11.113  -1.615  1.00  0.00    -0.027 A 
HETATM   12  C   UNL     1      39.085 -12.553  -0.326  1.00  0.00     0.031 A 
HETATM   13  C   UNL     1      37.218  -9.861  -0.817  1.00  0.00     0.051 C 
HETATM   14  C   UNL     1      36.613 -11.398  -2.776  1.00  0.00     0.012 A 
HETATM   15  C   UNL     1      35.614 -10.593  -3.526  1.00  0.00     0.068 C 
HETATM   16  H   UNL     1      36.641 -13.114  -4.023  1.00  0.00     0.166 HD
ENDBRANCH   1   5
BRANCH   2  17
HETATM   17  C   UNL     1      41.260 -16.074   2.303  1.00  0.00     0.037 A 
HETATM   18  C   UNL     1      42.131 -17.137   2.038  1.00  0.00     0.061 A 
HETATM   19  C   UNL     1      42.811 -17.674   3.108  1.00  0.00     0.065 A 
HETATM   20  C   UNL     1      42.668 -17.191   4.406  1.00  0.00     0.063 A 
HETATM   21  N   UNL     1      43.713 -18.734   3.145  1.00  0.00    -0.306 N 
HETATM   22  N   UNL     1      43.480 -17.949   5.240  1.00  0.00    -0.307 N 
HETATM   23  C   UNL     1      41.831 -16.146   4.703  1.00  0.00     0.034 A 
HETATM   24  C   UNL     1      44.137 -18.919   4.468  1.00  0.00     0.325 A 
HETATM   25  H   UNL     1      43.597 -17.855   6.235  1.00  0.00     0.170 HD
HETATM   26  O   UNL     1      44.920 -19.760   4.873  1.00  0.00    -0.247 OA
HETATM   27  C   UNL     1      41.120 -15.588   3.632  1.00  0.00     0.032 A 
HETATM   28  H   UNL     1      44.020 -19.296   2.368  1.00  0.00     0.170 HD
ENDBRANCH   2  17
TORSDOF 2
ENDMDL
MODEL 7
REMARK VINA RESULT:      -8.0      2.032      2.691
REMARK  2 active torsions:
REMARK  status: ('A' for Active; 'I' for Inactive)
REMARK    1  A    between atoms: C_7  and  C_8 
REMARK       I    between atoms: C_8  and  N_9 
REMARK    2  A    between atoms: N_9  and  C_10 
ROOT
HETATM    1  C   UNL     1      40.582 -14.095   1.266  1.00  0.00     0.256 C 
HETATM    2  N   UNL     1      41.128 -13.756   0.039  1.00  0.00    -0.323 N 
HETATM    3  O   UNL     1      39.504 -13.715   1.708  1.00  0.00    -0.267 OA
HETATM    4  H   UNL     1      42.002 -14.195  -0.215  1.00  0.00     0.169 HD
ENDROOT
BRANCH   1   5
HETATM    5  C   UNL     1      41.389 -15.046   2.093  1.00  0.00     0.033 A 
HETATM    6  C   UNL     1      42.418 -15.750   1.455  1.00  0.00     0.019 A 
HETATM    7  C   UNL     1      43.230 -16.645   2.157  1.00  0.00     0.031 A 
HETATM    8  C   UNL     1      42.976 -16.811   3.523  1.00  0.00     0.043 A 
HETATM    9  C   UNL     1      41.955 -16.142   4.193  1.00  0.00    -0.001 A 
HETATM   10  N   UNL     1      43.609 -17.611   4.444  1.00  0.00    -0.359 N 
HETATM   11  C   UNL     1      41.996 -16.559   5.563  1.00  0.00    -0.027 A 
HETATM   12  C   UNL     1      41.136 -15.253   3.460  1.00  0.00     0.031 A 
HETATM   13  C   UNL     1      41.097 -16.108   6.660  1.00  0.00     0.051 C 
HETATM   14  C   UNL     1      43.033 -17.471   5.680  1.00  0.00     0.012 A 
HETATM   15  C   UNL     1      43.530 -18.227   6.860  1.00  0.00     0.068 C 
HETATM   16  H   UNL     1      44.389 -18.217   4.230  1.00  0.00     0.166 HD
ENDBRANCH   1   5
BRANCH   2  17
HETATM   17  C   UNL     1      40.562 -12.917  -0.947  1.00  0.00     0.037 A 
HETATM   18  C   UNL     1      40.775 -11.535  -1.005  1.00  0.00     0.061 A 
HETATM   19  C   UNL     1      40.136 -10.842  -2.009  1.00  0.00     0.065 A 
HETATM   20  C   UNL     1      39.318 -11.465  -2.946  1.00  0.00     0.063 A 
HETATM   21  N   UNL     1      40.149  -9.479  -2.293  1.00  0.00    -0.306 N 
HETATM   22  N   UNL     1      38.829 -10.491  -3.807  1.00  0.00    -0.307 N 
HETATM   23  C   UNL     1      39.091 -12.817  -2.927  1.00  0.00     0.034 A 
HETATM   24  C   UNL     1      39.336  -9.244  -3.410  1.00  0.00     0.325 A 
HETATM   25  H   UNL     1      38.207 -10.616  -4.587  1.00  0.00     0.170 HD
HETATM   26  O   UNL     1      39.109  -8.168  -3.935  1.00  0.00    -0.247 OA
HETATM   27  C   UNL     1      39.723 -13.545  -1.909  1.00  0.00     0.032 A 
HETATM   28  H   UNL     1      40.643  -8.760  -1.790  1.00  0.00     0.170 HD
ENDBRANCH   2  17
TORSDOF 2
ENDMDL
MODEL 8
REMARK VINA RESULT:      -7.9      9.680     12.805
REMARK  2 active torsions:
REMARK  status: ('A' for Active; 'I' for Inactive)
REMARK    1  A    between atoms: C_7  and  C_8 
REMARK       I    between atoms: C_8  and  N_9 
REMARK    2  A    between atoms: N_9  and  C_10 
ROOT
HETATM    1  C   UNL     1      44.112 -10.177  10.048  1.00  0.00     0.256 C 
HETATM    2  N   UNL     1      42.939  -9.540  10.416  1.00  0.00    -0.323 N 
HETATM    3  O   UNL     1      45.023 -10.508  10.799  1.00  0.00    -0.267 OA
HETATM    4  H   UNL     1      42.252  -9.383   9.693  1.00  0.00     0.169 HD
ENDROOT
BRANCH   1   5
HETATM    5  C   UNL     1      44.235 -10.515   8.596  1.00  0.00     0.033 A 
HETATM    6  C   UNL     1      45.502 -10.875   8.116  1.00  0.00     0.019 A 
HETATM    7  C   UNL     1      45.700 -11.221   6.777  1.00  0.00     0.031 A 
HETATM    8  C   UNL     1      44.586 -11.195   5.932  1.00  0.00     0.043 A 
HETATM    9  C   UNL     1      43.313 -10.831   6.363  1.00  0.00    -0.001 A 
HETATM   10  N   UNL     1      44.492 -11.486   4.592  1.00  0.00    -0.359 N 
HETATM   11  C   UNL     1      42.436 -10.919   5.234  1.00  0.00    -0.027 A 
HETATM   12  C   UNL     1      43.138 -10.469   7.718  1.00  0.00     0.031 A 
HETATM   13  C   UNL     1      40.977 -10.627   5.212  1.00  0.00     0.051 C 
HETATM   14  C   UNL     1      43.203 -11.327   4.154  1.00  0.00     0.012 A 
HETATM   15  C   UNL     1      42.825 -11.579   2.738  1.00  0.00     0.068 C 
HETATM   16  H   UNL     1      45.271 -11.775   4.016  1.00  0.00     0.166 HD
ENDBRANCH   1   5
BRANCH   2  17
HETATM   17  C   UNL     1      42.551  -9.148  11.718  1.00  0.00     0.037 A 
HETATM   18  C   UNL     1      43.185  -8.131  12.442  1.00  0.00     0.061 A 
HETATM   19  C   UNL     1      42.714  -7.876  13.711  1.00  0.00     0.065 A 
HETATM   20  C   UNL     1      41.646  -8.574  14.268  1.00  0.00     0.063 A 
HETATM   21  N   UNL     1      43.156  -6.951  14.652  1.00  0.00    -0.306 N 
HETATM   22  N   UNL     1      41.430  -8.080  15.548  1.00  0.00    -0.307 N 
HETATM   23  C   UNL     1      40.995  -9.570  13.586  1.00  0.00     0.034 A 
HETATM   24  C   UNL     1      42.367  -7.068  15.804  1.00  0.00     0.325 A 
HETATM   25  H   UNL     1      40.736  -8.378  16.213  1.00  0.00     0.170 HD
HETATM   26  O   UNL     1      42.474  -6.421  16.832  1.00  0.00    -0.247 OA
HETATM   27  C   UNL     1      41.463  -9.856  12.296  1.00  0.00     0.032 A 
HETATM   28  H   UNL     1      43.919  -6.301  14.551  1.00  0.00     0.170 HD
ENDBRANCH   2  17
TORSDOF 2
ENDMDL
MODEL 9
REMARK VINA RESULT:      -7.9      2.926      3.916
REMARK  2 active torsions:
REMARK  status: ('A' for Active; 'I' for Inactive)
REMARK    1  A    between atoms: C_7  and  C_8 
REMARK       I    between atoms: C_8  and  N_9 
REMARK    2  A    between atoms: N_9  and  C_10 
ROOT
HETATM    1  C   UNL     1      42.041 -13.852   3.132  1.00  0.00     0.256 C 
HETATM    2  N   UNL     1      40.663 -13.729   3.198  1.00  0.00    -0.323 N 
HETATM    3  O   UNL     1      42.849 -12.931   3.086  1.00  0.00    -0.267 OA
HETATM    4  H   UNL     1      40.127 -14.580   3.291  1.00  0.00     0.169 HD
ENDROOT
BRANCH   1   5
HETATM    5  C   UNL     1      42.567 -15.252   3.159  1.00  0.00     0.033 A 
HETATM    6  C   UNL     1      42.885 -15.852   1.934  1.00  0.00     0.019 A 
HETATM    7  C   UNL     1      43.397 -17.151   1.872  1.00  0.00     0.031 A 
HETATM    8  C   UNL     1      43.580 -17.830   3.080  1.00  0.00     0.043 A 
HETATM    9  C   UNL     1      43.264 -17.278   4.319  1.00  0.00    -0.001 A 
HETATM   10  N   UNL     1      44.062 -19.097   3.312  1.00  0.00    -0.359 N 
HETATM   11  C   UNL     1      43.581 -18.255   5.318  1.00  0.00    -0.027 A 
HETATM   12  C   UNL     1      42.733 -15.969   4.357  1.00  0.00     0.031 A 
HETATM   13  C   UNL     1      43.414 -18.112   6.790  1.00  0.00     0.051 C 
HETATM   14  C   UNL     1      44.071 -19.370   4.656  1.00  0.00     0.012 A 
HETATM   15  C   UNL     1      44.548 -20.677   5.181  1.00  0.00     0.068 C 
HETATM   16  H   UNL     1      44.363 -19.733   2.587  1.00  0.00     0.166 HD
ENDBRANCH   1   5
BRANCH   2  17
HETATM   17  C   UNL     1      39.912 -12.532   3.230  1.00  0.00     0.037 A 
HETATM   18  C   UNL     1      39.316 -11.960   2.100  1.00  0.00     0.061 A 
HETATM   19  C   UNL     1      38.635 -10.777   2.279  1.00  0.00     0.065 A 
HETATM   20  C   UNL     1      38.518 -10.160   3.521  1.00  0.00     0.063 A 
HETATM   21  N   UNL     1      37.971  -9.985   1.346  1.00  0.00    -0.306 N 
HETATM   22  N   UNL     1      37.782  -8.994   3.356  1.00  0.00    -0.307 N 
HETATM   23  C   UNL     1      39.080 -10.694   4.652  1.00  0.00     0.034 A 
HETATM   24  C   UNL     1      37.437  -8.868   2.002  1.00  0.00     0.325 A 
HETATM   25  H   UNL     1      37.529  -8.322   4.060  1.00  0.00     0.170 HD
HETATM   26  O   UNL     1      36.799  -7.960   1.497  1.00  0.00    -0.247 OA
HETATM   27  C   UNL     1      39.788 -11.894   4.495  1.00  0.00     0.032 A 
HETATM   28  H   UNL     1      37.883 -10.158   0.358  1.00  0.00     0.170 HD
ENDBRANCH   2  17
TORSDOF 2
ENDMDL
MODEL 10
REMARK VINA RESULT:      -7.7      4.851      8.804
REMARK  2 active torsions:
REMARK  status: ('A' for Active; 'I' for Inactive)
REMARK    1  A    between atoms: C_7  and  C_8 
REMARK       I    between atoms: C_8  and  N_9 
REMARK    2  A    between atoms: N_9  and  C_10 
ROOT
HETATM    1  C   UNL     1      41.821 -13.626   4.411  1.00  0.00     0.256 C 
HETATM    2  N   UNL     1      42.516 -12.428   4.402  1.00  0.00    -0.323 N 
HETATM    3  O   UNL     1      41.641 -14.351   5.382  1.00  0.00    -0.267 OA
HETATM    4  H   UNL     1      42.531 -11.909   3.535  1.00  0.00     0.169 HD
ENDROOT
BRANCH   1   5
HETATM    5  C   UNL     1      41.211 -14.029   3.106  1.00  0.00     0.033 A 
HETATM    6  C   UNL     1      40.559 -15.268   3.047  1.00  0.00     0.019 A 
HETATM    7  C   UNL     1      39.949 -15.713   1.871  1.00  0.00     0.031 A 
HETATM    8  C   UNL     1      40.012 -14.874   0.754  1.00  0.00     0.043 A 
HETATM    9  C   UNL     1      40.662 -13.642   0.764  1.00  0.00    -0.001 A 
HETATM   10  N   UNL     1      39.506 -15.054  -0.511  1.00  0.00    -0.359 N 
HETATM   11  C   UNL     1      40.523 -13.073  -0.543  1.00  0.00    -0.027 A 
HETATM   12  C   UNL     1      41.286 -13.219   1.959  1.00  0.00     0.031 A 
HETATM   13  C   UNL     1      41.053 -11.762  -1.007  1.00  0.00     0.051 C 
HETATM   14  C   UNL     1      39.803 -13.978  -1.307  1.00  0.00     0.012 A 
HETATM   15  C   UNL     1      39.368 -13.917  -2.728  1.00  0.00     0.068 C 
HETATM   16  H   UNL     1      38.989 -15.871  -0.806  1.00  0.00     0.166 HD
ENDBRANCH   1   5
BRANCH   2  17
HETATM   17  C   UNL     1      43.150 -11.799   5.498  1.00  0.00     0.037 A 
HETATM   18  C   UNL     1      42.456 -11.226   6.570  1.00  0.00     0.061 A 
HETATM   19  C   UNL     1      43.206 -10.624   7.555  1.00  0.00     0.065 A 
HETATM   20  C   UNL     1      44.597 -10.584   7.517  1.00  0.00     0.063 A 
HETATM   21  N   UNL     1      42.792  -9.967   8.709  1.00  0.00    -0.306 N 
HETATM   22  N   UNL     1      45.039  -9.907   8.647  1.00  0.00    -0.307 N 
HETATM   23  C   UNL     1      45.312 -11.142   6.489  1.00  0.00     0.034 A 
HETATM   24  C   UNL     1      43.923  -9.511   9.399  1.00  0.00     0.325 A 
HETATM   25  H   UNL     1      45.989  -9.704   8.910  1.00  0.00     0.170 HD
HETATM   26  O   UNL     1      43.939  -8.889  10.448  1.00  0.00    -0.247 OA
HETATM   27  C   UNL     1      44.570 -11.752   5.468  1.00  0.00     0.032 A 
HETATM   28  H   UNL     1      41.844  -9.821   9.016  1.00  0.00     0.170 HD
ENDBRANCH   2  17
TORSDOF 2
ENDMDL
