MODEL 1
REMARK VINA RESULT:      -9.8      0.000      0.000
REMARK  8 active torsions:
REMARK  status: ('A' for Active; 'I' for Inactive)
REMARK    1  A    between atoms: C_5  and  C_6 
REMARK       I    between atoms: C_6  and  N_7 
REMARK    2  A    between atoms: N_7  and  N_8 
REMARK       I    between atoms: N_8  and  C_9 
REMARK    3  A    between atoms: C_9  and  C_10 
REMARK    4  A    between atoms: C_10  and  S_11 
REMARK    5  A    between atoms: S_11  and  C_12 
REMARK    6  A    between atoms: N_13  and  C_14 
REMARK    7  A    between atoms: C_21  and  C_22 
REMARK    8  A    between atoms: C_22  and  N_23 
ROOT
HETATM    1  C   UNL     1      43.449 -13.006   6.290  1.00  0.00     0.196 A 
HETATM    2  N   UNL     1      42.748 -13.898   5.500  1.00  0.00    -0.274 N 
HETATM    3  C   UNL     1      42.586 -15.017   6.320  1.00  0.00     0.166 A 
HETATM    4  N   UNL     1      43.069 -14.745   7.518  1.00  0.00    -0.131 NA
HETATM    5  N   UNL     1      43.613 -13.497   7.495  1.00  0.00    -0.122 NA
ENDROOT
BRANCH   1   6
HETATM    6  S   UNL     1      43.907 -11.399   5.840  1.00  0.00    -0.080 SA
BRANCH   6   7
HETATM    7  C   UNL     1      45.444 -11.233   6.792  1.00  0.00     0.187 C 
BRANCH   7   8
HETATM    8  C   UNL     1      45.219 -10.293   7.963  1.00  0.00     0.245 C 
HETATM    9  N   UNL     1      44.032 -10.518   8.628  1.00  0.00    -0.267 N 
HETATM   10  H   UNL     1      43.343 -11.221   8.355  1.00  0.00     0.190 HD
HETATM   11  O   UNL     1      46.027  -9.424   8.298  1.00  0.00    -0.271 OA
BRANCH   9  12
HETATM   12  N   UNL     1      43.648  -9.691   9.688  1.00  0.00    -0.263 N 
HETATM   13  C   UNL     1      43.632 -10.272  10.945  1.00  0.00     0.270 C 
HETATM   14  O   UNL     1      44.005 -11.434  11.107  1.00  0.00    -0.266 OA
HETATM   15  H   UNL     1      43.246  -8.791   9.452  1.00  0.00     0.190 HD
BRANCH  13  16
HETATM   16  C   UNL     1      43.129  -9.463  12.093  1.00  0.00     0.033 A 
HETATM   17  C   UNL     1      43.650  -8.212  12.444  1.00  0.00     0.017 A 
HETATM   18  C   UNL     1      43.124  -7.513  13.537  1.00  0.00     0.007 A 
HETATM   19  C   UNL     1      42.074  -8.049  14.292  1.00  0.00    -0.062 A 
HETATM   20  C   UNL     1      41.525  -7.318  15.482  1.00  0.00     0.048 C 
HETATM   21  C   UNL     1      41.568  -9.307  13.953  1.00  0.00     0.007 A 
HETATM   22  C   UNL     1      42.088 -10.007  12.861  1.00  0.00     0.017 A 
ENDBRANCH  13  16
ENDBRANCH   9  12
ENDBRANCH   7   8
ENDBRANCH   6   7
ENDBRANCH   1   6
BRANCH   2  23
HETATM   23  C   UNL     1      42.316 -13.747   4.160  1.00  0.00     0.043 A 
HETATM   24  C   UNL     1      43.189 -14.036   3.101  1.00  0.00     0.033 A 
HETATM   25  C   UNL     1      42.745 -13.911   1.782  1.00  0.00     0.044 A 
HETATM   26  C   UNL     1      41.444 -13.494   1.530  1.00  0.00     0.116 A 
HETATM   27  F   UNL     1      41.020 -13.378   0.266  1.00  0.00    -0.206 F 
HETATM   28  C   UNL     1      40.574 -13.193   2.573  1.00  0.00     0.044 A 
HETATM   29  C   UNL     1      41.007 -13.317   3.895  1.00  0.00     0.033 A 
ENDBRANCH   2  23
BRANCH   3  30
HETATM   30  C   UNL     1      42.080 -16.367   5.897  1.00  0.00     0.255 C 
HETATM   31  C   UNL     1      40.617 -16.326   5.440  1.00  0.00     0.049 C 
BRANCH  30  32
HETATM   32  N   UNL     1      42.905 -17.058   4.774  1.00  0.00    -0.060 N 
HETATM   33  H   UNL     1      43.631 -16.379   4.516  1.00  0.00     0.280 HD
HETATM   34  C   UNL     1      43.632 -18.327   5.187  1.00  0.00     0.236 C 
HETATM   35  C   UNL     1      44.573 -18.746   4.063  1.00  0.00     0.028 C 
HETATM   36  C   UNL     1      43.825 -18.945   2.749  1.00  0.00     0.003 C 
HETATM   37  C   UNL     1      43.008 -17.710   2.386  1.00  0.00     0.028 C 
HETATM   38  C   UNL     1      42.081 -17.291   3.522  1.00  0.00     0.236 C 
ENDBRANCH  30  32
ENDBRANCH   3  30
TORSDOF 8
ENDMDL
MODEL 2
REMARK VINA RESULT:      -9.4      3.622     10.586
REMARK  8 active torsions:
REMARK  status: ('A' for Active; 'I' for Inactive)
REMARK    1  A    between atoms: C_5  and  C_6 
REMARK       I    between atoms: C_6  and  N_7 
REMARK    2  A    between atoms: N_7  and  N_8 
REMARK       I    between atoms: N_8  and  C_9 
REMARK    3  A    between atoms: C_9  and  C_10 
REMARK    4  A    between atoms: C_10  and  S_11 
REMARK    5  A    between atoms: S_11  and  C_12 
REMARK    6  A    between atoms: N_13  and  C_14 
REMARK    7  A    between atoms: C_21  and  C_22 
REMARK    8  A    between atoms: C_22  and  N_23 
ROOT
HETATM    1  C   UNL     1      40.258  -9.679   7.565  1.00  0.00     0.196 A 
HETATM    2  N   UNL     1      40.939  -9.122   8.631  1.00  0.00    -0.274 N 
HETATM    3  C   UNL     1      39.940  -8.489   9.373  1.00  0.00     0.166 A 
HETATM    4  N   UNL     1      38.767  -8.752   8.827  1.00  0.00    -0.131 NA
HETATM    5  N   UNL     1      38.967  -9.486   7.698  1.00  0.00    -0.122 NA
ENDROOT
BRANCH   1   6
HETATM    6  S   UNL     1      40.957 -10.648   6.312  1.00  0.00    -0.080 SA
BRANCH   6   7
HETATM    7  C   UNL     1      39.513 -11.643   5.843  1.00  0.00     0.187 C 
BRANCH   7   8
HETATM    8  C   UNL     1      39.907 -13.108   5.765  1.00  0.00     0.245 C 
HETATM    9  N   UNL     1      40.621 -13.425   4.628  1.00  0.00    -0.267 N 
HETATM   10  H   UNL     1      40.844 -12.761   3.884  1.00  0.00     0.190 HD
HETATM   11  O   UNL     1      39.631 -13.930   6.641  1.00  0.00    -0.271 OA
BRANCH   9  12
HETATM   12  N   UNL     1      40.998 -14.748   4.376  1.00  0.00    -0.263 N 
HETATM   13  C   UNL     1      42.336 -14.961   4.093  1.00  0.00     0.270 C 
HETATM   14  O   UNL     1      43.145 -14.033   4.134  1.00  0.00    -0.266 OA
HETATM   15  H   UNL     1      40.254 -15.425   4.246  1.00  0.00     0.190 HD
BRANCH  13  16
HETATM   16  C   UNL     1      42.770 -16.336   3.713  1.00  0.00     0.033 A 
HETATM   17  C   UNL     1      43.607 -17.129   4.508  1.00  0.00     0.017 A 
HETATM   18  C   UNL     1      43.972 -18.413   4.083  1.00  0.00     0.007 A 
HETATM   19  C   UNL     1      43.508 -18.922   2.864  1.00  0.00    -0.062 A 
HETATM   20  C   UNL     1      43.917 -20.285   2.390  1.00  0.00     0.048 C 
HETATM   21  C   UNL     1      42.688 -18.122   2.063  1.00  0.00     0.007 A 
HETATM   22  C   UNL     1      42.320 -16.842   2.485  1.00  0.00     0.017 A 
ENDBRANCH  13  16
ENDBRANCH   9  12
ENDBRANCH   7   8
ENDBRANCH   6   7
ENDBRANCH   1   6
BRANCH   2  23
HETATM   23  C   UNL     1      42.328  -9.145   8.906  1.00  0.00     0.043 A 
HETATM   24  C   UNL     1      43.162  -8.133   8.407  1.00  0.00     0.033 A 
HETATM   25  C   UNL     1      44.526  -8.148   8.707  1.00  0.00     0.044 A 
HETATM   26  C   UNL     1      45.048  -9.170   9.491  1.00  0.00     0.116 A 
HETATM   27  F   UNL     1      46.355  -9.180   9.779  1.00  0.00    -0.206 F 
HETATM   28  C   UNL     1      44.232 -10.185   9.980  1.00  0.00     0.044 A 
HETATM   29  C   UNL     1      42.866 -10.178   9.688  1.00  0.00     0.033 A 
ENDBRANCH   2  23
BRANCH   3  30
HETATM   30  C   UNL     1      40.146  -7.545  10.523  1.00  0.00     0.255 C 
HETATM   31  C   UNL     1      38.823  -7.041  11.112  1.00  0.00     0.049 C 
BRANCH  30  32
HETATM   32  N   UNL     1      40.999  -8.109  11.695  1.00  0.00    -0.060 N 
HETATM   33  H   UNL     1      41.329  -9.026  11.371  1.00  0.00     0.280 HD
HETATM   34  C   UNL     1      42.242  -7.306  12.043  1.00  0.00     0.236 C 
HETATM   35  C   UNL     1      43.085  -8.102  13.032  1.00  0.00     0.028 C 
HETATM   36  C   UNL     1      42.293  -8.459  14.285  1.00  0.00     0.003 C 
HETATM   37  C   UNL     1      40.992  -9.172  13.932  1.00  0.00     0.028 C 
HETATM   38  C   UNL     1      40.164  -8.373  12.933  1.00  0.00     0.236 C 
ENDBRANCH  30  32
ENDBRANCH   3  30
TORSDOF 8
ENDMDL
MODEL 3
REMARK VINA RESULT:      -9.3      2.005      3.654
REMARK  8 active torsions:
REMARK  status: ('A' for Active; 'I' for Inactive)
REMARK    1  A    between atoms: C_5  and  C_6 
REMARK       I    between atoms: C_6  and  N_7 
REMARK    2  A    between atoms: N_7  and  N_8 
REMARK       I    between atoms: N_8  and  C_9 
REMARK    3  A    between atoms: C_9  and  C_10 
REMARK    4  A    between atoms: C_10  and  S_11 
REMARK    5  A    between atoms: S_11  and  C_12 
REMARK    6  A    between atoms: N_13  and  C_14 
REMARK    7  A    between atoms: C_21  and  C_22 
REMARK    8  A    between atoms: C_22  and  N_23 
ROOT
HETATM    1  C   UNL     1      42.599 -12.397   5.767  1.00  0.00     0.196 A 
HETATM    2  N   UNL     1      41.932 -13.081   4.767  1.00  0.00    -0.274 N 
HETATM    3  C   UNL     1      40.887 -12.224   4.415  1.00  0.00     0.166 A 
HETATM    4  N   UNL     1      41.010 -11.097   5.090  1.00  0.00    -0.131 NA
HETATM    5  N   UNL     1      42.070 -11.209   5.936  1.00  0.00    -0.122 NA
ENDROOT
BRANCH   1   6
HETATM    6  S   UNL     1      44.034 -12.931   6.575  1.00  0.00    -0.080 SA
BRANCH   6   7
HETATM    7  C   UNL     1      44.857 -11.336   6.840  1.00  0.00     0.187 C 
BRANCH   7   8
HETATM    8  C   UNL     1      44.825 -10.985   8.318  1.00  0.00     0.245 C 
HETATM    9  N   UNL     1      43.564 -11.051   8.871  1.00  0.00    -0.267 N 
HETATM   10  H   UNL     1      42.716 -11.279   8.347  1.00  0.00     0.190 HD
HETATM   11  O   UNL     1      45.832 -10.687   8.964  1.00  0.00    -0.271 OA
BRANCH   9  12
HETATM   12  N   UNL     1      43.358 -10.690  10.206  1.00  0.00    -0.263 N 
HETATM   13  C   UNL     1      42.499  -9.627  10.429  1.00  0.00     0.270 C 
HETATM   14  O   UNL     1      41.908  -9.087   9.493  1.00  0.00    -0.266 OA
HETATM   15  H   UNL     1      43.971 -11.106  10.899  1.00  0.00     0.190 HD
BRANCH  13  16
HETATM   16  C   UNL     1      42.328  -9.135  11.827  1.00  0.00     0.033 A 
HETATM   17  C   UNL     1      41.318  -9.586  12.685  1.00  0.00     0.017 A 
HETATM   18  C   UNL     1      41.222  -9.076  13.986  1.00  0.00     0.007 A 
HETATM   19  C   UNL     1      42.128  -8.113  14.447  1.00  0.00    -0.062 A 
HETATM   20  C   UNL     1      42.013  -7.542  15.829  1.00  0.00     0.048 C 
HETATM   21  C   UNL     1      43.124  -7.650  13.582  1.00  0.00     0.007 A 
HETATM   22  C   UNL     1      43.225  -8.159  12.285  1.00  0.00     0.017 A 
ENDBRANCH  13  16
ENDBRANCH   9  12
ENDBRANCH   7   8
ENDBRANCH   6   7
ENDBRANCH   1   6
BRANCH   2  23
HETATM   23  C   UNL     1      42.207 -14.364   4.234  1.00  0.00     0.043 A 
HETATM   24  C   UNL     1      43.055 -14.500   3.126  1.00  0.00     0.033 A 
HETATM   25  C   UNL     1      43.344 -15.771   2.625  1.00  0.00     0.044 A 
HETATM   26  C   UNL     1      42.780 -16.891   3.223  1.00  0.00     0.116 A 
HETATM   27  F   UNL     1      43.059 -18.109   2.743  1.00  0.00    -0.206 F 
HETATM   28  C   UNL     1      41.927 -16.767   4.315  1.00  0.00     0.044 A 
HETATM   29  C   UNL     1      41.635 -15.500   4.826  1.00  0.00     0.033 A 
ENDBRANCH   2  23
BRANCH   3  30
HETATM   30  C   UNL     1      39.723 -12.557   3.525  1.00  0.00     0.255 C 
HETATM   31  C   UNL     1      38.857 -11.330   3.211  1.00  0.00     0.049 C 
BRANCH  30  32
HETATM   32  N   UNL     1      40.098 -13.228   2.173  1.00  0.00    -0.060 N 
HETATM   33  H   UNL     1      41.120 -13.320   2.192  1.00  0.00     0.280 HD
HETATM   34  C   UNL     1      39.545 -14.629   1.966  1.00  0.00     0.236 C 
HETATM   35  C   UNL     1      40.187 -15.235   0.723  1.00  0.00     0.028 C 
HETATM   36  C   UNL     1      39.955 -14.366  -0.508  1.00  0.00     0.003 C 
HETATM   37  C   UNL     1      40.411 -12.931  -0.266  1.00  0.00     0.028 C 
HETATM   38  C   UNL     1      39.775 -12.340   0.987  1.00  0.00     0.236 C 
ENDBRANCH  30  32
ENDBRANCH   3  30
TORSDOF 8
ENDMDL
MODEL 4
REMARK VINA RESULT:      -9.1      2.844      4.098
REMARK  8 active torsions:
REMARK  status: ('A' for Active; 'I' for Inactive)
REMARK    1  A    between atoms: C_5  and  C_6 
REMARK       I    between atoms: C_6  and  N_7 
REMARK    2  A    between atoms: N_7  and  N_8 
REMARK       I    between atoms: N_8  and  C_9 
REMARK    3  A    between atoms: C_9  and  C_10 
REMARK    4  A    between atoms: C_10  and  S_11 
REMARK    5  A    between atoms: S_11  and  C_12 
REMARK    6  A    between atoms: N_13  and  C_14 
REMARK    7  A    between atoms: C_21  and  C_22 
REMARK    8  A    between atoms: C_22  and  N_23 
ROOT
HETATM    1  C   UNL     1      41.023 -11.947   6.015  1.00  0.00     0.196 A 
HETATM    2  N   UNL     1      42.276 -12.510   6.169  1.00  0.00    -0.274 N 
HETATM    3  C   UNL     1      42.076 -13.860   5.871  1.00  0.00     0.166 A 
HETATM    4  N   UNL     1      40.828 -14.033   5.479  1.00  0.00    -0.131 NA
HETATM    5  N   UNL     1      40.172 -12.844   5.576  1.00  0.00    -0.122 NA
ENDROOT
BRANCH   1   6
HETATM    6  S   UNL     1      40.638 -10.269   6.197  1.00  0.00    -0.080 SA
BRANCH   6   7
HETATM    7  C   UNL     1      39.292 -10.386   7.408  1.00  0.00     0.187 C 
BRANCH   7   8
HETATM    8  C   UNL     1      39.544  -9.413   8.547  1.00  0.00     0.245 C 
HETATM    9  N   UNL     1      40.073 -10.009   9.672  1.00  0.00    -0.267 N 
HETATM   10  H   UNL     1      40.254 -11.010   9.763  1.00  0.00     0.190 HD
HETATM   11  O   UNL     1      39.314  -8.204   8.467  1.00  0.00    -0.271 OA
BRANCH   9  12
HETATM   12  N   UNL     1      40.298  -9.258  10.830  1.00  0.00    -0.263 N 
HETATM   13  C   UNL     1      41.561  -9.355  11.389  1.00  0.00     0.270 C 
HETATM   14  O   UNL     1      42.443 -10.018  10.841  1.00  0.00    -0.266 OA
HETATM   15  H   UNL     1      39.489  -8.839  11.275  1.00  0.00     0.190 HD
BRANCH  13  16
HETATM   16  C   UNL     1      41.820  -8.659  12.682  1.00  0.00     0.033 A 
HETATM   17  C   UNL     1      42.936  -7.846  12.911  1.00  0.00     0.017 A 
HETATM   18  C   UNL     1      43.111  -7.224  14.154  1.00  0.00     0.007 A 
HETATM   19  C   UNL     1      42.177  -7.404  15.181  1.00  0.00    -0.062 A 
HETATM   20  C   UNL     1      42.373  -6.764  16.524  1.00  0.00     0.048 C 
HETATM   21  C   UNL     1      41.073  -8.231  14.958  1.00  0.00     0.007 A 
HETATM   22  C   UNL     1      40.894  -8.851  13.718  1.00  0.00     0.017 A 
ENDBRANCH  13  16
ENDBRANCH   9  12
ENDBRANCH   7   8
ENDBRANCH   6   7
ENDBRANCH   1   6
BRANCH   2  23
HETATM   23  C   UNL     1      43.485 -11.889   6.569  1.00  0.00     0.043 A 
HETATM   24  C   UNL     1      43.629 -11.405   7.877  1.00  0.00     0.033 A 
HETATM   25  C   UNL     1      44.835 -10.820   8.272  1.00  0.00     0.044 A 
HETATM   26  C   UNL     1      45.879 -10.715   7.361  1.00  0.00     0.116 A 
HETATM   27  F   UNL     1      47.034 -10.157   7.742  1.00  0.00    -0.206 F 
HETATM   28  C   UNL     1      45.742 -11.181   6.058  1.00  0.00     0.044 A 
HETATM   29  C   UNL     1      44.542 -11.770   5.654  1.00  0.00     0.033 A 
ENDBRANCH   2  23
BRANCH   3  30
HETATM   30  C   UNL     1      43.059 -14.975   6.087  1.00  0.00     0.255 C 
HETATM   31  C   UNL     1      42.906 -15.632   7.465  1.00  0.00     0.049 C 
BRANCH  30  32
HETATM   32  N   UNL     1      43.018 -16.106   5.020  1.00  0.00    -0.060 N 
HETATM   33  H   UNL     1      42.091 -16.535   5.117  1.00  0.00     0.280 HD
HETATM   34  C   UNL     1      43.126 -15.642   3.576  1.00  0.00     0.236 C 
HETATM   35  C   UNL     1      42.833 -16.821   2.655  1.00  0.00     0.028 C 
HETATM   36  C   UNL     1      43.771 -17.993   2.927  1.00  0.00     0.003 C 
HETATM   37  C   UNL     1      43.745 -18.391   4.399  1.00  0.00     0.028 C 
HETATM   38  C   UNL     1      44.025 -17.202   5.311  1.00  0.00     0.236 C 
ENDBRANCH  30  32
ENDBRANCH   3  30
TORSDOF 8
ENDMDL
MODEL 5
REMARK VINA RESULT:      -9.0      2.863      4.161
REMARK  8 active torsions:
REMARK  status: ('A' for Active; 'I' for Inactive)
REMARK    1  A    between atoms: C_5  and  C_6 
REMARK       I    between atoms: C_6  and  N_7 
REMARK    2  A    between atoms: N_7  and  N_8 
REMARK       I    between atoms: N_8  and  C_9 
REMARK    3  A    between atoms: C_9  and  C_10 
REMARK    4  A    between atoms: C_10  and  S_11 
REMARK    5  A    between atoms: S_11  and  C_12 
REMARK    6  A    between atoms: N_13  and  C_14 
REMARK    7  A    between atoms: C_21  and  C_22 
REMARK    8  A    between atoms: C_22  and  N_23 
ROOT
HETATM    1  C   UNL     1      41.223 -12.780   5.421  1.00  0.00     0.196 A 
HETATM    2  N   UNL     1      42.446 -13.193   5.917  1.00  0.00    -0.274 N 
HETATM    3  C   UNL     1      42.359 -14.586   5.904  1.00  0.00     0.166 A 
HETATM    4  N   UNL     1      41.216 -14.941   5.349  1.00  0.00    -0.131 NA
HETATM    5  N   UNL     1      40.507 -13.816   5.057  1.00  0.00    -0.122 NA
ENDROOT
BRANCH   1   6
HETATM    6  S   UNL     1      40.744 -11.139   5.146  1.00  0.00    -0.080 SA
BRANCH   6   7
HETATM    7  C   UNL     1      39.102 -11.158   5.920  1.00  0.00     0.187 C 
BRANCH   7   8
HETATM    8  C   UNL     1      39.216 -10.716   7.369  1.00  0.00     0.245 C 
HETATM    9  N   UNL     1      40.328  -9.942   7.621  1.00  0.00    -0.267 N 
HETATM   10  H   UNL     1      41.036  -9.705   6.923  1.00  0.00     0.190 HD
HETATM   11  O   UNL     1      38.384 -11.007   8.231  1.00  0.00    -0.271 OA
BRANCH   9  12
HETATM   12  N   UNL     1      40.611  -9.513   8.922  1.00  0.00    -0.263 N 
HETATM   13  C   UNL     1      41.761  -8.759   9.083  1.00  0.00     0.270 C 
HETATM   14  O   UNL     1      42.446  -8.438   8.111  1.00  0.00    -0.266 OA
HETATM   15  H   UNL     1      40.064  -9.919   9.673  1.00  0.00     0.190 HD
BRANCH  13  16
HETATM   16  C   UNL     1      42.164  -8.367  10.465  1.00  0.00     0.033 A 
HETATM   17  C   UNL     1      43.368  -8.761  11.059  1.00  0.00     0.017 A 
HETATM   18  C   UNL     1      43.676  -8.353  12.363  1.00  0.00     0.007 A 
HETATM   19  C   UNL     1      42.791  -7.548  13.088  1.00  0.00    -0.062 A 
HETATM   20  C   UNL     1      43.101  -7.130  14.495  1.00  0.00     0.048 C 
HETATM   21  C   UNL     1      41.579  -7.170  12.501  1.00  0.00     0.007 A 
HETATM   22  C   UNL     1      41.270  -7.574  11.200  1.00  0.00     0.017 A 
ENDBRANCH  13  16
ENDBRANCH   9  12
ENDBRANCH   7   8
ENDBRANCH   6   7
ENDBRANCH   1   6
BRANCH   2  23
HETATM   23  C   UNL     1      43.532 -12.404   6.371  1.00  0.00     0.043 A 
HETATM   24  C   UNL     1      44.587 -12.093   5.501  1.00  0.00     0.033 A 
HETATM   25  C   UNL     1      45.640 -11.291   5.947  1.00  0.00     0.044 A 
HETATM   26  C   UNL     1      45.637 -10.815   7.253  1.00  0.00     0.116 A 
HETATM   27  F   UNL     1      46.646 -10.045   7.678  1.00  0.00    -0.206 F 
HETATM   28  C   UNL     1      44.602 -11.129   8.127  1.00  0.00     0.044 A 
HETATM   29  C   UNL     1      43.543 -11.927   7.690  1.00  0.00     0.033 A 
ENDBRANCH   2  23
BRANCH   3  30
HETATM   30  C   UNL     1      43.327 -15.545   6.537  1.00  0.00     0.255 C 
HETATM   31  C   UNL     1      43.088 -15.709   8.043  1.00  0.00     0.049 C 
BRANCH  30  32
HETATM   32  N   UNL     1      43.354 -16.967   5.907  1.00  0.00    -0.060 N 
HETATM   33  H   UNL     1      42.402 -17.125   5.557  1.00  0.00     0.280 HD
HETATM   34  C   UNL     1      44.282 -17.133   4.714  1.00  0.00     0.236 C 
HETATM   35  C   UNL     1      44.021 -18.490   4.070  1.00  0.00     0.028 C 
HETATM   36  C   UNL     1      44.200 -19.629   5.067  1.00  0.00     0.003 C 
HETATM   37  C   UNL     1      43.349 -19.410   6.314  1.00  0.00     0.028 C 
HETATM   38  C   UNL     1      43.608 -18.045   6.942  1.00  0.00     0.236 C 
ENDBRANCH  30  32
ENDBRANCH   3  30
TORSDOF 8
ENDMDL
MODEL 6
REMARK VINA RESULT:      -8.9      3.432     10.097
REMARK  8 active torsions:
REMARK  status: ('A' for Active; 'I' for Inactive)
REMARK    1  A    between atoms: C_5  and  C_6 
REMARK       I    between atoms: C_6  and  N_7 
REMARK    2  A    between atoms: N_7  and  N_8 
REMARK       I    between atoms: N_8  and  C_9 
REMARK    3  A    between atoms: C_9  and  C_10 
REMARK    4  A    between atoms: C_10  and  S_11 
REMARK    5  A    between atoms: S_11  and  C_12 
REMARK    6  A    between atoms: N_13  and  C_14 
REMARK    7  A    between atoms: C_21  and  C_22 
REMARK    8  A    between atoms: C_22  and  N_23 
ROOT
HETATM    1  C   UNL     1      42.769 -10.721   7.009  1.00  0.00     0.196 A 
HETATM    2  N   UNL     1      43.006  -9.939   8.125  1.00  0.00    -0.274 N 
HETATM    3  C   UNL     1      44.001 -10.634   8.816  1.00  0.00     0.166 A 
HETATM    4  N   UNL     1      44.373 -11.677   8.098  1.00  0.00    -0.131 NA
HETATM    5  N   UNL     1      43.600 -11.734   6.979  1.00  0.00    -0.122 NA
ENDROOT
BRANCH   1   6
HETATM    6  S   UNL     1      41.662 -10.349   5.731  1.00  0.00    -0.080 SA
BRANCH   6   7
HETATM    7  C   UNL     1      40.370 -11.578   6.068  1.00  0.00     0.187 C 
BRANCH   7   8
HETATM    8  C   UNL     1      40.528 -12.758   5.124  1.00  0.00     0.245 C 
HETATM    9  N   UNL     1      41.624 -13.545   5.408  1.00  0.00    -0.267 N 
HETATM   10  H   UNL     1      42.295 -13.352   6.154  1.00  0.00     0.190 HD
HETATM   11  O   UNL     1      39.743 -12.998   4.205  1.00  0.00    -0.271 OA
BRANCH   9  12
HETATM   12  N   UNL     1      41.945 -14.631   4.587  1.00  0.00    -0.263 N 
HETATM   13  C   UNL     1      42.304 -15.803   5.232  1.00  0.00     0.270 C 
HETATM   14  O   UNL     1      42.268 -15.881   6.461  1.00  0.00    -0.266 OA
HETATM   15  H   UNL     1      42.064 -14.445   3.597  1.00  0.00     0.190 HD
BRANCH  13  16
HETATM   16  C   UNL     1      42.757 -16.957   4.405  1.00  0.00     0.033 A 
HETATM   17  C   UNL     1      43.663 -17.923   4.858  1.00  0.00     0.017 A 
HETATM   18  C   UNL     1      44.042 -18.980   4.021  1.00  0.00     0.007 A 
HETATM   19  C   UNL     1      43.524 -19.088   2.726  1.00  0.00    -0.062 A 
HETATM   20  C   UNL     1      43.947 -20.202   1.814  1.00  0.00     0.048 C 
HETATM   21  C   UNL     1      42.634 -18.112   2.267  1.00  0.00     0.007 A 
HETATM   22  C   UNL     1      42.252 -17.058   3.100  1.00  0.00     0.017 A 
ENDBRANCH  13  16
ENDBRANCH   9  12
ENDBRANCH   7   8
ENDBRANCH   6   7
ENDBRANCH   1   6
BRANCH   2  23
HETATM   23  C   UNL     1      42.375  -8.732   8.513  1.00  0.00     0.043 A 
HETATM   24  C   UNL     1      43.022  -7.503   8.315  1.00  0.00     0.033 A 
HETATM   25  C   UNL     1      42.381  -6.316   8.675  1.00  0.00     0.044 A 
HETATM   26  C   UNL     1      41.110  -6.361   9.234  1.00  0.00     0.116 A 
HETATM   27  F   UNL     1      40.497  -5.222   9.575  1.00  0.00    -0.206 F 
HETATM   28  C   UNL     1      40.465  -7.575   9.446  1.00  0.00     0.044 A 
HETATM   29  C   UNL     1      41.096  -8.768   9.088  1.00  0.00     0.033 A 
ENDBRANCH   2  23
BRANCH   3  30
HETATM   30  C   UNL     1      44.486 -10.346  10.208  1.00  0.00     0.255 C 
HETATM   31  C   UNL     1      45.689  -9.394  10.224  1.00  0.00     0.049 C 
BRANCH  30  32
HETATM   32  N   UNL     1      43.414  -9.767  11.173  1.00  0.00    -0.060 N 
HETATM   33  H   UNL     1      42.607  -9.545  10.578  1.00  0.00     0.280 HD
HETATM   34  C   UNL     1      42.909 -10.727  12.238  1.00  0.00     0.236 C 
HETATM   35  C   UNL     1      41.710 -10.101  12.941  1.00  0.00     0.028 C 
HETATM   36  C   UNL     1      42.059  -8.745  13.545  1.00  0.00     0.003 C 
HETATM   37  C   UNL     1      42.665  -7.814  12.501  1.00  0.00     0.028 C 
HETATM   38  C   UNL     1      43.854  -8.456  11.795  1.00  0.00     0.236 C 
ENDBRANCH  30  32
ENDBRANCH   3  30
TORSDOF 8
ENDMDL
MODEL 7
REMARK VINA RESULT:      -8.8      2.728      3.870
REMARK  8 active torsions:
REMARK  status: ('A' for Active; 'I' for Inactive)
REMARK    1  A    between atoms: C_5  and  C_6 
REMARK       I    between atoms: C_6  and  N_7 
REMARK    2  A    between atoms: N_7  and  N_8 
REMARK       I    between atoms: N_8  and  C_9 
REMARK    3  A    between atoms: C_9  and  C_10 
REMARK    4  A    between atoms: C_10  and  S_11 
REMARK    5  A    between atoms: S_11  and  C_12 
REMARK    6  A    between atoms: N_13  and  C_14 
REMARK    7  A    between atoms: C_21  and  C_22 
REMARK    8  A    between atoms: C_22  and  N_23 
ROOT
HETATM    1  C   UNL     1      39.658 -11.441   5.291  1.00  0.00     0.196 A 
HETATM    2  N   UNL     1      40.123 -12.653   4.816  1.00  0.00    -0.274 N 
HETATM    3  C   UNL     1      39.776 -12.639   3.464  1.00  0.00     0.166 A 
HETATM    4  N   UNL     1      39.245 -11.467   3.169  1.00  0.00    -0.131 NA
HETATM    5  N   UNL     1      39.165 -10.726   4.308  1.00  0.00    -0.122 NA
ENDROOT
BRANCH   1   6
HETATM    6  S   UNL     1      39.841 -10.849   6.908  1.00  0.00    -0.080 SA
BRANCH   6   7
HETATM    7  C   UNL     1      41.518 -10.163   6.801  1.00  0.00     0.187 C 
BRANCH   7   8
HETATM    8  C   UNL     1      41.781  -9.269   8.001  1.00  0.00     0.245 C 
HETATM    9  N   UNL     1      41.192  -9.723   9.163  1.00  0.00    -0.267 N 
HETATM   10  H   UNL     1      40.606 -10.558   9.224  1.00  0.00     0.190 HD
HETATM   11  O   UNL     1      42.467  -8.247   7.946  1.00  0.00    -0.271 OA
BRANCH   9  12
HETATM   12  N   UNL     1      41.284  -8.974  10.341  1.00  0.00    -0.263 N 
HETATM   13  C   UNL     1      42.189  -9.427  11.286  1.00  0.00     0.270 C 
HETATM   14  O   UNL     1      42.912 -10.396  11.053  1.00  0.00    -0.266 OA
HETATM   15  H   UNL     1      40.574  -8.268  10.498  1.00  0.00     0.190 HD
BRANCH  13  16
HETATM   16  C   UNL     1      42.249  -8.726  12.602  1.00  0.00     0.033 A 
HETATM   17  C   UNL     1      43.198  -7.744  12.910  1.00  0.00     0.017 A 
HETATM   18  C   UNL     1      43.191  -7.131  14.169  1.00  0.00     0.007 A 
HETATM   19  C   UNL     1      42.241  -7.488  15.134  1.00  0.00    -0.062 A 
HETATM   20  C   UNL     1      42.245  -6.855  16.494  1.00  0.00     0.048 C 
HETATM   21  C   UNL     1      41.307  -8.483  14.831  1.00  0.00     0.007 A 
HETATM   22  C   UNL     1      41.309  -9.095  13.575  1.00  0.00     0.017 A 
ENDBRANCH  13  16
ENDBRANCH   9  12
ENDBRANCH   7   8
ENDBRANCH   6   7
ENDBRANCH   1   6
BRANCH   2  23
HETATM   23  C   UNL     1      40.771 -13.694   5.525  1.00  0.00     0.043 A 
HETATM   24  C   UNL     1      40.020 -14.733   6.094  1.00  0.00     0.033 A 
HETATM   25  C   UNL     1      40.669 -15.771   6.766  1.00  0.00     0.044 A 
HETATM   26  C   UNL     1      42.054 -15.761   6.874  1.00  0.00     0.116 A 
HETATM   27  F   UNL     1      42.674 -16.758   7.517  1.00  0.00    -0.206 F 
HETATM   28  C   UNL     1      42.808 -14.729   6.325  1.00  0.00     0.044 A 
HETATM   29  C   UNL     1      42.169 -13.688   5.648  1.00  0.00     0.033 A 
ENDBRANCH   2  23
BRANCH   3  30
HETATM   30  C   UNL     1      39.852 -13.799   2.512  1.00  0.00     0.255 C 
HETATM   31  C   UNL     1      39.731 -13.362   1.046  1.00  0.00     0.049 C 
BRANCH  30  32
HETATM   32  N   UNL     1      41.132 -14.673   2.639  1.00  0.00    -0.060 N 
HETATM   33  H   UNL     1      41.587 -14.360   3.504  1.00  0.00     0.280 HD
HETATM   34  C   UNL     1      40.888 -16.165   2.800  1.00  0.00     0.236 C 
HETATM   35  C   UNL     1      42.206 -16.847   3.148  1.00  0.00     0.028 C 
HETATM   36  C   UNL     1      43.274 -16.576   2.094  1.00  0.00     0.003 C 
HETATM   37  C   UNL     1      43.445 -15.080   1.853  1.00  0.00     0.028 C 
HETATM   38  C   UNL     1      42.119 -14.406   1.520  1.00  0.00     0.236 C 
ENDBRANCH  30  32
ENDBRANCH   3  30
TORSDOF 8
ENDMDL
MODEL 8
REMARK VINA RESULT:      -8.8      3.880      9.232
REMARK  8 active torsions:
REMARK  status: ('A' for Active; 'I' for Inactive)
REMARK    1  A    between atoms: C_5  and  C_6 
REMARK       I    between atoms: C_6  and  N_7 
REMARK    2  A    between atoms: N_7  and  N_8 
REMARK       I    between atoms: N_8  and  C_9 
REMARK    3  A    between atoms: C_9  and  C_10 
REMARK    4  A    between atoms: C_10  and  S_11 
REMARK    5  A    between atoms: S_11  and  C_12 
REMARK    6  A    between atoms: N_13  and  C_14 
REMARK    7  A    between atoms: C_21  and  C_22 
REMARK    8  A    between atoms: C_22  and  N_23 
ROOT
HETATM    1  C   UNL     1      41.464 -10.330   3.952  1.00  0.00     0.196 A 
HETATM    2  N   UNL     1      41.729 -10.396   5.307  1.00  0.00    -0.274 N 
HETATM    3  C   UNL     1      42.973 -11.027   5.375  1.00  0.00     0.166 A 
HETATM    4  N   UNL     1      43.427 -11.214   4.150  1.00  0.00    -0.131 NA
HETATM    5  N   UNL     1      42.484 -10.787   3.266  1.00  0.00    -0.122 NA
ENDROOT
BRANCH   1   6
HETATM    6  S   UNL     1      40.073  -9.597   3.228  1.00  0.00    -0.080 SA
BRANCH   6   7
HETATM    7  C   UNL     1      38.857 -10.923   3.473  1.00  0.00     0.187 C 
BRANCH   7   8
HETATM    8  C   UNL     1      39.398 -12.223   2.904  1.00  0.00     0.245 C 
HETATM    9  N   UNL     1      39.634 -13.186   3.863  1.00  0.00    -0.267 N 
HETATM   10  H   UNL     1      39.496 -13.047   4.866  1.00  0.00     0.190 HD
HETATM   11  O   UNL     1      39.591 -12.406   1.701  1.00  0.00    -0.271 OA
BRANCH   9  12
HETATM   12  N   UNL     1      40.197 -14.415   3.506  1.00  0.00    -0.263 N 
HETATM   13  C   UNL     1      41.304 -14.818   4.235  1.00  0.00     0.270 C 
HETATM   14  O   UNL     1      41.711 -14.147   5.184  1.00  0.00    -0.266 OA
HETATM   15  H   UNL     1      39.875 -14.840   2.644  1.00  0.00     0.190 HD
BRANCH  13  16
HETATM   16  C   UNL     1      42.005 -16.069   3.826  1.00  0.00     0.033 A 
HETATM   17  C   UNL     1      42.987 -16.693   4.604  1.00  0.00     0.017 A 
HETATM   18  C   UNL     1      43.602 -17.867   4.151  1.00  0.00     0.007 A 
HETATM   19  C   UNL     1      43.246 -18.433   2.922  1.00  0.00    -0.062 A 
HETATM   20  C   UNL     1      43.921 -19.675   2.418  1.00  0.00     0.048 C 
HETATM   21  C   UNL     1      42.279 -17.798   2.136  1.00  0.00     0.007 A 
HETATM   22  C   UNL     1      41.662 -16.628   2.586  1.00  0.00     0.017 A 
ENDBRANCH  13  16
ENDBRANCH   9  12
ENDBRANCH   7   8
ENDBRANCH   6   7
ENDBRANCH   1   6
BRANCH   2  23
HETATM   23  C   UNL     1      40.926  -9.963   6.391  1.00  0.00     0.043 A 
HETATM   24  C   UNL     1      41.141  -8.702   6.967  1.00  0.00     0.033 A 
HETATM   25  C   UNL     1      40.326  -8.271   8.016  1.00  0.00     0.044 A 
HETATM   26  C   UNL     1      39.315  -9.099   8.487  1.00  0.00     0.116 A 
HETATM   27  F   UNL     1      38.533  -8.683   9.491  1.00  0.00    -0.206 F 
HETATM   28  C   UNL     1      39.102 -10.356   7.932  1.00  0.00     0.044 A 
HETATM   29  C   UNL     1      39.909 -10.796   6.880  1.00  0.00     0.033 A 
ENDBRANCH   2  23
BRANCH   3  30
HETATM   30  C   UNL     1      43.643 -11.545   6.615  1.00  0.00     0.255 C 
HETATM   31  C   UNL     1      44.739 -12.572   6.303  1.00  0.00     0.049 C 
BRANCH  30  32
HETATM   32  N   UNL     1      44.267 -10.455   7.533  1.00  0.00    -0.060 N 
HETATM   33  H   UNL     1      43.980  -9.559   7.120  1.00  0.00     0.280 HD
HETATM   34  C   UNL     1      43.765 -10.446   8.968  1.00  0.00     0.236 C 
HETATM   35  C   UNL     1      44.281  -9.191   9.664  1.00  0.00     0.028 C 
HETATM   36  C   UNL     1      45.803  -9.107   9.614  1.00  0.00     0.003 C 
HETATM   37  C   UNL     1      46.316  -9.224   8.183  1.00  0.00     0.028 C 
HETATM   38  C   UNL     1      45.783 -10.474   7.492  1.00  0.00     0.236 C 
ENDBRANCH  30  32
ENDBRANCH   3  30
TORSDOF 8
ENDMDL
MODEL 9
REMARK VINA RESULT:      -8.7      3.306     10.730
REMARK  8 active torsions:
REMARK  status: ('A' for Active; 'I' for Inactive)
REMARK    1  A    between atoms: C_5  and  C_6 
REMARK       I    between atoms: C_6  and  N_7 
REMARK    2  A    between atoms: N_7  and  N_8 
REMARK       I    between atoms: N_8  and  C_9 
REMARK    3  A    between atoms: C_9  and  C_10 
REMARK    4  A    between atoms: C_10  and  S_11 
REMARK    5  A    between atoms: S_11  and  C_12 
REMARK    6  A    between atoms: N_13  and  C_14 
REMARK    7  A    between atoms: C_21  and  C_22 
REMARK    8  A    between atoms: C_22  and  N_23 
ROOT
HETATM    1  C   UNL     1      43.618 -10.129   9.659  1.00  0.00     0.196 A 
HETATM    2  N   UNL     1      42.659  -9.219  10.063  1.00  0.00    -0.274 N 
HETATM    3  C   UNL     1      42.380  -9.589  11.380  1.00  0.00     0.166 A 
HETATM    4  N   UNL     1      43.190 -10.569  11.732  1.00  0.00    -0.131 NA
HETATM    5  N   UNL     1      43.954 -10.910  10.658  1.00  0.00    -0.122 NA
ENDROOT
BRANCH   1   6
HETATM    6  S   UNL     1      44.407 -10.151   8.118  1.00  0.00    -0.080 SA
BRANCH   6   7
HETATM    7  C   UNL     1      43.165 -11.048   7.143  1.00  0.00     0.187 C 
BRANCH   7   8
HETATM    8  C   UNL     1      43.757 -12.353   6.640  1.00  0.00     0.245 C 
HETATM    9  N   UNL     1      42.807 -13.257   6.213  1.00  0.00    -0.267 N 
HETATM   10  H   UNL     1      41.799 -13.097   6.254  1.00  0.00     0.190 HD
HETATM   11  O   UNL     1      44.968 -12.576   6.601  1.00  0.00    -0.271 OA
BRANCH   9  12
HETATM   12  N   UNL     1      43.188 -14.533   5.784  1.00  0.00    -0.263 N 
HETATM   13  C   UNL     1      42.866 -14.863   4.478  1.00  0.00     0.270 C 
HETATM   14  O   UNL     1      42.334 -14.039   3.733  1.00  0.00    -0.266 OA
HETATM   15  H   UNL     1      43.511 -15.183   6.492  1.00  0.00     0.190 HD
BRANCH  13  16
HETATM   16  C   UNL     1      43.155 -16.247   4.005  1.00  0.00     0.033 A 
HETATM   17  C   UNL     1      43.956 -17.152   4.711  1.00  0.00     0.017 A 
HETATM   18  C   UNL     1      44.182 -18.437   4.201  1.00  0.00     0.007 A 
HETATM   19  C   UNL     1      43.614 -18.835   2.986  1.00  0.00    -0.062 A 
HETATM   20  C   UNL     1      43.875 -20.200   2.421  1.00  0.00     0.048 C 
HETATM   21  C   UNL     1      42.829 -17.924   2.273  1.00  0.00     0.007 A 
HETATM   22  C   UNL     1      42.600 -16.642   2.779  1.00  0.00     0.017 A 
ENDBRANCH  13  16
ENDBRANCH   9  12
ENDBRANCH   7   8
ENDBRANCH   6   7
ENDBRANCH   1   6
BRANCH   2  23
HETATM   23  C   UNL     1      42.061  -8.171   9.320  1.00  0.00     0.043 A 
HETATM   24  C   UNL     1      40.952  -8.432   8.502  1.00  0.00     0.033 A 
HETATM   25  C   UNL     1      40.351  -7.387   7.796  1.00  0.00     0.044 A 
HETATM   26  C   UNL     1      40.862  -6.100   7.903  1.00  0.00     0.116 A 
HETATM   27  F   UNL     1      40.283  -5.100   7.227  1.00  0.00    -0.206 F 
HETATM   28  C   UNL     1      41.969  -5.833   8.702  1.00  0.00     0.044 A 
HETATM   29  C   UNL     1      42.576  -6.870   9.415  1.00  0.00     0.033 A 
ENDBRANCH   2  23
BRANCH   3  30
HETATM   30  C   UNL     1      41.256  -9.071  12.232  1.00  0.00     0.255 C 
HETATM   31  C   UNL     1      40.574 -10.182  13.040  1.00  0.00     0.049 C 
BRANCH  30  32
HETATM   32  N   UNL     1      41.649  -7.940  13.225  1.00  0.00    -0.060 N 
HETATM   33  H   UNL     1      42.664  -7.828  13.119  1.00  0.00     0.280 HD
HETATM   34  C   UNL     1      41.037  -6.578  12.936  1.00  0.00     0.236 C 
HETATM   35  C   UNL     1      41.695  -5.539  13.837  1.00  0.00     0.028 C 
HETATM   36  C   UNL     1      41.553  -5.904  15.311  1.00  0.00     0.003 C 
HETATM   37  C   UNL     1      42.070  -7.312  15.584  1.00  0.00     0.028 C 
HETATM   38  C   UNL     1      41.416  -8.341  14.669  1.00  0.00     0.236 C 
ENDBRANCH  30  32
ENDBRANCH   3  30
TORSDOF 8
ENDMDL
MODEL 10
REMARK VINA RESULT:      -8.6      3.887     11.081
REMARK  8 active torsions:
REMARK  status: ('A' for Active; 'I' for Inactive)
REMARK    1  A    between atoms: C_5  and  C_6 
REMARK       I    between atoms: C_6  and  N_7 
REMARK    2  A    between atoms: N_7  and  N_8 
REMARK       I    between atoms: N_8  and  C_9 
REMARK    3  A    between atoms: C_9  and  C_10 
REMARK    4  A    between atoms: C_10  and  S_11 
REMARK    5  A    between atoms: S_11  and  C_12 
REMARK    6  A    between atoms: N_13  and  C_14 
REMARK    7  A    between atoms: C_21  and  C_22 
REMARK    8  A    between atoms: C_22  and  N_23 
ROOT
HETATM    1  C   UNL     1      43.575  -8.672   9.036  1.00  0.00     0.196 A 
HETATM    2  N   UNL     1      42.724  -8.187  10.011  1.00  0.00    -0.274 N 
HETATM    3  C   UNL     1      42.837  -6.800   9.895  1.00  0.00     0.166 A 
HETATM    4  N   UNL     1      43.614  -6.517   8.867  1.00  0.00    -0.131 NA
HETATM    5  N   UNL     1      44.079  -7.682   8.339  1.00  0.00    -0.122 NA
ENDROOT
BRANCH   1   6
HETATM    6  S   UNL     1      43.827 -10.341   8.651  1.00  0.00    -0.080 SA
BRANCH   6   7
HETATM    7  C   UNL     1      42.919 -10.441   7.083  1.00  0.00     0.187 C 
BRANCH   7   8
HETATM    8  C   UNL     1      43.469 -11.583   6.246  1.00  0.00     0.245 C 
HETATM    9  N   UNL     1      42.909 -12.806   6.551  1.00  0.00    -0.267 N 
HETATM   10  H   UNL     1      42.215 -12.956   7.286  1.00  0.00     0.190 HD
HETATM   11  O   UNL     1      44.321 -11.430   5.369  1.00  0.00    -0.271 OA
BRANCH   9  12
HETATM   12  N   UNL     1      43.359 -13.967   5.915  1.00  0.00    -0.263 N 
HETATM   13  C   UNL     1      42.459 -14.592   5.069  1.00  0.00     0.270 C 
HETATM   14  O   UNL     1      41.352 -14.098   4.851  1.00  0.00    -0.266 OA
HETATM   15  H   UNL     1      44.233 -14.366   6.241  1.00  0.00     0.190 HD
BRANCH  13  16
HETATM   16  C   UNL     1      42.852 -15.891   4.449  1.00  0.00     0.033 A 
HETATM   17  C   UNL     1      43.613 -16.862   5.110  1.00  0.00     0.017 A 
HETATM   18  C   UNL     1      43.943 -18.058   4.461  1.00  0.00     0.007 A 
HETATM   19  C   UNL     1      43.519 -18.302   3.149  1.00  0.00    -0.062 A 
HETATM   20  C   UNL     1      43.893 -19.569   2.438  1.00  0.00     0.048 C 
HETATM   21  C   UNL     1      42.775 -17.323   2.484  1.00  0.00     0.007 A 
HETATM   22  C   UNL     1      42.442 -16.129   3.129  1.00  0.00     0.017 A 
ENDBRANCH  13  16
ENDBRANCH   9  12
ENDBRANCH   7   8
ENDBRANCH   6   7
ENDBRANCH   1   6
BRANCH   2  23
HETATM   23  C   UNL     1      41.939  -8.910  10.943  1.00  0.00     0.043 A 
HETATM   24  C   UNL     1      42.449  -9.204  12.216  1.00  0.00     0.033 A 
HETATM   25  C   UNL     1      41.657  -9.892  13.139  1.00  0.00     0.044 A 
HETATM   26  C   UNL     1      40.373 -10.287  12.785  1.00  0.00     0.116 A 
HETATM   27  F   UNL     1      39.616 -10.943  13.671  1.00  0.00    -0.206 F 
HETATM   28  C   UNL     1      39.862 -10.011  11.521  1.00  0.00     0.044 A 
HETATM   29  C   UNL     1      40.644  -9.321  10.592  1.00  0.00     0.033 A 
ENDBRANCH   2  23
BRANCH   3  30
HETATM   30  C   UNL     1      42.291  -5.779  10.852  1.00  0.00     0.255 C 
HETATM   31  C   UNL     1      42.778  -4.359  10.534  1.00  0.00     0.049 C 
BRANCH  30  32
HETATM   32  N   UNL     1      40.739  -5.733  10.953  1.00  0.00    -0.060 N 
HETATM   33  H   UNL     1      40.406  -6.464  10.314  1.00  0.00     0.280 HD
HETATM   34  C   UNL     1      40.166  -6.067  12.321  1.00  0.00     0.236 C 
HETATM   35  C   UNL     1      38.653  -6.213  12.201  1.00  0.00     0.028 C 
HETATM   36  C   UNL     1      38.011  -4.953  11.628  1.00  0.00     0.003 C 
HETATM   37  C   UNL     1      38.659  -4.555  10.306  1.00  0.00     0.028 C 
HETATM   38  C   UNL     1      40.172  -4.426  10.435  1.00  0.00     0.236 C 
ENDBRANCH  30  32
ENDBRANCH   3  30
TORSDOF 8
ENDMDL
