MODEL 1
REMARK VINA RESULT:      -8.2      0.000      0.000
REMARK  7 active torsions:
REMARK  status: ('A' for Active; 'I' for Inactive)
REMARK    1  A    between atoms: O_2  and  C_3 
REMARK    2  A    between atoms: C_4  and  C_5 
REMARK    3  A    between atoms: C_5  and  N_6 
REMARK    4  A    between atoms: C_5  and  C_12 
REMARK    5  A    between atoms: C_12  and  N_13 
REMARK       I    between atoms: N_13  and  C_14 
REMARK       I    between atoms: C_14  and  N_15 
REMARK    6  A    between atoms: N_15  and  C_16 
REMARK    7  A    between atoms: C_17  and  O_18 
ROOT
HETATM    1  N   UNL     1      39.526 -14.953   2.282  1.00  0.00    -0.341 N 
HETATM    2  C   UNL     1      40.196 -14.680   1.129  1.00  0.00     0.316 C 
HETATM    3  N   UNL     1      39.538 -13.812   0.320  1.00  0.00    -0.332 N 
HETATM    4  O   UNL     1      41.287 -15.180   0.879  1.00  0.00    -0.247 OA
HETATM    5  H   UNL     1      38.635 -14.490   2.419  1.00  0.00     0.164 HD
HETATM    6  H   UNL     1      38.533 -13.748   0.414  1.00  0.00     0.165 HD
ENDROOT
BRANCH   1   7
HETATM    7  C   UNL     1      39.875 -16.053   3.179  1.00  0.00     0.162 C 
BRANCH   7   8
HETATM    8  C   UNL     1      40.823 -15.692   4.371  1.00  0.00     0.241 C 
BRANCH   8   9
HETATM    9  C   UNL     1      42.053 -16.597   4.423  1.00  0.00     0.007 A 
HETATM   10  C   UNL     1      42.688 -16.879   5.652  1.00  0.00     0.076 A 
HETATM   11  C   UNL     1      43.842 -17.671   5.680  1.00  0.00     0.037 A 
HETATM   12  C   UNL     1      44.355 -18.218   4.505  1.00  0.00     0.003 A 
HETATM   13  C   UNL     1      43.716 -17.987   3.294  1.00  0.00     0.001 A 
HETATM   14  C   UNL     1      42.574 -17.189   3.254  1.00  0.00     0.012 A 
BRANCH  10  15
HETATM   15  O   UNL     1      42.118 -16.326   6.770  1.00  0.00    -0.355 OA
HETATM   16  C   UNL     1      43.006 -15.881   7.795  1.00  0.00     0.210 C 
ENDBRANCH  10  15
ENDBRANCH   8   9
BRANCH   8  17
HETATM   17  N   UNL     1      41.136 -14.191   4.390  1.00  0.00    -0.061 N 
HETATM   18  H   UNL     1      40.571 -13.800   3.609  1.00  0.00     0.280 HD
HETATM   19  C   UNL     1      42.538 -13.728   4.088  1.00  0.00     0.236 C 
HETATM   20  C   UNL     1      43.016 -13.107   5.383  1.00  0.00     0.029 C 
HETATM   21  C   UNL     1      41.760 -12.440   5.906  1.00  0.00     0.029 C 
HETATM   22  C   UNL     1      40.683 -13.476   5.644  1.00  0.00     0.236 C 
ENDBRANCH   8  17
ENDBRANCH   7   8
ENDBRANCH   1   7
BRANCH   3  23
HETATM   23  C   UNL     1      40.011 -13.565  -1.034  1.00  0.00     0.149 C 
HETATM   24  C   UNL     1      38.892 -13.753  -2.107  1.00  0.00     0.149 C 
HETATM   25  C   UNL     1      39.161 -12.718  -3.213  1.00  0.00     0.073 C 
HETATM   26  C   UNL     1      39.918 -11.656  -2.472  1.00  0.00    -0.047 A 
HETATM   27  C   UNL     1      40.404 -12.130  -1.248  1.00  0.00    -0.026 A 
HETATM   28  C   UNL     1      40.193 -10.368  -2.904  1.00  0.00     0.008 A 
HETATM   29  C   UNL     1      41.187 -11.321  -0.437  1.00  0.00     0.010 A 
HETATM   30  C   UNL     1      41.461 -10.019  -0.860  1.00  0.00     0.001 A 
HETATM   31  C   UNL     1      40.964  -9.545  -2.084  1.00  0.00     0.001 A 
BRANCH  24  32
HETATM   32  O   UNL     1      37.586 -13.511  -1.553  1.00  0.00    -0.393 OA
HETATM   33  H   UNL     1      37.669 -13.606  -0.590  1.00  0.00     0.210 HD
ENDBRANCH  24  32
ENDBRANCH   3  23
TORSDOF 7
ENDMDL
MODEL 2
REMARK VINA RESULT:      -8.1      2.345      8.127
REMARK  7 active torsions:
REMARK  status: ('A' for Active; 'I' for Inactive)
REMARK    1  A    between atoms: O_2  and  C_3 
REMARK    2  A    between atoms: C_4  and  C_5 
REMARK    3  A    between atoms: C_5  and  N_6 
REMARK    4  A    between atoms: C_5  and  C_12 
REMARK    5  A    between atoms: C_12  and  N_13 
REMARK       I    between atoms: N_13  and  C_14 
REMARK       I    between atoms: C_14  and  N_15 
REMARK    6  A    between atoms: N_15  and  C_16 
REMARK    7  A    between atoms: C_17  and  O_18 
ROOT
HETATM    1  N   UNL     1      41.405 -14.632   1.479  1.00  0.00    -0.341 N 
HETATM    2  C   UNL     1      42.580 -15.112   1.968  1.00  0.00     0.316 C 
HETATM    3  N   UNL     1      42.431 -16.236   2.714  1.00  0.00    -0.332 N 
HETATM    4  O   UNL     1      43.653 -14.566   1.734  1.00  0.00    -0.247 OA
HETATM    5  H   UNL     1      40.564 -15.148   1.708  1.00  0.00     0.164 HD
HETATM    6  H   UNL     1      41.533 -16.396   3.152  1.00  0.00     0.165 HD
ENDROOT
BRANCH   1   7
HETATM    7  C   UNL     1      41.257 -13.301   0.893  1.00  0.00     0.162 C 
BRANCH   7   8
HETATM    8  C   UNL     1      39.787 -12.824   0.639  1.00  0.00     0.241 C 
BRANCH   8   9
HETATM    9  C   UNL     1      39.395 -11.659   1.546  1.00  0.00     0.007 A 
HETATM   10  C   UNL     1      39.197 -11.859   2.930  1.00  0.00     0.076 A 
HETATM   11  C   UNL     1      38.792 -10.794   3.742  1.00  0.00     0.037 A 
HETATM   12  C   UNL     1      38.614  -9.520   3.204  1.00  0.00     0.003 A 
HETATM   13  C   UNL     1      38.848  -9.297   1.854  1.00  0.00     0.001 A 
HETATM   14  C   UNL     1      39.240 -10.354   1.034  1.00  0.00     0.012 A 
BRANCH  10  15
HETATM   15  O   UNL     1      39.409 -13.131   3.394  1.00  0.00    -0.355 OA
HETATM   16  C   UNL     1      40.173 -13.262   4.593  1.00  0.00     0.210 C 
ENDBRANCH  10  15
ENDBRANCH   8   9
BRANCH   8  17
HETATM   17  N   UNL     1      39.537 -12.580  -0.854  1.00  0.00    -0.061 N 
HETATM   18  H   UNL     1      38.938 -11.730  -0.880  1.00  0.00     0.280 HD
HETATM   19  C   UNL     1      38.755 -13.596  -1.646  1.00  0.00     0.236 C 
HETATM   20  C   UNL     1      39.753 -14.145  -2.642  1.00  0.00     0.029 C 
HETATM   21  C   UNL     1      40.571 -12.918  -2.992  1.00  0.00     0.029 C 
HETATM   22  C   UNL     1      40.783 -12.248  -1.648  1.00  0.00     0.236 C 
ENDBRANCH   8  17
ENDBRANCH   7   8
ENDBRANCH   1   7
BRANCH   3  23
HETATM   23  C   UNL     1      43.550 -16.769   3.476  1.00  0.00     0.149 C 
HETATM   24  C   UNL     1      43.413 -16.513   5.009  1.00  0.00     0.149 C 
HETATM   25  C   UNL     1      44.030 -17.731   5.719  1.00  0.00     0.073 C 
HETATM   26  C   UNL     1      43.879 -18.806   4.684  1.00  0.00    -0.047 A 
HETATM   27  C   UNL     1      43.616 -18.269   3.419  1.00  0.00    -0.026 A 
HETATM   28  C   UNL     1      44.027 -20.171   4.869  1.00  0.00     0.008 A 
HETATM   29  C   UNL     1      43.506 -19.095   2.309  1.00  0.00     0.010 A 
HETATM   30  C   UNL     1      43.643 -20.474   2.488  1.00  0.00     0.001 A 
HETATM   31  C   UNL     1      43.899 -21.007   3.760  1.00  0.00     0.001 A 
BRANCH  24  32
HETATM   32  O   UNL     1      42.032 -16.398   5.402  1.00  0.00    -0.393 OA
HETATM   33  H   UNL     1      41.943 -16.868   6.246  1.00  0.00     0.210 HD
ENDBRANCH  24  32
ENDBRANCH   3  23
TORSDOF 7
ENDMDL
MODEL 3
REMARK VINA RESULT:      -8.1      1.991      8.254
REMARK  7 active torsions:
REMARK  status: ('A' for Active; 'I' for Inactive)
REMARK    1  A    between atoms: O_2  and  C_3 
REMARK    2  A    between atoms: C_4  and  C_5 
REMARK    3  A    between atoms: C_5  and  N_6 
REMARK    4  A    between atoms: C_5  and  C_12 
REMARK    5  A    between atoms: C_12  and  N_13 
REMARK       I    between atoms: N_13  and  C_14 
REMARK       I    between atoms: C_14  and  N_15 
REMARK    6  A    between atoms: N_15  and  C_16 
REMARK    7  A    between atoms: C_17  and  O_18 
ROOT
HETATM    1  N   UNL     1      40.357 -14.548   1.471  1.00  0.00    -0.341 N 
HETATM    2  C   UNL     1      41.651 -14.802   1.808  1.00  0.00     0.316 C 
HETATM    3  N   UNL     1      41.834 -16.039   2.335  1.00  0.00    -0.332 N 
HETATM    4  O   UNL     1      42.541 -13.977   1.633  1.00  0.00    -0.247 OA
HETATM    5  H   UNL     1      39.683 -15.287   1.636  1.00  0.00     0.164 HD
HETATM    6  H   UNL     1      41.042 -16.487   2.774  1.00  0.00     0.165 HD
ENDROOT
BRANCH   1   7
HETATM    7  C   UNL     1      39.851 -13.214   1.153  1.00  0.00     0.162 C 
BRANCH   7   8
HETATM    8  C   UNL     1      40.214 -12.663  -0.267  1.00  0.00     0.241 C 
BRANCH   8   9
HETATM    9  C   UNL     1      39.331 -13.261  -1.360  1.00  0.00     0.007 A 
HETATM   10  C   UNL     1      38.023 -12.774  -1.577  1.00  0.00     0.076 A 
HETATM   11  C   UNL     1      37.207 -13.362  -2.548  1.00  0.00     0.037 A 
HETATM   12  C   UNL     1      37.684 -14.409  -3.336  1.00  0.00     0.003 A 
HETATM   13  C   UNL     1      38.982 -14.870  -3.166  1.00  0.00     0.001 A 
HETATM   14  C   UNL     1      39.800 -14.299  -2.192  1.00  0.00     0.012 A 
BRANCH  10  15
HETATM   15  O   UNL     1      37.627 -11.729  -0.781  1.00  0.00    -0.355 OA
HETATM   16  C   UNL     1      36.913 -10.668  -1.415  1.00  0.00     0.210 C 
ENDBRANCH  10  15
ENDBRANCH   8   9
BRANCH   8  17
HETATM   17  N   UNL     1      40.275 -11.131  -0.264  1.00  0.00    -0.061 N 
HETATM   18  H   UNL     1      39.287 -10.834  -0.128  1.00  0.00     0.280 HD
HETATM   19  C   UNL     1      40.699 -10.408  -1.516  1.00  0.00     0.236 C 
HETATM   20  C   UNL     1      42.002  -9.739  -1.140  1.00  0.00     0.029 C 
HETATM   21  C   UNL     1      41.755  -9.329   0.297  1.00  0.00     0.029 C 
HETATM   22  C   UNL     1      41.059 -10.541   0.888  1.00  0.00     0.236 C 
ENDBRANCH   8  17
ENDBRANCH   7   8
ENDBRANCH   1   7
BRANCH   3  23
HETATM   23  C   UNL     1      43.110 -16.403   2.931  1.00  0.00     0.149 C 
HETATM   24  C   UNL     1      43.215 -15.988   4.432  1.00  0.00     0.149 C 
HETATM   25  C   UNL     1      44.051 -17.073   5.135  1.00  0.00     0.073 C 
HETATM   26  C   UNL     1      43.821 -18.265   4.254  1.00  0.00    -0.047 A 
HETATM   27  C   UNL     1      43.299 -17.892   3.010  1.00  0.00    -0.026 A 
HETATM   28  C   UNL     1      44.119 -19.587   4.541  1.00  0.00     0.008 A 
HETATM   29  C   UNL     1      43.074 -18.843   2.024  1.00  0.00     0.010 A 
HETATM   30  C   UNL     1      43.362 -20.180   2.309  1.00  0.00     0.001 A 
HETATM   31  C   UNL     1      43.878 -20.549   3.561  1.00  0.00     0.001 A 
BRANCH  24  32
HETATM   32  O   UNL     1      41.918 -15.927   5.053  1.00  0.00    -0.393 OA
HETATM   33  H   UNL     1      41.593 -15.020   4.933  1.00  0.00     0.210 HD
ENDBRANCH  24  32
ENDBRANCH   3  23
TORSDOF 7
ENDMDL
MODEL 4
REMARK VINA RESULT:      -8.0      3.775      7.492
REMARK  7 active torsions:
REMARK  status: ('A' for Active; 'I' for Inactive)
REMARK    1  A    between atoms: O_2  and  C_3 
REMARK    2  A    between atoms: C_4  and  C_5 
REMARK    3  A    between atoms: C_5  and  N_6 
REMARK    4  A    between atoms: C_5  and  C_12 
REMARK    5  A    between atoms: C_12  and  N_13 
REMARK       I    between atoms: N_13  and  C_14 
REMARK       I    between atoms: C_14  and  N_15 
REMARK    6  A    between atoms: N_15  and  C_16 
REMARK    7  A    between atoms: C_17  and  O_18 
ROOT
HETATM    1  N   UNL     1      43.806 -12.867   6.168  1.00  0.00    -0.341 N 
HETATM    2  C   UNL     1      43.053 -13.980   5.959  1.00  0.00     0.316 C 
HETATM    3  N   UNL     1      43.123 -14.443   4.685  1.00  0.00    -0.332 N 
HETATM    4  O   UNL     1      42.393 -14.496   6.854  1.00  0.00    -0.247 OA
HETATM    5  H   UNL     1      44.332 -12.510   5.379  1.00  0.00     0.164 HD
HETATM    6  H   UNL     1      43.367 -13.785   3.956  1.00  0.00     0.165 HD
ENDROOT
BRANCH   1   7
HETATM    7  C   UNL     1      43.686 -12.021   7.354  1.00  0.00     0.162 C 
BRANCH   7   8
HETATM    8  C   UNL     1      43.448 -10.496   7.087  1.00  0.00     0.241 C 
BRANCH   8   9
HETATM    9  C   UNL     1      42.083 -10.229   6.454  1.00  0.00     0.007 A 
HETATM   10  C   UNL     1      41.927 -10.229   5.051  1.00  0.00     0.076 A 
HETATM   11  C   UNL     1      40.682  -9.935   4.483  1.00  0.00     0.037 A 
HETATM   12  C   UNL     1      39.577  -9.676   5.293  1.00  0.00     0.003 A 
HETATM   13  C   UNL     1      39.704  -9.716   6.675  1.00  0.00     0.001 A 
HETATM   14  C   UNL     1      40.943  -9.995   7.250  1.00  0.00     0.012 A 
BRANCH  10  15
HETATM   15  O   UNL     1      43.050 -10.512   4.317  1.00  0.00    -0.355 OA
HETATM   16  C   UNL     1      42.854 -11.169   3.064  1.00  0.00     0.210 C 
ENDBRANCH  10  15
ENDBRANCH   8   9
BRANCH   8  17
HETATM   17  N   UNL     1      43.742  -9.665   8.341  1.00  0.00    -0.061 N 
HETATM   18  H   UNL     1      42.928  -9.023   8.422  1.00  0.00     0.280 HD
HETATM   19  C   UNL     1      44.932  -8.740   8.349  1.00  0.00     0.236 C 
HETATM   20  C   UNL     1      45.853  -9.322   9.399  1.00  0.00     0.029 C 
HETATM   21  C   UNL     1      44.878  -9.816  10.448  1.00  0.00     0.029 C 
HETATM   22  C   UNL     1      43.783 -10.466   9.624  1.00  0.00     0.236 C 
ENDBRANCH   8  17
ENDBRANCH   7   8
ENDBRANCH   1   7
BRANCH   3  23
HETATM   23  C   UNL     1      42.232 -15.502   4.236  1.00  0.00     0.149 C 
HETATM   24  C   UNL     1      41.568 -15.187   2.858  1.00  0.00     0.149 C 
HETATM   25  C   UNL     1      41.425 -16.529   2.119  1.00  0.00     0.073 C 
HETATM   26  C   UNL     1      42.514 -17.349   2.744  1.00  0.00    -0.047 A 
HETATM   27  C   UNL     1      42.966 -16.779   3.939  1.00  0.00    -0.026 A 
HETATM   28  C   UNL     1      43.019 -18.557   2.288  1.00  0.00     0.008 A 
HETATM   29  C   UNL     1      43.929 -17.418   4.708  1.00  0.00     0.010 A 
HETATM   30  C   UNL     1      44.450 -18.630   4.251  1.00  0.00     0.001 A 
HETATM   31  C   UNL     1      43.999 -19.194   3.047  1.00  0.00     0.001 A 
BRANCH  24  32
HETATM   32  O   UNL     1      42.390 -14.307   2.067  1.00  0.00    -0.393 OA
HETATM   33  H   UNL     1      42.637 -14.800   1.269  1.00  0.00     0.210 HD
ENDBRANCH  24  32
ENDBRANCH   3  23
TORSDOF 7
ENDMDL
MODEL 5
REMARK VINA RESULT:      -8.0      2.976      6.754
REMARK  7 active torsions:
REMARK  status: ('A' for Active; 'I' for Inactive)
REMARK    1  A    between atoms: O_2  and  C_3 
REMARK    2  A    between atoms: C_4  and  C_5 
REMARK    3  A    between atoms: C_5  and  N_6 
REMARK    4  A    between atoms: C_5  and  C_12 
REMARK    5  A    between atoms: C_12  and  N_13 
REMARK       I    between atoms: N_13  and  C_14 
REMARK       I    between atoms: C_14  and  N_15 
REMARK    6  A    between atoms: N_15  and  C_16 
REMARK    7  A    between atoms: C_17  and  O_18 
ROOT
HETATM    1  N   UNL     1      41.558 -14.258   5.808  1.00  0.00    -0.341 N 
HETATM    2  C   UNL     1      42.120 -13.055   5.514  1.00  0.00     0.316 C 
HETATM    3  N   UNL     1      42.192 -12.221   6.582  1.00  0.00    -0.332 N 
HETATM    4  O   UNL     1      42.520 -12.783   4.387  1.00  0.00    -0.247 OA
HETATM    5  H   UNL     1      41.264 -14.409   6.767  1.00  0.00     0.164 HD
HETATM    6  H   UNL     1      41.535 -12.363   7.337  1.00  0.00     0.165 HD
ENDROOT
BRANCH   1   7
HETATM    7  C   UNL     1      41.112 -15.212   4.795  1.00  0.00     0.162 C 
BRANCH   7   8
HETATM    8  C   UNL     1      42.012 -15.327   3.518  1.00  0.00     0.241 C 
BRANCH   8   9
HETATM    9  C   UNL     1      42.701 -16.687   3.420  1.00  0.00     0.007 A 
HETATM   10  C   UNL     1      43.682 -17.067   4.361  1.00  0.00     0.076 A 
HETATM   11  C   UNL     1      44.340 -18.296   4.233  1.00  0.00     0.037 A 
HETATM   12  C   UNL     1      44.011 -19.171   3.199  1.00  0.00     0.003 A 
HETATM   13  C   UNL     1      43.017 -18.831   2.291  1.00  0.00     0.001 A 
HETATM   14  C   UNL     1      42.364 -17.604   2.403  1.00  0.00     0.012 A 
BRANCH  10  15
HETATM   15  O   UNL     1      43.940 -16.167   5.363  1.00  0.00    -0.355 OA
HETATM   16  C   UNL     1      44.169 -16.701   6.668  1.00  0.00     0.210 C 
ENDBRANCH  10  15
ENDBRANCH   8   9
BRANCH   8  17
HETATM   17  N   UNL     1      41.239 -14.913   2.261  1.00  0.00    -0.061 N 
HETATM   18  H   UNL     1      41.066 -15.807   1.758  1.00  0.00     0.280 HD
HETATM   19  C   UNL     1      41.917 -14.045   1.232  1.00  0.00     0.236 C 
HETATM   20  C   UNL     1      41.137 -12.749   1.260  1.00  0.00     0.029 C 
HETATM   21  C   UNL     1      39.718 -13.229   1.483  1.00  0.00     0.029 C 
HETATM   22  C   UNL     1      39.879 -14.309   2.536  1.00  0.00     0.236 C 
ENDBRANCH   8  17
ENDBRANCH   7   8
ENDBRANCH   1   7
BRANCH   3  23
HETATM   23  C   UNL     1      42.580 -10.830   6.406  1.00  0.00     0.149 C 
HETATM   24  C   UNL     1      41.483  -9.832   6.892  1.00  0.00     0.149 C 
HETATM   25  C   UNL     1      42.219  -8.612   7.473  1.00  0.00     0.073 C 
HETATM   26  C   UNL     1      43.537  -9.204   7.876  1.00  0.00    -0.047 A 
HETATM   27  C   UNL     1      43.748 -10.449   7.272  1.00  0.00    -0.026 A 
HETATM   28  C   UNL     1      44.501  -8.627   8.687  1.00  0.00     0.008 A 
HETATM   29  C   UNL     1      44.939 -11.136   7.464  1.00  0.00     0.010 A 
HETATM   30  C   UNL     1      45.911 -10.566   8.289  1.00  0.00     0.001 A 
HETATM   31  C   UNL     1      45.691  -9.321   8.899  1.00  0.00     0.001 A 
BRANCH  24  32
HETATM   32  O   UNL     1      40.663 -10.413   7.923  1.00  0.00    -0.393 OA
HETATM   33  H   UNL     1      40.709 -11.375   7.807  1.00  0.00     0.210 HD
ENDBRANCH  24  32
ENDBRANCH   3  23
TORSDOF 7
ENDMDL
MODEL 6
REMARK VINA RESULT:      -7.8      4.598      8.889
REMARK  7 active torsions:
REMARK  status: ('A' for Active; 'I' for Inactive)
REMARK    1  A    between atoms: O_2  and  C_3 
REMARK    2  A    between atoms: C_4  and  C_5 
REMARK    3  A    between atoms: C_5  and  N_6 
REMARK    4  A    between atoms: C_5  and  C_12 
REMARK    5  A    between atoms: C_12  and  N_13 
REMARK       I    between atoms: N_13  and  C_14 
REMARK       I    between atoms: C_14  and  N_15 
REMARK    6  A    between atoms: N_15  and  C_16 
REMARK    7  A    between atoms: C_17  and  O_18 
ROOT
HETATM    1  N   UNL     1      43.418 -12.654   7.522  1.00  0.00    -0.341 N 
HETATM    2  C   UNL     1      44.159 -11.610   7.984  1.00  0.00     0.316 C 
HETATM    3  N   UNL     1      43.470 -10.792   8.819  1.00  0.00    -0.332 N 
HETATM    4  O   UNL     1      45.332 -11.455   7.664  1.00  0.00    -0.247 OA
HETATM    5  H   UNL     1      42.459 -12.718   7.843  1.00  0.00     0.164 HD
HETATM    6  H   UNL     1      42.462 -10.772   8.735  1.00  0.00     0.165 HD
ENDROOT
BRANCH   1   7
HETATM    7  C   UNL     1      43.828 -13.505   6.407  1.00  0.00     0.162 C 
BRANCH   7   8
HETATM    8  C   UNL     1      42.985 -13.368   5.094  1.00  0.00     0.241 C 
BRANCH   8   9
HETATM    9  C   UNL     1      43.028 -14.639   4.247  1.00  0.00     0.007 A 
HETATM   10  C   UNL     1      42.881 -14.575   2.845  1.00  0.00     0.076 A 
HETATM   11  C   UNL     1      42.873 -15.751   2.085  1.00  0.00     0.037 A 
HETATM   12  C   UNL     1      43.046 -16.991   2.698  1.00  0.00     0.003 A 
HETATM   13  C   UNL     1      43.236 -17.068   4.071  1.00  0.00     0.001 A 
HETATM   14  C   UNL     1      43.233 -15.903   4.838  1.00  0.00     0.012 A 
BRANCH  10  15
HETATM   15  O   UNL     1      42.736 -13.322   2.307  1.00  0.00    -0.355 OA
HETATM   16  C   UNL     1      41.775 -13.175   1.262  1.00  0.00     0.210 C 
ENDBRANCH  10  15
ENDBRANCH   8   9
BRANCH   8  17
HETATM   17  N   UNL     1      41.574 -12.852   5.398  1.00  0.00    -0.061 N 
HETATM   18  H   UNL     1      41.559 -12.733   6.431  1.00  0.00     0.280 HD
HETATM   19  C   UNL     1      40.389 -13.742   5.121  1.00  0.00     0.236 C 
HETATM   20  C   UNL     1      39.631 -13.027   4.023  1.00  0.00     0.029 C 
HETATM   21  C   UNL     1      39.808 -11.570   4.401  1.00  0.00     0.029 C 
HETATM   22  C   UNL     1      41.267 -11.492   4.807  1.00  0.00     0.236 C 
ENDBRANCH   8  17
ENDBRANCH   7   8
ENDBRANCH   1   7
BRANCH   3  23
HETATM   23  C   UNL     1      44.041  -9.524   9.246  1.00  0.00     0.149 C 
HETATM   24  C   UNL     1      43.652  -8.340   8.306  1.00  0.00     0.149 C 
HETATM   25  C   UNL     1      43.511  -7.094   9.199  1.00  0.00     0.073 C 
HETATM   26  C   UNL     1      43.185  -7.698  10.532  1.00  0.00    -0.047 A 
HETATM   27  C   UNL     1      43.489  -9.065  10.566  1.00  0.00    -0.026 A 
HETATM   28  C   UNL     1      42.701  -7.042  11.652  1.00  0.00     0.008 A 
HETATM   29  C   UNL     1      43.321  -9.798  11.732  1.00  0.00     0.010 A 
HETATM   30  C   UNL     1      42.823  -9.146  12.863  1.00  0.00     0.001 A 
HETATM   31  C   UNL     1      42.513  -7.778  12.822  1.00  0.00     0.001 A 
BRANCH  24  32
HETATM   32  O   UNL     1      42.394  -8.583   7.648  1.00  0.00    -0.393 OA
HETATM   33  H   UNL     1      42.543  -8.434   6.700  1.00  0.00     0.210 HD
ENDBRANCH  24  32
ENDBRANCH   3  23
TORSDOF 7
ENDMDL
MODEL 7
REMARK VINA RESULT:      -7.8      2.172      2.261
REMARK  7 active torsions:
REMARK  status: ('A' for Active; 'I' for Inactive)
REMARK    1  A    between atoms: O_2  and  C_3 
REMARK    2  A    between atoms: C_4  and  C_5 
REMARK    3  A    between atoms: C_5  and  N_6 
REMARK    4  A    between atoms: C_5  and  C_12 
REMARK    5  A    between atoms: C_12  and  N_13 
REMARK       I    between atoms: N_13  and  C_14 
REMARK       I    between atoms: C_14  and  N_15 
REMARK    6  A    between atoms: N_15  and  C_16 
REMARK    7  A    between atoms: C_17  and  O_18 
ROOT
HETATM    1  N   UNL     1      39.441 -14.688   1.962  1.00  0.00    -0.341 N 
HETATM    2  C   UNL     1      39.719 -13.625   1.160  1.00  0.00     0.316 C 
HETATM    3  N   UNL     1      38.609 -12.975   0.728  1.00  0.00    -0.332 N 
HETATM    4  O   UNL     1      40.869 -13.305   0.880  1.00  0.00    -0.247 OA
HETATM    5  H   UNL     1      38.465 -14.879   2.155  1.00  0.00     0.164 HD
HETATM    6  H   UNL     1      37.742 -13.495   0.691  1.00  0.00     0.165 HD
ENDROOT
BRANCH   1   7
HETATM    7  C   UNL     1      40.425 -15.707   2.324  1.00  0.00     0.162 C 
BRANCH   7   8
HETATM    8  C   UNL     1      41.106 -15.537   3.724  1.00  0.00     0.241 C 
BRANCH   8   9
HETATM    9  C   UNL     1      42.206 -16.570   3.959  1.00  0.00     0.007 A 
HETATM   10  C   UNL     1      42.563 -16.957   5.269  1.00  0.00     0.076 A 
HETATM   11  C   UNL     1      43.604 -17.869   5.473  1.00  0.00     0.037 A 
HETATM   12  C   UNL     1      44.276 -18.432   4.388  1.00  0.00     0.003 A 
HETATM   13  C   UNL     1      43.907 -18.096   3.092  1.00  0.00     0.001 A 
HETATM   14  C   UNL     1      42.879 -17.178   2.879  1.00  0.00     0.012 A 
BRANCH  10  15
HETATM   15  O   UNL     1      41.847 -16.380   6.287  1.00  0.00    -0.355 OA
HETATM   16  C   UNL     1      42.569 -16.041   7.471  1.00  0.00     0.210 C 
ENDBRANCH  10  15
ENDBRANCH   8   9
BRANCH   8  17
HETATM   17  N   UNL     1      41.538 -14.084   3.952  1.00  0.00    -0.061 N 
HETATM   18  H   UNL     1      41.173 -13.572   3.123  1.00  0.00     0.280 HD
HETATM   19  C   UNL     1      43.007 -13.746   3.965  1.00  0.00     0.236 C 
HETATM   20  C   UNL     1      43.274 -13.287   5.382  1.00  0.00     0.029 C 
HETATM   21  C   UNL     1      42.003 -12.538   5.727  1.00  0.00     0.029 C 
HETATM   22  C   UNL     1      40.912 -13.430   5.166  1.00  0.00     0.236 C 
ENDBRANCH   8  17
ENDBRANCH   7   8
ENDBRANCH   1   7
BRANCH   3  23
HETATM   23  C   UNL     1      38.710 -11.943  -0.292  1.00  0.00     0.149 C 
HETATM   24  C   UNL     1      38.707 -12.524  -1.741  1.00  0.00     0.149 C 
HETATM   25  C   UNL     1      37.968 -11.505  -2.626  1.00  0.00     0.073 C 
HETATM   26  C   UNL     1      37.086 -10.809  -1.633  1.00  0.00    -0.047 A 
HETATM   27  C   UNL     1      37.504 -11.047  -0.318  1.00  0.00    -0.026 A 
HETATM   28  C   UNL     1      36.015  -9.973  -1.906  1.00  0.00     0.008 A 
HETATM   29  C   UNL     1      36.858 -10.439   0.750  1.00  0.00     0.010 A 
HETATM   30  C   UNL     1      35.771  -9.603   0.484  1.00  0.00     0.001 A 
HETATM   31  C   UNL     1      35.351  -9.375  -0.835  1.00  0.00     0.001 A 
BRANCH  24  32
HETATM   32  O   UNL     1      38.010 -13.783  -1.801  1.00  0.00    -0.393 OA
HETATM   33  H   UNL     1      38.641 -14.435  -2.144  1.00  0.00     0.210 HD
ENDBRANCH  24  32
ENDBRANCH   3  23
TORSDOF 7
ENDMDL
MODEL 8
REMARK VINA RESULT:      -7.7      1.899      8.377
REMARK  7 active torsions:
REMARK  status: ('A' for Active; 'I' for Inactive)
REMARK    1  A    between atoms: O_2  and  C_3 
REMARK    2  A    between atoms: C_4  and  C_5 
REMARK    3  A    between atoms: C_5  and  N_6 
REMARK    4  A    between atoms: C_5  and  C_12 
REMARK    5  A    between atoms: C_12  and  N_13 
REMARK       I    between atoms: N_13  and  C_14 
REMARK       I    between atoms: C_14  and  N_15 
REMARK    6  A    between atoms: N_15  and  C_16 
REMARK    7  A    between atoms: C_17  and  O_18 
ROOT
HETATM    1  N   UNL     1      39.049 -13.507   2.663  1.00  0.00    -0.341 N 
HETATM    2  C   UNL     1      40.270 -13.712   3.229  1.00  0.00     0.316 C 
HETATM    3  N   UNL     1      40.267 -14.694   4.165  1.00  0.00    -0.332 N 
HETATM    4  O   UNL     1      41.256 -13.064   2.897  1.00  0.00    -0.247 OA
HETATM    5  H   UNL     1      38.287 -14.092   2.983  1.00  0.00     0.164 HD
HETATM    6  H   UNL     1      39.392 -14.904   4.627  1.00  0.00     0.165 HD
ENDROOT
BRANCH   1   7
HETATM    7  C   UNL     1      38.723 -12.339   1.847  1.00  0.00     0.162 C 
BRANCH   7   8
HETATM    8  C   UNL     1      39.320 -12.325   0.399  1.00  0.00     0.241 C 
BRANCH   8   9
HETATM    9  C   UNL     1      38.279 -11.936  -0.649  1.00  0.00     0.007 A 
HETATM   10  C   UNL     1      37.960 -12.813  -1.709  1.00  0.00     0.076 A 
HETATM   11  C   UNL     1      37.040 -12.424  -2.689  1.00  0.00     0.037 A 
HETATM   12  C   UNL     1      36.403 -11.187  -2.613  1.00  0.00     0.003 A 
HETATM   13  C   UNL     1      36.672 -10.331  -1.553  1.00  0.00     0.001 A 
HETATM   14  C   UNL     1      37.596 -10.704  -0.577  1.00  0.00     0.012 A 
BRANCH  10  15
HETATM   15  O   UNL     1      38.609 -14.021  -1.711  1.00  0.00    -0.355 OA
HETATM   16  C   UNL     1      39.260 -14.402  -2.923  1.00  0.00     0.210 C 
ENDBRANCH  10  15
ENDBRANCH   8   9
BRANCH   8  17
HETATM   17  N   UNL     1      40.615 -11.507   0.345  1.00  0.00    -0.061 N 
HETATM   18  H   UNL     1      41.322 -12.112   0.809  1.00  0.00     0.280 HD
HETATM   19  C   UNL     1      40.697 -10.209   1.106  1.00  0.00     0.236 C 
HETATM   20  C   UNL     1      40.838  -9.152   0.032  1.00  0.00     0.029 C 
HETATM   21  C   UNL     1      41.711  -9.846  -0.994  1.00  0.00     0.029 C 
HETATM   22  C   UNL     1      41.129 -11.246  -1.054  1.00  0.00     0.236 C 
ENDBRANCH   8  17
ENDBRANCH   7   8
ENDBRANCH   1   7
BRANCH   3  23
HETATM   23  C   UNL     1      41.433 -14.911   5.008  1.00  0.00     0.149 C 
HETATM   24  C   UNL     1      41.056 -15.313   6.468  1.00  0.00     0.149 C 
HETATM   25  C   UNL     1      42.137 -16.296   6.951  1.00  0.00     0.073 C 
HETATM   26  C   UNL     1      42.634 -16.874   5.659  1.00  0.00    -0.047 A 
HETATM   27  C   UNL     1      42.246 -16.094   4.563  1.00  0.00    -0.026 A 
HETATM   28  C   UNL     1      43.429 -17.997   5.496  1.00  0.00     0.008 A 
HETATM   29  C   UNL     1      42.660 -16.423   3.280  1.00  0.00     0.010 A 
HETATM   30  C   UNL     1      43.454 -17.559   3.105  1.00  0.00     0.001 A 
HETATM   31  C   UNL     1      43.832 -18.342   4.206  1.00  0.00     0.001 A 
BRANCH  24  32
HETATM   32  O   UNL     1      39.776 -15.970   6.519  1.00  0.00    -0.393 OA
HETATM   33  H   UNL     1      39.347 -15.810   5.663  1.00  0.00     0.210 HD
ENDBRANCH  24  32
ENDBRANCH   3  23
TORSDOF 7
ENDMDL
MODEL 9
REMARK VINA RESULT:      -7.7      2.126      8.281
REMARK  7 active torsions:
REMARK  status: ('A' for Active; 'I' for Inactive)
REMARK    1  A    between atoms: O_2  and  C_3 
REMARK    2  A    between atoms: C_4  and  C_5 
REMARK    3  A    between atoms: C_5  and  N_6 
REMARK    4  A    between atoms: C_5  and  C_12 
REMARK    5  A    between atoms: C_12  and  N_13 
REMARK       I    between atoms: N_13  and  C_14 
REMARK       I    between atoms: C_14  and  N_15 
REMARK    6  A    between atoms: N_15  and  C_16 
REMARK    7  A    between atoms: C_17  and  O_18 
ROOT
HETATM    1  N   UNL     1      40.936 -15.313   1.372  1.00  0.00    -0.341 N 
HETATM    2  C   UNL     1      42.112 -15.858   1.787  1.00  0.00     0.316 C 
HETATM    3  N   UNL     1      42.049 -16.379   3.037  1.00  0.00    -0.332 N 
HETATM    4  O   UNL     1      43.110 -15.868   1.074  1.00  0.00    -0.247 OA
HETATM    5  H   UNL     1      40.155 -15.356   2.016  1.00  0.00     0.164 HD
HETATM    6  H   UNL     1      41.347 -16.014   3.667  1.00  0.00     0.165 HD
ENDROOT
BRANCH   1   7
HETATM    7  C   UNL     1      40.814 -14.449   0.199  1.00  0.00     0.162 C 
BRANCH   7   8
HETATM    8  C   UNL     1      40.525 -12.937   0.489  1.00  0.00     0.241 C 
BRANCH   8   9
HETATM    9  C   UNL     1      39.610 -12.314  -0.564  1.00  0.00     0.007 A 
HETATM   10  C   UNL     1      39.691 -10.937  -0.866  1.00  0.00     0.076 A 
HETATM   11  C   UNL     1      38.815 -10.370  -1.798  1.00  0.00     0.037 A 
HETATM   12  C   UNL     1      37.879 -11.159  -2.464  1.00  0.00     0.003 A 
HETATM   13  C   UNL     1      37.816 -12.523  -2.211  1.00  0.00     0.001 A 
HETATM   14  C   UNL     1      38.676 -13.097  -1.275  1.00  0.00     0.012 A 
BRANCH  10  15
HETATM   15  O   UNL     1      40.648 -10.225  -0.189  1.00  0.00    -0.355 OA
HETATM   16  C   UNL     1      41.734  -9.709  -0.959  1.00  0.00     0.210 C 
ENDBRANCH  10  15
ENDBRANCH   8   9
BRANCH   8  17
HETATM   17  N   UNL     1      40.061 -12.733   1.936  1.00  0.00    -0.061 N 
HETATM   18  H   UNL     1      40.065 -13.689   2.345  1.00  0.00     0.280 HD
HETATM   19  C   UNL     1      38.664 -12.234   2.198  1.00  0.00     0.236 C 
HETATM   20  C   UNL     1      38.863 -10.876   2.834  1.00  0.00     0.029 C 
HETATM   21  C   UNL     1      40.096 -11.093   3.686  1.00  0.00     0.029 C 
HETATM   22  C   UNL     1      41.004 -11.904   2.781  1.00  0.00     0.236 C 
ENDBRANCH   8  17
ENDBRANCH   7   8
ENDBRANCH   1   7
BRANCH   3  23
HETATM   23  C   UNL     1      43.260 -16.821   3.713  1.00  0.00     0.149 C 
HETATM   24  C   UNL     1      43.197 -16.616   5.259  1.00  0.00     0.149 C 
HETATM   25  C   UNL     1      43.969 -17.786   5.893  1.00  0.00     0.073 C 
HETATM   26  C   UNL     1      43.854 -18.846   4.839  1.00  0.00    -0.047 A 
HETATM   27  C   UNL     1      43.462 -18.307   3.608  1.00  0.00    -0.026 A 
HETATM   28  C   UNL     1      44.140 -20.195   4.973  1.00  0.00     0.008 A 
HETATM   29  C   UNL     1      43.359 -19.114   2.483  1.00  0.00     0.010 A 
HETATM   30  C   UNL     1      43.636 -20.476   2.612  1.00  0.00     0.001 A 
HETATM   31  C   UNL     1      44.020 -21.013   3.851  1.00  0.00     0.001 A 
BRANCH  24  32
HETATM   32  O   UNL     1      41.839 -16.642   5.738  1.00  0.00    -0.393 OA
HETATM   33  H   UNL     1      41.511 -15.729   5.695  1.00  0.00     0.210 HD
ENDBRANCH  24  32
ENDBRANCH   3  23
TORSDOF 7
ENDMDL
MODEL 10
REMARK VINA RESULT:      -7.5      2.046      7.331
REMARK  7 active torsions:
REMARK  status: ('A' for Active; 'I' for Inactive)
REMARK    1  A    between atoms: O_2  and  C_3 
REMARK    2  A    between atoms: C_4  and  C_5 
REMARK    3  A    between atoms: C_5  and  N_6 
REMARK    4  A    between atoms: C_5  and  C_12 
REMARK    5  A    between atoms: C_12  and  N_13 
REMARK       I    between atoms: N_13  and  C_14 
REMARK       I    between atoms: C_14  and  N_15 
REMARK    6  A    between atoms: N_15  and  C_16 
REMARK    7  A    between atoms: C_17  and  O_18 
ROOT
HETATM    1  N   UNL     1      40.416 -14.781   1.980  1.00  0.00    -0.341 N 
HETATM    2  C   UNL     1      41.666 -15.303   2.098  1.00  0.00     0.316 C 
HETATM    3  N   UNL     1      41.809 -16.113   3.177  1.00  0.00    -0.332 N 
HETATM    4  O   UNL     1      42.553 -15.054   1.289  1.00  0.00    -0.247 OA
HETATM    5  H   UNL     1      39.736 -15.045   2.684  1.00  0.00     0.164 HD
HETATM    6  H   UNL     1      41.184 -15.972   3.960  1.00  0.00     0.165 HD
ENDROOT
BRANCH   1   7
HETATM    7  C   UNL     1      40.082 -13.675   1.084  1.00  0.00     0.162 C 
BRANCH   7   8
HETATM    8  C   UNL     1      40.007 -12.257   1.744  1.00  0.00     0.241 C 
BRANCH   8   9
HETATM    9  C   UNL     1      40.235 -12.312   3.254  1.00  0.00     0.007 A 
HETATM   10  C   UNL     1      41.541 -12.250   3.788  1.00  0.00     0.076 A 
HETATM   11  C   UNL     1      41.740 -12.350   5.169  1.00  0.00     0.037 A 
HETATM   12  C   UNL     1      40.654 -12.475   6.035  1.00  0.00     0.003 A 
HETATM   13  C   UNL     1      39.361 -12.493   5.529  1.00  0.00     0.001 A 
HETATM   14  C   UNL     1      39.153 -12.406   4.153  1.00  0.00     0.012 A 
BRANCH  10  15
HETATM   15  O   UNL     1      42.560 -12.105   2.881  1.00  0.00    -0.355 OA
HETATM   16  C   UNL     1      43.847 -11.776   3.403  1.00  0.00     0.210 C 
ENDBRANCH  10  15
ENDBRANCH   8   9
BRANCH   8  17
HETATM   17  N   UNL     1      40.900 -11.256   1.001  1.00  0.00    -0.061 N 
HETATM   18  H   UNL     1      41.825 -11.339   1.469  1.00  0.00     0.280 HD
HETATM   19  C   UNL     1      40.584  -9.785   1.085  1.00  0.00     0.236 C 
HETATM   20  C   UNL     1      40.212  -9.399  -0.331  1.00  0.00     0.029 C 
HETATM   21  C   UNL     1      41.162 -10.243  -1.157  1.00  0.00     0.029 C 
HETATM   22  C   UNL     1      41.128 -11.588  -0.457  1.00  0.00     0.236 C 
ENDBRANCH   8  17
ENDBRANCH   7   8
ENDBRANCH   1   7
BRANCH   3  23
HETATM   23  C   UNL     1      43.125 -16.596   3.567  1.00  0.00     0.149 C 
HETATM   24  C   UNL     1      43.369 -16.505   5.106  1.00  0.00     0.149 C 
HETATM   25  C   UNL     1      44.242 -17.713   5.489  1.00  0.00     0.073 C 
HETATM   26  C   UNL     1      43.913 -18.694   4.403  1.00  0.00    -0.047 A 
HETATM   27  C   UNL     1      43.290 -18.068   3.316  1.00  0.00    -0.026 A 
HETATM   28  C   UNL     1      44.208 -20.047   4.379  1.00  0.00     0.008 A 
HETATM   29  C   UNL     1      42.962 -18.791   2.177  1.00  0.00     0.010 A 
HETATM   30  C   UNL     1      43.248 -20.157   2.149  1.00  0.00     0.001 A 
HETATM   31  C   UNL     1      43.864 -20.781   3.245  1.00  0.00     0.001 A 
BRANCH  24  32
HETATM   32  O   UNL     1      42.132 -16.575   5.840  1.00  0.00    -0.393 OA
HETATM   33  H   UNL     1      42.183 -15.900   6.536  1.00  0.00     0.210 HD
ENDBRANCH  24  32
ENDBRANCH   3  23
TORSDOF 7
ENDMDL
