MODEL 1
REMARK VINA RESULT:      -8.9      0.000      0.000
REMARK  6 active torsions:
REMARK  status: ('A' for Active; 'I' for Inactive)
REMARK    1  A    between atoms: O_2  and  C_3 
REMARK    2  A    between atoms: C_6  and  N_7 
REMARK       I    between atoms: N_7  and  C_8 
REMARK    3  A    between atoms: C_8  and  C_9 
REMARK    4  A    between atoms: C_12  and  N_13 
REMARK       I    between atoms: N_13  and  C_14 
REMARK    5  A    between atoms: C_14  and  C_15 
REMARK       I    between atoms: N_18  and  C_19 
REMARK    6  A    between atoms: C_19  and  C_20 
ROOT
HETATM    1  C   UNL     1      41.746  -7.884  14.909  1.00  0.00     0.032 A 
HETATM    2  C   UNL     1      41.394  -8.943  14.066  1.00  0.00     0.019 A 
HETATM    3  C   UNL     1      42.131  -9.196  12.903  1.00  0.00     0.030 A 
HETATM    4  C   UNL     1      43.221  -8.394  12.561  1.00  0.00     0.034 A 
HETATM    5  C   UNL     1      43.575  -7.338  13.413  1.00  0.00     0.030 A 
HETATM    6  C   UNL     1      42.840  -7.079  14.575  1.00  0.00     0.019 A 
ENDROOT
BRANCH   4   7
HETATM    7  N   UNL     1      43.976  -8.551  11.379  1.00  0.00    -0.327 N 
HETATM    8  C   UNL     1      44.402  -9.737  10.806  1.00  0.00     0.226 C 
HETATM    9  O   UNL     1      44.281 -10.855  11.296  1.00  0.00    -0.273 OA
HETATM   10  H   UNL     1      44.224  -7.694  10.900  1.00  0.00     0.169 HD
BRANCH   8  11
HETATM   11  C   UNL     1      45.093  -9.530   9.452  1.00  0.00     0.081 C 
HETATM   12  C   UNL     1      45.136 -10.825   8.626  1.00  0.00     0.034 C 
HETATM   13  C   UNL     1      43.776 -11.189   8.031  1.00  0.00     0.127 C 
HETATM   14  N   UNL     1      43.194 -10.065   7.293  1.00  0.00    -0.347 N 
HETATM   15  C   UNL     1      42.212 -10.272   6.301  1.00  0.00     0.260 C 
HETATM   16  C   UNL     1      43.091  -8.825   8.054  1.00  0.00     0.127 C 
HETATM   17  O   UNL     1      41.306  -9.453   6.139  1.00  0.00    -0.267 OA
HETATM   18  C   UNL     1      44.442  -8.409   8.632  1.00  0.00     0.034 C 
BRANCH  15  19
HETATM   19  C   UNL     1      42.351 -11.445   5.448  1.00  0.00     0.072 A 
HETATM   20  S   UNL     1      41.248 -12.745   5.630  1.00  0.00    -0.097 SA
HETATM   21  C   UNL     1      41.989 -13.637   4.372  1.00  0.00     0.050 A 
HETATM   22  C   UNL     1      43.039 -12.954   3.803  1.00  0.00     0.009 A 
HETATM   23  C   UNL     1      43.239 -11.681   4.413  1.00  0.00     0.025 A 
ENDBRANCH  15  19
ENDBRANCH   8  11
ENDBRANCH   4   7
BRANCH   1  24
HETATM   24  C   UNL     1      40.926  -7.530  16.104  1.00  0.00     0.256 C 
HETATM   25  N   UNL     1      41.541  -7.754  17.322  1.00  0.00    -0.323 N 
HETATM   26  H   UNL     1      42.539  -7.921  17.314  1.00  0.00     0.169 HD
HETATM   27  O   UNL     1      39.806  -7.071  15.924  1.00  0.00    -0.267 OA
BRANCH  25  28
HETATM   28  C   UNL     1      40.926  -7.779  18.591  1.00  0.00     0.035 A 
HETATM   29  C   UNL     1      41.357  -7.016  19.677  1.00  0.00     0.032 A 
HETATM   30  C   UNL     1      40.644  -7.021  20.884  1.00  0.00     0.039 A 
HETATM   31  C   UNL     1      39.490  -7.791  21.016  1.00  0.00     0.068 A 
HETATM   32  C   UNL     1      39.076  -8.581  19.943  1.00  0.00     0.039 A 
HETATM   33  C   UNL     1      39.783  -8.571  18.736  1.00  0.00     0.032 A 
BRANCH  31  34
HETATM   34  O   UNL     1      38.696  -7.860  22.126  1.00  0.00    -0.356 OA
HETATM   35  C   UNL     1      39.266  -8.484  23.271  1.00  0.00     0.210 C 
ENDBRANCH  31  34
ENDBRANCH  25  28
ENDBRANCH   1  24
TORSDOF 6
ENDMDL
MODEL 2
REMARK VINA RESULT:      -8.9      4.677     12.594
REMARK  6 active torsions:
REMARK  status: ('A' for Active; 'I' for Inactive)
REMARK    1  A    between atoms: O_2  and  C_3 
REMARK    2  A    between atoms: C_6  and  N_7 
REMARK       I    between atoms: N_7  and  C_8 
REMARK    3  A    between atoms: C_8  and  C_9 
REMARK    4  A    between atoms: C_12  and  N_13 
REMARK       I    between atoms: N_13  and  C_14 
REMARK    5  A    between atoms: C_14  and  C_15 
REMARK       I    between atoms: N_18  and  C_19 
REMARK    6  A    between atoms: C_19  and  C_20 
ROOT
HETATM    1  C   UNL     1      43.313 -12.609   5.577  1.00  0.00     0.032 A 
HETATM    2  C   UNL     1      42.283 -11.706   5.860  1.00  0.00     0.019 A 
HETATM    3  C   UNL     1      42.419 -10.783   6.904  1.00  0.00     0.030 A 
HETATM    4  C   UNL     1      43.575 -10.755   7.684  1.00  0.00     0.034 A 
HETATM    5  C   UNL     1      44.607 -11.657   7.393  1.00  0.00     0.030 A 
HETATM    6  C   UNL     1      44.476 -12.583   6.352  1.00  0.00     0.019 A 
ENDROOT
BRANCH   4   7
HETATM    7  N   UNL     1      43.762  -9.894   8.787  1.00  0.00    -0.327 N 
HETATM    8  C   UNL     1      43.555  -8.526   8.830  1.00  0.00     0.226 C 
HETATM    9  O   UNL     1      43.274  -7.813   7.872  1.00  0.00    -0.273 OA
HETATM   10  H   UNL     1      44.076 -10.338   9.641  1.00  0.00     0.169 HD
BRANCH   8  11
HETATM   11  C   UNL     1      43.738  -7.939  10.236  1.00  0.00     0.081 C 
HETATM   12  C   UNL     1      42.732  -6.813  10.522  1.00  0.00     0.034 C 
HETATM   13  C   UNL     1      41.319  -7.338  10.776  1.00  0.00     0.127 C 
HETATM   14  N   UNL     1      41.309  -8.382  11.803  1.00  0.00    -0.347 N 
HETATM   15  C   UNL     1      40.135  -8.686  12.525  1.00  0.00     0.260 C 
HETATM   16  C   UNL     1      42.217  -9.494  11.549  1.00  0.00     0.127 C 
HETATM   17  O   UNL     1      39.897  -9.843  12.870  1.00  0.00    -0.267 OA
HETATM   18  C   UNL     1      43.648  -9.011  11.330  1.00  0.00     0.034 C 
BRANCH  15  19
HETATM   19  C   UNL     1      39.262  -7.578  12.892  1.00  0.00     0.072 A 
HETATM   20  S   UNL     1      39.716  -6.549  14.186  1.00  0.00    -0.097 SA
HETATM   21  C   UNL     1      38.322  -5.578  13.992  1.00  0.00     0.050 A 
HETATM   22  C   UNL     1      37.535  -6.006  12.948  1.00  0.00     0.009 A 
HETATM   23  C   UNL     1      38.084  -7.152  12.302  1.00  0.00     0.025 A 
ENDBRANCH  15  19
ENDBRANCH   8  11
ENDBRANCH   4   7
BRANCH   1  24
HETATM   24  C   UNL     1      43.162 -13.665   4.534  1.00  0.00     0.256 C 
HETATM   25  N   UNL     1      42.978 -14.946   5.020  1.00  0.00    -0.323 N 
HETATM   26  H   UNL     1      42.744 -15.041   6.000  1.00  0.00     0.169 HD
HETATM   27  O   UNL     1      43.200 -13.327   3.358  1.00  0.00    -0.267 OA
BRANCH  25  28
HETATM   28  C   UNL     1      43.084 -16.151   4.296  1.00  0.00     0.035 A 
HETATM   29  C   UNL     1      42.514 -16.354   3.038  1.00  0.00     0.032 A 
HETATM   30  C   UNL     1      42.735 -17.546   2.336  1.00  0.00     0.039 A 
HETATM   31  C   UNL     1      43.532 -18.550   2.886  1.00  0.00     0.068 A 
HETATM   32  C   UNL     1      44.074 -18.364   4.157  1.00  0.00     0.039 A 
HETATM   33  C   UNL     1      43.859 -17.171   4.856  1.00  0.00     0.032 A 
BRANCH  31  34
HETATM   34  O   UNL     1      43.843 -19.741   2.291  1.00  0.00    -0.356 OA
HETATM   35  C   UNL     1      43.867 -20.882   3.142  1.00  0.00     0.210 C 
ENDBRANCH  31  34
ENDBRANCH  25  28
ENDBRANCH   1  24
TORSDOF 6
ENDMDL
MODEL 3
REMARK VINA RESULT:      -8.5      3.904     11.667
REMARK  6 active torsions:
REMARK  status: ('A' for Active; 'I' for Inactive)
REMARK    1  A    between atoms: O_2  and  C_3 
REMARK    2  A    between atoms: C_6  and  N_7 
REMARK       I    between atoms: N_7  and  C_8 
REMARK    3  A    between atoms: C_8  and  C_9 
REMARK    4  A    between atoms: C_12  and  N_13 
REMARK       I    between atoms: N_13  and  C_14 
REMARK    5  A    between atoms: C_14  and  C_15 
REMARK       I    between atoms: N_18  and  C_19 
REMARK    6  A    between atoms: C_19  and  C_20 
ROOT
HETATM    1  C   UNL     1      44.125 -10.686   8.676  1.00  0.00     0.032 A 
HETATM    2  C   UNL     1      45.146 -10.414   9.593  1.00  0.00     0.019 A 
HETATM    3  C   UNL     1      44.927  -9.524  10.651  1.00  0.00     0.030 A 
HETATM    4  C   UNL     1      43.694  -8.887  10.803  1.00  0.00     0.034 A 
HETATM    5  C   UNL     1      42.672  -9.168   9.887  1.00  0.00     0.030 A 
HETATM    6  C   UNL     1      42.887 -10.055   8.826  1.00  0.00     0.019 A 
ENDROOT
BRANCH   4   7
HETATM    7  N   UNL     1      43.416  -7.937  11.809  1.00  0.00    -0.327 N 
HETATM    8  C   UNL     1      42.911  -8.176  13.076  1.00  0.00     0.226 C 
HETATM    9  O   UNL     1      42.518  -9.259  13.498  1.00  0.00    -0.273 OA
HETATM   10  H   UNL     1      43.618  -6.974  11.569  1.00  0.00     0.169 HD
BRANCH   8  11
HETATM   11  C   UNL     1      42.857  -6.913  13.944  1.00  0.00     0.081 C 
HETATM   12  C   UNL     1      42.322  -5.703  13.162  1.00  0.00     0.034 C 
HETATM   13  C   UNL     1      40.813  -5.774  12.929  1.00  0.00     0.127 C 
HETATM   14  N   UNL     1      40.087  -6.007  14.180  1.00  0.00    -0.347 N 
HETATM   15  C   UNL     1      38.724  -5.663  14.309  1.00  0.00     0.260 C 
HETATM   16  C   UNL     1      40.532  -7.173  14.934  1.00  0.00     0.127 C 
HETATM   17  O   UNL     1      37.968  -6.352  14.993  1.00  0.00    -0.267 OA
HETATM   18  C   UNL     1      42.030  -7.117  15.220  1.00  0.00     0.034 C 
BRANCH  15  19
HETATM   19  C   UNL     1      38.273  -4.439  13.659  1.00  0.00     0.072 A 
HETATM   20  S   UNL     1      37.148  -4.543  12.370  1.00  0.00    -0.097 SA
HETATM   21  C   UNL     1      37.103  -2.844  12.182  1.00  0.00     0.050 A 
HETATM   22  C   UNL     1      37.906  -2.201  13.096  1.00  0.00     0.009 A 
HETATM   23  C   UNL     1      38.570  -3.121  13.960  1.00  0.00     0.025 A 
ENDBRANCH  15  19
ENDBRANCH   8  11
ENDBRANCH   4   7
BRANCH   1  24
HETATM   24  C   UNL     1      44.355 -11.555   7.486  1.00  0.00     0.256 C 
HETATM   25  N   UNL     1      43.308 -12.400   7.167  1.00  0.00    -0.323 N 
HETATM   26  H   UNL     1      42.415 -12.217   7.606  1.00  0.00     0.169 HD
HETATM   27  O   UNL     1      45.420 -11.453   6.889  1.00  0.00    -0.267 OA
BRANCH  25  28
HETATM   28  C   UNL     1      43.344 -13.504   6.291  1.00  0.00     0.035 A 
HETATM   29  C   UNL     1      43.719 -14.791   6.680  1.00  0.00     0.032 A 
HETATM   30  C   UNL     1      43.645 -15.862   5.778  1.00  0.00     0.039 A 
HETATM   31  C   UNL     1      43.193 -15.655   4.476  1.00  0.00     0.068 A 
HETATM   32  C   UNL     1      42.851 -14.364   4.075  1.00  0.00     0.039 A 
HETATM   33  C   UNL     1      42.918 -13.296   4.976  1.00  0.00     0.032 A 
BRANCH  31  34
HETATM   34  O   UNL     1      43.051 -16.617   3.515  1.00  0.00    -0.356 OA
HETATM   35  C   UNL     1      43.654 -17.876   3.790  1.00  0.00     0.210 C 
ENDBRANCH  31  34
ENDBRANCH  25  28
ENDBRANCH   1  24
TORSDOF 6
ENDMDL
MODEL 4
REMARK VINA RESULT:      -8.4      2.521      3.629
REMARK  6 active torsions:
REMARK  status: ('A' for Active; 'I' for Inactive)
REMARK    1  A    between atoms: O_2  and  C_3 
REMARK    2  A    between atoms: C_6  and  N_7 
REMARK       I    between atoms: N_7  and  C_8 
REMARK    3  A    between atoms: C_8  and  C_9 
REMARK    4  A    between atoms: C_12  and  N_13 
REMARK       I    between atoms: N_13  and  C_14 
REMARK    5  A    between atoms: C_14  and  C_15 
REMARK       I    between atoms: N_18  and  C_19 
REMARK    6  A    between atoms: C_19  and  C_20 
ROOT
HETATM    1  C   UNL     1      41.759  -8.558  12.378  1.00  0.00     0.032 A 
HETATM    2  C   UNL     1      43.130  -8.431  12.128  1.00  0.00     0.019 A 
HETATM    3  C   UNL     1      43.651  -8.743  10.867  1.00  0.00     0.030 A 
HETATM    4  C   UNL     1      42.816  -9.193   9.842  1.00  0.00     0.034 A 
HETATM    5  C   UNL     1      41.442  -9.311  10.094  1.00  0.00     0.030 A 
HETATM    6  C   UNL     1      40.917  -9.003  11.354  1.00  0.00     0.019 A 
ENDROOT
BRANCH   4   7
HETATM    7  N   UNL     1      43.274  -9.580   8.565  1.00  0.00    -0.327 N 
HETATM    8  C   UNL     1      44.217 -10.550   8.269  1.00  0.00     0.226 C 
HETATM    9  O   UNL     1      44.894 -11.165   9.086  1.00  0.00    -0.273 OA
HETATM   10  H   UNL     1      42.856  -9.092   7.783  1.00  0.00     0.169 HD
BRANCH   8  11
HETATM   11  C   UNL     1      44.372 -10.789   6.761  1.00  0.00     0.081 C 
HETATM   12  C   UNL     1      44.996 -12.161   6.460  1.00  0.00     0.034 C 
HETATM   13  C   UNL     1      44.016 -13.314   6.681  1.00  0.00     0.127 C 
HETATM   14  N   UNL     1      42.757 -13.094   5.966  1.00  0.00    -0.347 N 
HETATM   15  C   UNL     1      41.906 -14.170   5.637  1.00  0.00     0.260 C 
HETATM   16  C   UNL     1      42.106 -11.822   6.257  1.00  0.00     0.127 C 
HETATM   17  O   UNL     1      40.683 -14.024   5.645  1.00  0.00    -0.267 OA
HETATM   18  C   UNL     1      43.043 -10.643   6.009  1.00  0.00     0.034 C 
BRANCH  15  19
HETATM   19  C   UNL     1      42.529 -15.424   5.232  1.00  0.00     0.072 A 
HETATM   20  S   UNL     1      42.611 -16.717   6.354  1.00  0.00    -0.097 SA
HETATM   21  C   UNL     1      43.381 -17.741   5.221  1.00  0.00     0.050 A 
HETATM   22  C   UNL     1      43.552 -17.126   4.001  1.00  0.00     0.009 A 
HETATM   23  C   UNL     1      43.046 -15.793   4.002  1.00  0.00     0.025 A 
ENDBRANCH  15  19
ENDBRANCH   8  11
ENDBRANCH   4   7
BRANCH   1  24
HETATM   24  C   UNL     1      41.187  -8.324  13.735  1.00  0.00     0.256 C 
HETATM   25  N   UNL     1      41.219  -7.010  14.165  1.00  0.00    -0.323 N 
HETATM   26  H   UNL     1      41.413  -6.300  13.471  1.00  0.00     0.169 HD
HETATM   27  O   UNL     1      40.733  -9.282  14.347  1.00  0.00    -0.267 OA
BRANCH  25  28
HETATM   28  C   UNL     1      41.013  -6.542  15.479  1.00  0.00     0.035 A 
HETATM   29  C   UNL     1      39.791  -6.056  15.947  1.00  0.00     0.032 A 
HETATM   30  C   UNL     1      39.633  -5.692  17.291  1.00  0.00     0.039 A 
HETATM   31  C   UNL     1      40.699  -5.810  18.182  1.00  0.00     0.068 A 
HETATM   32  C   UNL     1      41.930  -6.262  17.710  1.00  0.00     0.039 A 
HETATM   33  C   UNL     1      42.087  -6.633  16.370  1.00  0.00     0.032 A 
BRANCH  31  34
HETATM   34  O   UNL     1      40.663  -5.514  19.516  1.00  0.00    -0.356 OA
HETATM   35  C   UNL     1      41.885  -5.069  20.095  1.00  0.00     0.210 C 
ENDBRANCH  31  34
ENDBRANCH  25  28
ENDBRANCH   1  24
TORSDOF 6
ENDMDL
MODEL 5
REMARK VINA RESULT:      -8.2     13.127     15.240
REMARK  6 active torsions:
REMARK  status: ('A' for Active; 'I' for Inactive)
REMARK    1  A    between atoms: O_2  and  C_3 
REMARK    2  A    between atoms: C_6  and  N_7 
REMARK       I    between atoms: N_7  and  C_8 
REMARK    3  A    between atoms: C_8  and  C_9 
REMARK    4  A    between atoms: C_12  and  N_13 
REMARK       I    between atoms: N_13  and  C_14 
REMARK    5  A    between atoms: C_14  and  C_15 
REMARK       I    between atoms: N_18  and  C_19 
REMARK    6  A    between atoms: C_19  and  C_20 
ROOT
HETATM    1  C   UNL     1      40.663 -14.342   1.257  1.00  0.00     0.032 A 
HETATM    2  C   UNL     1      39.844 -14.504   0.135  1.00  0.00     0.019 A 
HETATM    3  C   UNL     1      39.526 -13.406  -0.673  1.00  0.00     0.030 A 
HETATM    4  C   UNL     1      40.011 -12.133  -0.368  1.00  0.00     0.034 A 
HETATM    5  C   UNL     1      40.837 -11.976   0.753  1.00  0.00     0.030 A 
HETATM    6  C   UNL     1      41.156 -13.070   1.565  1.00  0.00     0.019 A 
ENDROOT
BRANCH   4   7
HETATM    7  N   UNL     1      39.688 -10.970  -1.100  1.00  0.00    -0.327 N 
HETATM    8  C   UNL     1      39.623 -10.835  -2.477  1.00  0.00     0.226 C 
HETATM    9  O   UNL     1      39.943 -11.688  -3.297  1.00  0.00    -0.273 OA
HETATM   10  H   UNL     1      39.476 -10.149  -0.547  1.00  0.00     0.169 HD
BRANCH   8  11
HETATM   11  C   UNL     1      39.116  -9.455  -2.916  1.00  0.00     0.081 C 
HETATM   12  C   UNL     1      39.515  -8.355  -1.920  1.00  0.00     0.034 C 
HETATM   13  C   UNL     1      40.997  -7.991  -2.009  1.00  0.00     0.127 C 
HETATM   14  N   UNL     1      41.394  -7.682  -3.384  1.00  0.00    -0.347 N 
HETATM   15  C   UNL     1      42.535  -6.899  -3.657  1.00  0.00     0.260 C 
HETATM   16  C   UNL     1      41.075  -8.719  -4.358  1.00  0.00     0.127 C 
HETATM   17  O   UNL     1      43.229  -7.131  -4.648  1.00  0.00    -0.267 OA
HETATM   18  C   UNL     1      39.592  -9.081  -4.326  1.00  0.00     0.034 C 
BRANCH  15  19
HETATM   19  C   UNL     1      42.818  -5.782  -2.765  1.00  0.00     0.072 A 
HETATM   20  S   UNL     1      41.813  -4.395  -2.817  1.00  0.00    -0.097 SA
HETATM   21  C   UNL     1      42.696  -3.624  -1.572  1.00  0.00     0.050 A 
HETATM   22  C   UNL     1      43.722  -4.412  -1.102  1.00  0.00     0.009 A 
HETATM   23  C   UNL     1      43.783  -5.665  -1.779  1.00  0.00     0.025 A 
ENDBRANCH  15  19
ENDBRANCH   8  11
ENDBRANCH   4   7
BRANCH   1  24
HETATM   24  C   UNL     1      40.944 -15.472   2.189  1.00  0.00     0.256 C 
HETATM   25  N   UNL     1      42.284 -15.757   2.375  1.00  0.00    -0.323 N 
HETATM   26  H   UNL     1      42.953 -15.068   2.058  1.00  0.00     0.169 HD
HETATM   27  O   UNL     1      39.996 -16.041   2.714  1.00  0.00    -0.267 OA
BRANCH  25  28
HETATM   28  C   UNL     1      42.831 -16.917   2.962  1.00  0.00     0.035 A 
HETATM   29  C   UNL     1      43.085 -18.096   2.260  1.00  0.00     0.032 A 
HETATM   30  C   UNL     1      43.716 -19.180   2.886  1.00  0.00     0.039 A 
HETATM   31  C   UNL     1      44.100 -19.095   4.223  1.00  0.00     0.068 A 
HETATM   32  C   UNL     1      43.817 -17.930   4.936  1.00  0.00     0.039 A 
HETATM   33  C   UNL     1      43.194 -16.845   4.310  1.00  0.00     0.032 A 
BRANCH  31  34
HETATM   34  O   UNL     1      44.742 -20.068   4.936  1.00  0.00    -0.356 OA
HETATM   35  C   UNL     1      43.957 -21.192   5.317  1.00  0.00     0.210 C 
ENDBRANCH  31  34
ENDBRANCH  25  28
ENDBRANCH   1  24
TORSDOF 6
ENDMDL
MODEL 6
REMARK VINA RESULT:      -8.2      4.322     12.809
REMARK  6 active torsions:
REMARK  status: ('A' for Active; 'I' for Inactive)
REMARK    1  A    between atoms: O_2  and  C_3 
REMARK    2  A    between atoms: C_6  and  N_7 
REMARK       I    between atoms: N_7  and  C_8 
REMARK    3  A    between atoms: C_8  and  C_9 
REMARK    4  A    between atoms: C_12  and  N_13 
REMARK       I    between atoms: N_13  and  C_14 
REMARK    5  A    between atoms: C_14  and  C_15 
REMARK       I    between atoms: N_18  and  C_19 
REMARK    6  A    between atoms: C_19  and  C_20 
ROOT
HETATM    1  C   UNL     1      40.767 -12.903   4.867  1.00  0.00     0.032 A 
HETATM    2  C   UNL     1      39.586 -12.155   4.812  1.00  0.00     0.019 A 
HETATM    3  C   UNL     1      39.499 -10.922   5.469  1.00  0.00     0.030 A 
HETATM    4  C   UNL     1      40.581 -10.423   6.196  1.00  0.00     0.034 A 
HETATM    5  C   UNL     1      41.764 -11.172   6.242  1.00  0.00     0.030 A 
HETATM    6  C   UNL     1      41.856 -12.406   5.590  1.00  0.00     0.019 A 
ENDROOT
BRANCH   4   7
HETATM    7  N   UNL     1      40.549  -9.219   6.930  1.00  0.00    -0.327 N 
HETATM    8  C   UNL     1      39.760  -8.925   8.030  1.00  0.00     0.226 C 
HETATM    9  O   UNL     1      38.870  -9.637   8.484  1.00  0.00    -0.273 OA
HETATM   10  H   UNL     1      41.184  -8.496   6.614  1.00  0.00     0.169 HD
BRANCH   8  11
HETATM   11  C   UNL     1      40.085  -7.560   8.649  1.00  0.00     0.081 C 
HETATM   12  C   UNL     1      39.574  -7.450  10.094  1.00  0.00     0.034 C 
HETATM   13  C   UNL     1      40.422  -8.253  11.080  1.00  0.00     0.127 C 
HETATM   14  N   UNL     1      41.844  -7.928  10.956  1.00  0.00    -0.347 N 
HETATM   15  C   UNL     1      42.745  -8.169  12.016  1.00  0.00     0.260 C 
HETATM   16  C   UNL     1      42.384  -8.063   9.608  1.00  0.00     0.127 C 
HETATM   17  O   UNL     1      43.904  -8.514  11.784  1.00  0.00    -0.267 OA
HETATM   18  C   UNL     1      41.585  -7.241   8.600  1.00  0.00     0.034 C 
BRANCH  15  19
HETATM   19  C   UNL     1      42.268  -7.934  13.373  1.00  0.00     0.072 A 
HETATM   20  S   UNL     1      42.035  -6.323  13.910  1.00  0.00    -0.097 SA
HETATM   21  C   UNL     1      41.490  -6.842  15.446  1.00  0.00     0.050 A 
HETATM   22  C   UNL     1      41.458  -8.215  15.546  1.00  0.00     0.009 A 
HETATM   23  C   UNL     1      41.892  -8.846  14.344  1.00  0.00     0.025 A 
ENDBRANCH  15  19
ENDBRANCH   8  11
ENDBRANCH   4   7
BRANCH   1  24
HETATM   24  C   UNL     1      40.862 -14.261   4.257  1.00  0.00     0.256 C 
HETATM   25  N   UNL     1      41.949 -15.011   4.664  1.00  0.00    -0.323 N 
HETATM   26  H   UNL     1      42.456 -14.688   5.478  1.00  0.00     0.169 HD
HETATM   27  O   UNL     1      39.988 -14.605   3.472  1.00  0.00    -0.267 OA
BRANCH  25  28
HETATM   28  C   UNL     1      42.441 -16.188   4.064  1.00  0.00     0.035 A 
HETATM   29  C   UNL     1      42.496 -16.391   2.684  1.00  0.00     0.032 A 
HETATM   30  C   UNL     1      43.082 -17.548   2.153  1.00  0.00     0.039 A 
HETATM   31  C   UNL     1      43.620 -18.516   2.999  1.00  0.00     0.068 A 
HETATM   32  C   UNL     1      43.536 -18.332   4.379  1.00  0.00     0.039 A 
HETATM   33  C   UNL     1      42.958 -17.174   4.909  1.00  0.00     0.032 A 
BRANCH  31  34
HETATM   34  O   UNL     1      44.238 -19.670   2.605  1.00  0.00    -0.356 OA
HETATM   35  C   UNL     1      43.911 -20.843   3.341  1.00  0.00     0.210 C 
ENDBRANCH  31  34
ENDBRANCH  25  28
ENDBRANCH   1  24
TORSDOF 6
ENDMDL
MODEL 7
REMARK VINA RESULT:      -8.1      3.989     12.179
REMARK  6 active torsions:
REMARK  status: ('A' for Active; 'I' for Inactive)
REMARK    1  A    between atoms: O_2  and  C_3 
REMARK    2  A    between atoms: C_6  and  N_7 
REMARK       I    between atoms: N_7  and  C_8 
REMARK    3  A    between atoms: C_8  and  C_9 
REMARK    4  A    between atoms: C_12  and  N_13 
REMARK       I    between atoms: N_13  and  C_14 
REMARK    5  A    between atoms: C_14  and  C_15 
REMARK       I    between atoms: N_18  and  C_19 
REMARK    6  A    between atoms: C_19  and  C_20 
ROOT
HETATM    1  C   UNL     1      42.198  -7.365  12.461  1.00  0.00     0.032 A 
HETATM    2  C   UNL     1      40.886  -6.934  12.684  1.00  0.00     0.019 A 
HETATM    3  C   UNL     1      40.402  -6.788  13.990  1.00  0.00     0.030 A 
HETATM    4  C   UNL     1      41.214  -7.079  15.087  1.00  0.00     0.034 A 
HETATM    5  C   UNL     1      42.530  -7.503  14.859  1.00  0.00     0.030 A 
HETATM    6  C   UNL     1      43.017  -7.653  13.556  1.00  0.00     0.019 A 
ENDROOT
BRANCH   4   7
HETATM    7  N   UNL     1      40.780  -7.012  16.429  1.00  0.00    -0.327 N 
HETATM    8  C   UNL     1      41.004  -5.988  17.334  1.00  0.00     0.226 C 
HETATM    9  O   UNL     1      41.717  -5.008  17.146  1.00  0.00    -0.273 OA
HETATM   10  H   UNL     1      40.240  -7.803  16.755  1.00  0.00     0.169 HD
BRANCH   8  11
HETATM   11  C   UNL     1      40.274  -6.201  18.666  1.00  0.00     0.081 C 
HETATM   12  C   UNL     1      40.206  -7.687  19.051  1.00  0.00     0.034 C 
HETATM   13  C   UNL     1      41.548  -8.230  19.542  1.00  0.00     0.127 C 
HETATM   14  N   UNL     1      42.109  -7.394  20.606  1.00  0.00    -0.347 N 
HETATM   15  C   UNL     1      43.061  -7.906  21.513  1.00  0.00     0.260 C 
HETATM   16  C   UNL     1      42.234  -5.981  20.268  1.00  0.00     0.127 C 
HETATM   17  O   UNL     1      43.963  -7.186  21.945  1.00  0.00    -0.267 OA
HETATM   18  C   UNL     1      40.902  -5.394  19.810  1.00  0.00     0.034 C 
BRANCH  15  19
HETATM   19  C   UNL     1      42.897  -9.284  21.958  1.00  0.00     0.072 A 
HETATM   20  S   UNL     1      41.592  -9.678  22.996  1.00  0.00    -0.097 SA
HETATM   21  C   UNL     1      42.032 -11.330  23.034  1.00  0.00     0.050 A 
HETATM   22  C   UNL     1      43.135 -11.589  22.253  1.00  0.00     0.009 A 
HETATM   23  C   UNL     1      43.626 -10.411  21.618  1.00  0.00     0.025 A 
ENDBRANCH  15  19
ENDBRANCH   8  11
ENDBRANCH   4   7
BRANCH   1  24
HETATM   24  C   UNL     1      42.713  -7.619  11.085  1.00  0.00     0.256 C 
HETATM   25  N   UNL     1      42.980  -8.944  10.795  1.00  0.00    -0.323 N 
HETATM   26  H   UNL     1      42.611  -9.640  11.429  1.00  0.00     0.169 HD
HETATM   27  O   UNL     1      42.847  -6.664  10.330  1.00  0.00    -0.267 OA
BRANCH  25  28
HETATM   28  C   UNL     1      43.719  -9.442   9.703  1.00  0.00     0.035 A 
HETATM   29  C   UNL     1      45.084  -9.729   9.756  1.00  0.00     0.032 A 
HETATM   30  C   UNL     1      45.738 -10.308   8.660  1.00  0.00     0.039 A 
HETATM   31  C   UNL     1      45.030 -10.606   7.496  1.00  0.00     0.068 A 
HETATM   32  C   UNL     1      43.674 -10.289   7.428  1.00  0.00     0.039 A 
HETATM   33  C   UNL     1      43.020  -9.717   8.524  1.00  0.00     0.032 A 
BRANCH  31  34
HETATM   34  O   UNL     1      45.545 -11.192   6.373  1.00  0.00    -0.356 OA
HETATM   35  C   UNL     1      44.614 -11.512   5.346  1.00  0.00     0.210 C 
ENDBRANCH  31  34
ENDBRANCH  25  28
ENDBRANCH   1  24
TORSDOF 6
ENDMDL
MODEL 8
REMARK VINA RESULT:      -8.0     24.387     25.804
REMARK  6 active torsions:
REMARK  status: ('A' for Active; 'I' for Inactive)
REMARK    1  A    between atoms: O_2  and  C_3 
REMARK    2  A    between atoms: C_6  and  N_7 
REMARK       I    between atoms: N_7  and  C_8 
REMARK    3  A    between atoms: C_8  and  C_9 
REMARK    4  A    between atoms: C_12  and  N_13 
REMARK       I    between atoms: N_13  and  C_14 
REMARK    5  A    between atoms: C_14  and  C_15 
REMARK       I    between atoms: N_18  and  C_19 
REMARK    6  A    between atoms: C_19  and  C_20 
ROOT
HETATM    1  C   UNL     1      50.609 -31.164   4.742  1.00  0.00     0.032 A 
HETATM    2  C   UNL     1      49.211 -31.165   4.673  1.00  0.00     0.019 A 
HETATM    3  C   UNL     1      48.554 -30.495   3.634  1.00  0.00     0.030 A 
HETATM    4  C   UNL     1      49.279 -29.809   2.658  1.00  0.00     0.034 A 
HETATM    5  C   UNL     1      50.679 -29.816   2.727  1.00  0.00     0.030 A 
HETATM    6  C   UNL     1      51.340 -30.483   3.765  1.00  0.00     0.019 A 
ENDROOT
BRANCH   4   7
HETATM    7  N   UNL     1      48.688 -29.064   1.615  1.00  0.00    -0.327 N 
HETATM    8  C   UNL     1      48.765 -29.315   0.255  1.00  0.00     0.226 C 
HETATM    9  O   UNL     1      49.457 -30.176  -0.277  1.00  0.00    -0.273 OA
HETATM   10  H   UNL     1      48.143 -28.261   1.905  1.00  0.00     0.169 HD
BRANCH   8  11
HETATM   11  C   UNL     1      47.891 -28.366  -0.575  1.00  0.00     0.081 C 
HETATM   12  C   UNL     1      47.790 -28.816  -2.041  1.00  0.00     0.034 C 
HETATM   13  C   UNL     1      46.882 -30.032  -2.222  1.00  0.00     0.127 C 
HETATM   14  N   UNL     1      45.572 -29.822  -1.602  1.00  0.00    -0.347 N 
HETATM   15  C   UNL     1      44.443 -30.564  -2.010  1.00  0.00     0.260 C 
HETATM   16  C   UNL     1      45.618 -29.438  -0.196  1.00  0.00     0.127 C 
HETATM   17  O   UNL     1      43.582 -30.891  -1.192  1.00  0.00    -0.267 OA
HETATM   18  C   UNL     1      46.486 -28.200   0.018  1.00  0.00     0.034 C 
BRANCH  15  19
HETATM   19  C   UNL     1      44.311 -30.868  -3.429  1.00  0.00     0.072 A 
HETATM   20  S   UNL     1      44.438 -32.495  -3.951  1.00  0.00    -0.097 SA
HETATM   21  C   UNL     1      44.168 -32.063  -5.584  1.00  0.00     0.050 A 
HETATM   22  C   UNL     1      43.958 -30.711  -5.733  1.00  0.00     0.009 A 
HETATM   23  C   UNL     1      44.025 -30.022  -4.487  1.00  0.00     0.025 A 
ENDBRANCH  15  19
ENDBRANCH   8  11
ENDBRANCH   4   7
BRANCH   1  24
HETATM   24  C   UNL     1      51.335 -31.789   5.886  1.00  0.00     0.256 C 
HETATM   25  N   UNL     1      52.522 -31.172   6.232  1.00  0.00    -0.323 N 
HETATM   26  H   UNL     1      52.695 -30.251   5.850  1.00  0.00     0.169 HD
HETATM   27  O   UNL     1      50.834 -32.767   6.425  1.00  0.00    -0.267 OA
BRANCH  25  28
HETATM   28  C   UNL     1      53.536 -31.688   7.065  1.00  0.00     0.035 A 
HETATM   29  C   UNL     1      53.656 -31.383   8.421  1.00  0.00     0.032 A 
HETATM   30  C   UNL     1      54.633 -32.004   9.211  1.00  0.00     0.039 A 
HETATM   31  C   UNL     1      55.502 -32.939   8.650  1.00  0.00     0.068 A 
HETATM   32  C   UNL     1      55.406 -33.221   7.288  1.00  0.00     0.039 A 
HETATM   33  C   UNL     1      54.427 -32.607   6.500  1.00  0.00     0.032 A 
BRANCH  31  34
HETATM   34  O   UNL     1      56.476 -33.629   9.317  1.00  0.00    -0.356 OA
HETATM   35  C   UNL     1      56.686 -33.265  10.677  1.00  0.00     0.210 C 
ENDBRANCH  31  34
ENDBRANCH  25  28
ENDBRANCH   1  24
TORSDOF 6
ENDMDL
MODEL 9
REMARK VINA RESULT:      -8.0     12.878     15.291
REMARK  6 active torsions:
REMARK  status: ('A' for Active; 'I' for Inactive)
REMARK    1  A    between atoms: O_2  and  C_3 
REMARK    2  A    between atoms: C_6  and  N_7 
REMARK       I    between atoms: N_7  and  C_8 
REMARK    3  A    between atoms: C_8  and  C_9 
REMARK    4  A    between atoms: C_12  and  N_13 
REMARK       I    between atoms: N_13  and  C_14 
REMARK    5  A    between atoms: C_14  and  C_15 
REMARK       I    between atoms: N_18  and  C_19 
REMARK    6  A    between atoms: C_19  and  C_20 
ROOT
HETATM    1  C   UNL     1      41.507 -13.000   1.346  1.00  0.00     0.032 A 
HETATM    2  C   UNL     1      40.983 -12.809   0.064  1.00  0.00     0.019 A 
HETATM    3  C   UNL     1      40.894 -11.522  -0.479  1.00  0.00     0.030 A 
HETATM    4  C   UNL     1      41.317 -10.410   0.251  1.00  0.00     0.034 A 
HETATM    5  C   UNL     1      41.848 -10.607   1.533  1.00  0.00     0.030 A 
HETATM    6  C   UNL     1      41.937 -11.891   2.081  1.00  0.00     0.019 A 
ENDROOT
BRANCH   4   7
HETATM    7  N   UNL     1      41.206  -9.079  -0.205  1.00  0.00    -0.327 N 
HETATM    8  C   UNL     1      42.154  -8.347  -0.901  1.00  0.00     0.226 C 
HETATM    9  O   UNL     1      43.300  -8.708  -1.145  1.00  0.00    -0.273 OA
HETATM   10  H   UNL     1      40.329  -8.617  -0.000  1.00  0.00     0.169 HD
BRANCH   8  11
HETATM   11  C   UNL     1      41.638  -6.972  -1.343  1.00  0.00     0.081 C 
HETATM   12  C   UNL     1      42.682  -6.207  -2.171  1.00  0.00     0.034 C 
HETATM   13  C   UNL     1      42.830  -6.760  -3.588  1.00  0.00     0.127 C 
HETATM   14  N   UNL     1      41.534  -6.860  -4.264  1.00  0.00    -0.347 N 
HETATM   15  C   UNL     1      41.445  -6.894  -5.672  1.00  0.00     0.260 C 
HETATM   16  C   UNL     1      40.524  -7.618  -3.534  1.00  0.00     0.127 C 
HETATM   17  O   UNL     1      40.578  -7.570  -6.226  1.00  0.00    -0.267 OA
HETATM   18  C   UNL     1      40.321  -7.068  -2.125  1.00  0.00     0.034 C 
BRANCH  15  19
HETATM   19  C   UNL     1      42.369  -6.059  -6.428  1.00  0.00     0.072 A 
HETATM   20  S   UNL     1      41.906  -4.462  -6.842  1.00  0.00    -0.097 SA
HETATM   21  C   UNL     1      43.398  -4.158  -7.619  1.00  0.00     0.050 A 
HETATM   22  C   UNL     1      44.249  -5.237  -7.546  1.00  0.00     0.009 A 
HETATM   23  C   UNL     1      43.662  -6.330  -6.845  1.00  0.00     0.025 A 
ENDBRANCH  15  19
ENDBRANCH   8  11
ENDBRANCH   4   7
BRANCH   1  24
HETATM   24  C   UNL     1      41.530 -14.347   1.989  1.00  0.00     0.256 C 
HETATM   25  N   UNL     1      42.742 -14.709   2.546  1.00  0.00    -0.323 N 
HETATM   26  H   UNL     1      43.430 -13.979   2.672  1.00  0.00     0.169 HD
HETATM   27  O   UNL     1      40.499 -15.008   1.985  1.00  0.00    -0.267 OA
BRANCH  25  28
HETATM   28  C   UNL     1      43.133 -15.998   2.962  1.00  0.00     0.035 A 
HETATM   29  C   UNL     1      43.433 -16.329   4.285  1.00  0.00     0.032 A 
HETATM   30  C   UNL     1      43.726 -17.652   4.643  1.00  0.00     0.039 A 
HETATM   31  C   UNL     1      43.723 -18.659   3.679  1.00  0.00     0.068 A 
HETATM   32  C   UNL     1      43.458 -18.325   2.351  1.00  0.00     0.039 A 
HETATM   33  C   UNL     1      43.157 -17.007   1.994  1.00  0.00     0.032 A 
BRANCH  31  34
HETATM   34  O   UNL     1      43.967 -19.985   3.905  1.00  0.00    -0.356 OA
HETATM   35  C   UNL     1      44.133 -20.372   5.265  1.00  0.00     0.210 C 
ENDBRANCH  31  34
ENDBRANCH  25  28
ENDBRANCH   1  24
TORSDOF 6
ENDMDL
MODEL 10
REMARK VINA RESULT:      -7.8     23.580     25.490
REMARK  6 active torsions:
REMARK  status: ('A' for Active; 'I' for Inactive)
REMARK    1  A    between atoms: O_2  and  C_3 
REMARK    2  A    between atoms: C_6  and  N_7 
REMARK       I    between atoms: N_7  and  C_8 
REMARK    3  A    between atoms: C_8  and  C_9 
REMARK    4  A    between atoms: C_12  and  N_13 
REMARK       I    between atoms: N_13  and  C_14 
REMARK    5  A    between atoms: C_14  and  C_15 
REMARK       I    between atoms: N_18  and  C_19 
REMARK    6  A    between atoms: C_19  and  C_20 
ROOT
HETATM    1  C   UNL     1      49.290 -30.321   3.744  1.00  0.00     0.032 A 
HETATM    2  C   UNL     1      49.078 -28.939   3.701  1.00  0.00     0.019 A 
HETATM    3  C   UNL     1      48.133 -28.396   2.823  1.00  0.00     0.030 A 
HETATM    4  C   UNL     1      47.394 -29.220   1.972  1.00  0.00     0.034 A 
HETATM    5  C   UNL     1      47.604 -30.604   2.024  1.00  0.00     0.030 A 
HETATM    6  C   UNL     1      48.550 -31.152   2.898  1.00  0.00     0.019 A 
ENDROOT
BRANCH   4   7
HETATM    7  N   UNL     1      46.467 -28.742   1.021  1.00  0.00    -0.327 N 
HETATM    8  C   UNL     1      46.740 -28.245  -0.243  1.00  0.00     0.226 C 
HETATM    9  O   UNL     1      47.856 -28.037  -0.706  1.00  0.00    -0.273 OA
HETATM   10  H   UNL     1      45.495 -28.777   1.301  1.00  0.00     0.169 HD
BRANCH   8  11
HETATM   11  C   UNL     1      45.470 -27.936  -1.047  1.00  0.00     0.081 C 
HETATM   12  C   UNL     1      45.724 -27.996  -2.562  1.00  0.00     0.034 C 
HETATM   13  C   UNL     1      45.869 -29.428  -3.078  1.00  0.00     0.127 C 
HETATM   14  N   UNL     1      44.744 -30.267  -2.657  1.00  0.00    -0.347 N 
HETATM   15  C   UNL     1      44.411 -31.447  -3.357  1.00  0.00     0.260 C 
HETATM   16  C   UNL     1      44.495 -30.277  -1.221  1.00  0.00     0.127 C 
HETATM   17  O   UNL     1      43.977 -32.429  -2.753  1.00  0.00    -0.267 OA
HETATM   18  C   UNL     1      44.306 -28.863  -0.676  1.00  0.00     0.034 C 
BRANCH  15  19
HETATM   19  C   UNL     1      44.543 -31.432  -4.808  1.00  0.00     0.072 A 
HETATM   20  S   UNL     1      45.783 -32.357  -5.545  1.00  0.00    -0.097 SA
HETATM   21  C   UNL     1      45.300 -31.878  -7.115  1.00  0.00     0.050 A 
HETATM   22  C   UNL     1      44.200 -31.052  -7.088  1.00  0.00     0.009 A 
HETATM   23  C   UNL     1      43.752 -30.805  -5.757  1.00  0.00     0.025 A 
ENDBRANCH  15  19
ENDBRANCH   8  11
ENDBRANCH   4   7
BRANCH   1  24
HETATM   24  C   UNL     1      50.353 -30.922   4.600  1.00  0.00     0.256 C 
HETATM   25  N   UNL     1      49.925 -31.930   5.444  1.00  0.00    -0.323 N 
HETATM   26  H   UNL     1      49.010 -32.324   5.269  1.00  0.00     0.169 HD
HETATM   27  O   UNL     1      51.497 -30.499   4.488  1.00  0.00    -0.267 OA
BRANCH  25  28
HETATM   28  C   UNL     1      50.627 -32.476   6.539  1.00  0.00     0.035 A 
HETATM   29  C   UNL     1      51.984 -32.258   6.777  1.00  0.00     0.032 A 
HETATM   30  C   UNL     1      52.598 -32.756   7.934  1.00  0.00     0.039 A 
HETATM   31  C   UNL     1      51.857 -33.480   8.867  1.00  0.00     0.068 A 
HETATM   32  C   UNL     1      50.508 -33.729   8.615  1.00  0.00     0.039 A 
HETATM   33  C   UNL     1      49.893 -33.225   7.464  1.00  0.00     0.032 A 
BRANCH  31  34
HETATM   34  O   UNL     1      52.331 -33.994  10.042  1.00  0.00    -0.356 OA
HETATM   35  C   UNL     1      52.684 -33.050  11.045  1.00  0.00     0.210 C 
ENDBRANCH  31  34
ENDBRANCH  25  28
ENDBRANCH   1  24
TORSDOF 6
ENDMDL
