MODEL 1
REMARK VINA RESULT:      -8.5      0.000      0.000
REMARK  4 active torsions:
REMARK  status: ('A' for Active; 'I' for Inactive)
REMARK    1  A    between atoms: O_2  and  C_3 
REMARK    2  A    between atoms: C_5  and  C_6 
REMARK    3  A    between atoms: C_10  and  N_11 
REMARK    4  A    between atoms: C_14  and  C_15 
ROOT
HETATM    1  C   UNL     1      43.078 -12.513   6.053  1.00  0.00     0.164 C 
HETATM    2  N   UNL     1      42.849 -12.086   4.674  1.00  0.00    -0.074 N 
HETATM    3  C   UNL     1      42.655 -12.953   3.628  1.00  0.00     0.736 C 
HETATM    4  N   UNL     1      42.343 -12.269   2.560  1.00  0.00     0.131 NA
HETATM    5  C   UNL     1      42.318 -10.983   3.013  1.00  0.00     0.753 C 
HETATM    6  N   UNL     1      42.546 -10.825   4.315  1.00  0.00     0.037 NA
HETATM    7  N   UNL     1      42.764 -14.288   3.791  1.00  0.00    -0.214 N 
HETATM    8  C   UNL     1      42.657 -14.830   5.141  1.00  0.00     0.135 C 
HETATM    9  C   UNL     1      43.516 -13.989   6.097  1.00  0.00     0.063 C 
HETATM   10  H   UNL     1      42.356 -14.859   3.055  1.00  0.00     0.178 HD
ENDROOT
BRANCH   1  11
HETATM   11  C   UNL     1      44.082 -11.664   6.823  1.00  0.00    -0.030 A 
HETATM   12  C   UNL     1      43.678 -11.076   8.041  1.00  0.00     0.046 A 
HETATM   13  C   UNL     1      44.580 -10.346   8.820  1.00  0.00     0.068 A 
HETATM   14  C   UNL     1      45.892 -10.186   8.375  1.00  0.00     0.037 A 
HETATM   15  C   UNL     1      46.309 -10.765   7.178  1.00  0.00     0.003 A 
HETATM   16  C   UNL     1      45.414 -11.508   6.411  1.00  0.00     0.009 A 
BRANCH  13  17
HETATM   17  O   UNL     1      44.305  -9.748  10.018  1.00  0.00    -0.356 OA
HETATM   18  C   UNL     1      43.622 -10.532  10.989  1.00  0.00     0.210 C 
ENDBRANCH  13  17
ENDBRANCH   1  11
BRANCH   8  19
HETATM   19  C   UNL     1      43.093 -16.283   5.175  1.00  0.00    -0.035 A 
HETATM   20  C   UNL     1      43.034 -17.043   6.357  1.00  0.00     0.010 A 
HETATM   21  C   UNL     1      43.400 -18.391   6.358  1.00  0.00     0.019 A 
HETATM   22  C   UNL     1      43.820 -18.993   5.175  1.00  0.00     0.011 A 
HETATM   23 BR   UNL     1      44.306 -20.820   5.173  1.00  0.00    -0.051 Br
HETATM   24  C   UNL     1      43.879 -18.261   3.992  1.00  0.00     0.019 A 
HETATM   25  C   UNL     1      43.516 -16.911   3.993  1.00  0.00     0.010 A 
ENDBRANCH   8  19
BRANCH   5  26
HETATM   26  N   UNL     1      42.018 -10.012   2.156  1.00  0.00    -0.229 N 
HETATM   27  H   UNL     1      42.374  -9.091   2.367  1.00  0.00     0.174 HD
HETATM   28  H   UNL     1      42.000 -10.255   1.176  1.00  0.00     0.174 HD
ENDBRANCH   5  26
TORSDOF 4
ENDMDL
MODEL 2
REMARK VINA RESULT:      -8.3      4.310      7.289
REMARK  4 active torsions:
REMARK  status: ('A' for Active; 'I' for Inactive)
REMARK    1  A    between atoms: O_2  and  C_3 
REMARK    2  A    between atoms: C_5  and  C_6 
REMARK    3  A    between atoms: C_10  and  N_11 
REMARK    4  A    between atoms: C_14  and  C_15 
ROOT
HETATM    1  C   UNL     1      41.818 -15.469   4.656  1.00  0.00     0.164 C 
HETATM    2  N   UNL     1      42.602 -14.287   5.004  1.00  0.00    -0.074 N 
HETATM    3  C   UNL     1      42.515 -13.090   4.339  1.00  0.00     0.736 C 
HETATM    4  N   UNL     1      43.233 -12.198   4.968  1.00  0.00     0.131 NA
HETATM    5  C   UNL     1      43.712 -12.891   6.040  1.00  0.00     0.753 C 
HETATM    6  N   UNL     1      43.295 -14.149   6.149  1.00  0.00     0.037 NA
HETATM    7  N   UNL     1      41.752 -12.952   3.233  1.00  0.00    -0.214 N 
HETATM    8  C   UNL     1      40.697 -13.931   2.997  1.00  0.00     0.135 C 
HETATM    9  C   UNL     1      41.251 -15.344   3.229  1.00  0.00     0.063 C 
HETATM   10  H   UNL     1      41.534 -11.997   2.961  1.00  0.00     0.178 HD
ENDROOT
BRANCH   1  11
HETATM   11  C   UNL     1      42.565 -16.791   4.790  1.00  0.00    -0.030 A 
HETATM   12  C   UNL     1      43.055 -17.413   3.623  1.00  0.00     0.046 A 
HETATM   13  C   UNL     1      43.805 -18.590   3.696  1.00  0.00     0.068 A 
HETATM   14  C   UNL     1      44.058 -19.161   4.943  1.00  0.00     0.037 A 
HETATM   15  C   UNL     1      43.588 -18.556   6.108  1.00  0.00     0.003 A 
HETATM   16  C   UNL     1      42.855 -17.372   6.034  1.00  0.00     0.009 A 
BRANCH  13  17
HETATM   17  O   UNL     1      44.341 -19.268   2.637  1.00  0.00    -0.356 OA
HETATM   18  C   UNL     1      43.510 -20.230   1.999  1.00  0.00     0.210 C 
ENDBRANCH  13  17
ENDBRANCH   1  11
BRANCH   8  19
HETATM   19  C   UNL     1      40.147 -13.802   1.589  1.00  0.00    -0.035 A 
HETATM   20  C   UNL     1      39.629 -12.586   1.108  1.00  0.00     0.010 A 
HETATM   21  C   UNL     1      39.166 -12.477  -0.206  1.00  0.00     0.019 A 
HETATM   22  C   UNL     1      39.225 -13.581  -1.052  1.00  0.00     0.011 A 
HETATM   23 BR   UNL     1      38.608 -13.432  -2.833  1.00  0.00    -0.051 Br
HETATM   24  C   UNL     1      39.740 -14.792  -0.599  1.00  0.00     0.019 A 
HETATM   25  C   UNL     1      40.200 -14.901   0.717  1.00  0.00     0.010 A 
ENDBRANCH   8  19
BRANCH   5  26
HETATM   26  N   UNL     1      44.494 -12.256   6.909  1.00  0.00    -0.229 N 
HETATM   27  H   UNL     1      45.160 -12.819   7.419  1.00  0.00     0.174 HD
HETATM   28  H   UNL     1      44.815 -11.335   6.649  1.00  0.00     0.174 HD
ENDBRANCH   5  26
TORSDOF 4
ENDMDL
MODEL 3
REMARK VINA RESULT:      -8.1      4.847      7.041
REMARK  4 active torsions:
REMARK  status: ('A' for Active; 'I' for Inactive)
REMARK    1  A    between atoms: O_2  and  C_3 
REMARK    2  A    between atoms: C_5  and  C_6 
REMARK    3  A    between atoms: C_10  and  N_11 
REMARK    4  A    between atoms: C_14  and  C_15 
ROOT
HETATM    1  C   UNL     1      41.401 -13.515   1.261  1.00  0.00     0.164 C 
HETATM    2  N   UNL     1      40.620 -12.911   2.338  1.00  0.00    -0.074 N 
HETATM    3  C   UNL     1      40.678 -13.319   3.646  1.00  0.00     0.736 C 
HETATM    4  N   UNL     1      39.974 -12.500   4.381  1.00  0.00     0.131 NA
HETATM    5  C   UNL     1      39.534 -11.578   3.478  1.00  0.00     0.753 C 
HETATM    6  N   UNL     1      39.963 -11.741   2.229  1.00  0.00     0.037 NA
HETATM    7  N   UNL     1      41.404 -14.395   4.016  1.00  0.00    -0.214 N 
HETATM    8  C   UNL     1      42.458 -14.858   3.121  1.00  0.00     0.135 C 
HETATM    9  C   UNL     1      41.921 -14.903   1.683  1.00  0.00     0.063 C 
HETATM   10  H   UNL     1      41.607 -14.472   5.010  1.00  0.00     0.178 HD
ENDROOT
BRANCH   1  11
HETATM   11  C   UNL     1      40.668 -13.633  -0.069  1.00  0.00    -0.030 A 
HETATM   12  C   UNL     1      40.914 -12.665  -1.066  1.00  0.00     0.046 A 
HETATM   13  C   UNL     1      40.320 -12.765  -2.327  1.00  0.00     0.068 A 
HETATM   14  C   UNL     1      39.460 -13.830  -2.593  1.00  0.00     0.037 A 
HETATM   15  C   UNL     1      39.210 -14.799  -1.622  1.00  0.00     0.003 A 
HETATM   16  C   UNL     1      39.818 -14.708  -0.371  1.00  0.00     0.009 A 
BRANCH  13  17
HETATM   17  O   UNL     1      40.498 -11.899  -3.370  1.00  0.00    -0.356 OA
HETATM   18  C   UNL     1      40.809 -10.550  -3.042  1.00  0.00     0.210 C 
ENDBRANCH  13  17
ENDBRANCH   1  11
BRANCH   8  19
HETATM   19  C   UNL     1      42.962 -16.226   3.542  1.00  0.00    -0.035 A 
HETATM   20  C   UNL     1      43.188 -16.544   4.893  1.00  0.00     0.010 A 
HETATM   21  C   UNL     1      43.613 -17.823   5.264  1.00  0.00     0.019 A 
HETATM   22  C   UNL     1      43.806 -18.796   4.287  1.00  0.00     0.011 A 
HETATM   23 BR   UNL     1      44.370 -20.530   4.787  1.00  0.00    -0.051 Br
HETATM   24  C   UNL     1      43.581 -18.504   2.944  1.00  0.00     0.019 A 
HETATM   25  C   UNL     1      43.160 -17.223   2.574  1.00  0.00     0.010 A 
ENDBRANCH   8  19
BRANCH   5  26
HETATM   26  N   UNL     1      38.776 -10.575   3.911  1.00  0.00    -0.229 N 
HETATM   27  H   UNL     1      37.794 -10.611   3.676  1.00  0.00     0.174 HD
HETATM   28  H   UNL     1      38.988 -10.201   4.825  1.00  0.00     0.174 HD
ENDBRANCH   5  26
TORSDOF 4
ENDMDL
MODEL 4
REMARK VINA RESULT:      -8.0      4.008      7.403
REMARK  4 active torsions:
REMARK  status: ('A' for Active; 'I' for Inactive)
REMARK    1  A    between atoms: O_2  and  C_3 
REMARK    2  A    between atoms: C_5  and  C_6 
REMARK    3  A    between atoms: C_10  and  N_11 
REMARK    4  A    between atoms: C_14  and  C_15 
ROOT
HETATM    1  C   UNL     1      43.220 -15.817   3.960  1.00  0.00     0.164 C 
HETATM    2  N   UNL     1      41.958 -15.558   3.271  1.00  0.00    -0.074 N 
HETATM    3  C   UNL     1      41.270 -14.375   3.359  1.00  0.00     0.736 C 
HETATM    4  N   UNL     1      40.261 -14.405   2.528  1.00  0.00     0.131 NA
HETATM    5  C   UNL     1      40.399 -15.619   1.922  1.00  0.00     0.753 C 
HETATM    6  N   UNL     1      41.463 -16.330   2.286  1.00  0.00     0.037 NA
HETATM    7  N   UNL     1      41.672 -13.385   4.184  1.00  0.00    -0.214 N 
HETATM    8  C   UNL     1      43.054 -13.393   4.649  1.00  0.00     0.135 C 
HETATM    9  C   UNL     1      43.429 -14.810   5.108  1.00  0.00     0.063 C 
HETATM   10  H   UNL     1      41.277 -12.466   3.999  1.00  0.00     0.178 HD
ENDROOT
BRANCH   1  11
HETATM   11  C   UNL     1      43.373 -17.235   4.498  1.00  0.00    -0.030 A 
HETATM   12  C   UNL     1      43.612 -18.284   3.585  1.00  0.00     0.046 A 
HETATM   13  C   UNL     1      43.828 -19.590   4.031  1.00  0.00     0.068 A 
HETATM   14  C   UNL     1      43.789 -19.859   5.399  1.00  0.00     0.037 A 
HETATM   15  C   UNL     1      43.559 -18.834   6.316  1.00  0.00     0.003 A 
HETATM   16  C   UNL     1      43.363 -17.528   5.870  1.00  0.00     0.009 A 
BRANCH  13  17
HETATM   17  O   UNL     1      44.084 -20.677   3.241  1.00  0.00    -0.356 OA
HETATM   18  C   UNL     1      43.793 -20.550   1.855  1.00  0.00     0.210 C 
ENDBRANCH  13  17
ENDBRANCH   1  11
BRANCH   8  19
HETATM   19  C   UNL     1      43.249 -12.401   5.780  1.00  0.00    -0.035 A 
HETATM   20  C   UNL     1      44.373 -12.454   6.622  1.00  0.00     0.010 A 
HETATM   21  C   UNL     1      44.555 -11.505   7.631  1.00  0.00     0.019 A 
HETATM   22  C   UNL     1      43.618 -10.489   7.801  1.00  0.00     0.011 A 
HETATM   23 BR   UNL     1      43.868  -9.198   9.159  1.00  0.00    -0.051 Br
HETATM   24  C   UNL     1      42.501 -10.414   6.974  1.00  0.00     0.019 A 
HETATM   25  C   UNL     1      42.318 -11.366   5.966  1.00  0.00     0.010 A 
ENDBRANCH   8  19
BRANCH   5  26
HETATM   26  N   UNL     1      39.515 -15.969   0.992  1.00  0.00    -0.229 N 
HETATM   27  H   UNL     1      38.557 -15.691   1.146  1.00  0.00     0.174 HD
HETATM   28  H   UNL     1      39.825 -15.941   0.031  1.00  0.00     0.174 HD
ENDBRANCH   5  26
TORSDOF 4
ENDMDL
MODEL 5
REMARK VINA RESULT:      -7.9      3.574      6.753
REMARK  4 active torsions:
REMARK  status: ('A' for Active; 'I' for Inactive)
REMARK    1  A    between atoms: O_2  and  C_3 
REMARK    2  A    between atoms: C_5  and  C_6 
REMARK    3  A    between atoms: C_10  and  N_11 
REMARK    4  A    between atoms: C_14  and  C_15 
ROOT
HETATM    1  C   UNL     1      42.789 -13.417   3.314  1.00  0.00     0.164 C 
HETATM    2  N   UNL     1      41.395 -13.001   3.182  1.00  0.00    -0.074 N 
HETATM    3  C   UNL     1      40.822 -12.001   3.926  1.00  0.00     0.736 C 
HETATM    4  N   UNL     1      39.614 -11.776   3.481  1.00  0.00     0.131 NA
HETATM    5  C   UNL     1      39.507 -12.640   2.432  1.00  0.00     0.753 C 
HETATM    6  N   UNL     1      40.594 -13.356   2.160  1.00  0.00     0.037 NA
HETATM    7  N   UNL     1      41.497 -11.389   4.922  1.00  0.00    -0.214 N 
HETATM    8  C   UNL     1      42.952 -11.479   4.925  1.00  0.00     0.135 C 
HETATM    9  C   UNL     1      43.375 -12.931   4.654  1.00  0.00     0.063 C 
HETATM   10  H   UNL     1      41.111 -10.504   5.241  1.00  0.00     0.178 HD
ENDROOT
BRANCH   1  11
HETATM   11  C   UNL     1      43.022 -14.917   3.175  1.00  0.00    -0.030 A 
HETATM   12  C   UNL     1      43.075 -15.705   4.343  1.00  0.00     0.046 A 
HETATM   13  C   UNL     1      43.217 -17.093   4.268  1.00  0.00     0.068 A 
HETATM   14  C   UNL     1      43.324 -17.701   3.017  1.00  0.00     0.037 A 
HETATM   15  C   UNL     1      43.267 -16.938   1.852  1.00  0.00     0.003 A 
HETATM   16  C   UNL     1      43.106 -15.555   1.929  1.00  0.00     0.009 A 
BRANCH  13  17
HETATM   17  O   UNL     1      43.264 -17.955   5.329  1.00  0.00    -0.356 OA
HETATM   18  C   UNL     1      44.034 -19.139   5.165  1.00  0.00     0.210 C 
ENDBRANCH  13  17
ENDBRANCH   1  11
BRANCH   8  19
HETATM   19  C   UNL     1      43.520 -11.000   6.249  1.00  0.00    -0.035 A 
HETATM   20  C   UNL     1      42.733 -10.297   7.177  1.00  0.00     0.010 A 
HETATM   21  C   UNL     1      43.262  -9.901   8.408  1.00  0.00     0.019 A 
HETATM   22  C   UNL     1      44.582 -10.214   8.725  1.00  0.00     0.011 A 
HETATM   23 BR   UNL     1      45.297  -9.690  10.394  1.00  0.00    -0.051 Br
HETATM   24  C   UNL     1      45.376 -10.917   7.823  1.00  0.00     0.019 A 
HETATM   25  C   UNL     1      44.847 -11.309   6.590  1.00  0.00     0.010 A 
ENDBRANCH   8  19
BRANCH   5  26
HETATM   26  N   UNL     1      38.373 -12.659   1.737  1.00  0.00    -0.229 N 
HETATM   27  H   UNL     1      38.413 -12.318   0.788  1.00  0.00     0.174 HD
HETATM   28  H   UNL     1      37.756 -13.445   1.889  1.00  0.00     0.174 HD
ENDBRANCH   5  26
TORSDOF 4
ENDMDL
MODEL 6
REMARK VINA RESULT:      -7.7     17.151     19.754
REMARK  4 active torsions:
REMARK  status: ('A' for Active; 'I' for Inactive)
REMARK    1  A    between atoms: O_2  and  C_3 
REMARK    2  A    between atoms: C_5  and  C_6 
REMARK    3  A    between atoms: C_10  and  N_11 
REMARK    4  A    between atoms: C_14  and  C_15 
ROOT
HETATM    1  C   UNL     1      47.593 -28.894  -1.567  1.00  0.00     0.164 C 
HETATM    2  N   UNL     1      47.126 -29.094  -0.197  1.00  0.00    -0.074 N 
HETATM    3  C   UNL     1      47.874 -29.692   0.786  1.00  0.00     0.736 C 
HETATM    4  N   UNL     1      47.237 -29.599   1.923  1.00  0.00     0.131 NA
HETATM    5  C   UNL     1      46.116 -28.897   1.591  1.00  0.00     0.753 C 
HETATM    6  N   UNL     1      46.037 -28.499   0.324  1.00  0.00     0.037 NA
HETATM    7  N   UNL     1      49.081 -30.234   0.520  1.00  0.00    -0.214 N 
HETATM    8  C   UNL     1      49.777 -29.811  -0.689  1.00  0.00     0.135 C 
HETATM    9  C   UNL     1      48.794 -29.811  -1.870  1.00  0.00     0.063 C 
HETATM   10  H   UNL     1      49.674 -30.414   1.327  1.00  0.00     0.178 HD
ENDROOT
BRANCH   1  11
HETATM   11  C   UNL     1      46.527 -29.086  -2.638  1.00  0.00    -0.030 A 
HETATM   12  C   UNL     1      46.343 -30.372  -3.188  1.00  0.00     0.046 A 
HETATM   13  C   UNL     1      45.333 -30.616  -4.122  1.00  0.00     0.068 A 
HETATM   14  C   UNL     1      44.509 -29.566  -4.526  1.00  0.00     0.037 A 
HETATM   15  C   UNL     1      44.673 -28.290  -3.989  1.00  0.00     0.003 A 
HETATM   16  C   UNL     1      45.668 -28.052  -3.043  1.00  0.00     0.009 A 
BRANCH  13  17
HETATM   17  O   UNL     1      45.054 -31.820  -4.707  1.00  0.00    -0.356 OA
HETATM   18  C   UNL     1      44.239 -31.799  -5.872  1.00  0.00     0.210 C 
ENDBRANCH  13  17
ENDBRANCH   1  11
BRANCH   8  19
HETATM   19  C   UNL     1      50.956 -30.721  -0.981  1.00  0.00    -0.035 A 
HETATM   20  C   UNL     1      51.405 -31.668  -0.044  1.00  0.00     0.010 A 
HETATM   21  C   UNL     1      52.466 -32.525  -0.347  1.00  0.00     0.019 A 
HETATM   22  C   UNL     1      53.079 -32.449  -1.595  1.00  0.00     0.011 A 
HETATM   23 BR   UNL     1      54.507 -33.617  -2.012  1.00  0.00    -0.051 Br
HETATM   24  C   UNL     1      52.645 -31.525  -2.541  1.00  0.00     0.019 A 
HETATM   25  C   UNL     1      51.586 -30.664  -2.234  1.00  0.00     0.010 A 
ENDBRANCH   8  19
BRANCH   5  26
HETATM   26  N   UNL     1      45.235 -28.617   2.547  1.00  0.00    -0.229 N 
HETATM   27  H   UNL     1      44.259 -28.635   2.287  1.00  0.00     0.174 HD
HETATM   28  H   UNL     1      45.442 -28.957   3.475  1.00  0.00     0.174 HD
ENDBRANCH   5  26
TORSDOF 4
ENDMDL
MODEL 7
REMARK VINA RESULT:      -7.7      5.498      7.115
REMARK  4 active torsions:
REMARK  status: ('A' for Active; 'I' for Inactive)
REMARK    1  A    between atoms: O_2  and  C_3 
REMARK    2  A    between atoms: C_5  and  C_6 
REMARK    3  A    between atoms: C_10  and  N_11 
REMARK    4  A    between atoms: C_14  and  C_15 
ROOT
HETATM    1  C   UNL     1      39.396 -12.423   0.617  1.00  0.00     0.164 C 
HETATM    2  N   UNL     1      39.147 -13.122  -0.642  1.00  0.00    -0.074 N 
HETATM    3  C   UNL     1      39.434 -14.447  -0.850  1.00  0.00     0.736 C 
HETATM    4  N   UNL     1      38.972 -14.805  -2.019  1.00  0.00     0.131 NA
HETATM    5  C   UNL     1      38.372 -13.668  -2.474  1.00  0.00     0.753 C 
HETATM    6  N   UNL     1      38.385 -12.633  -1.638  1.00  0.00     0.037 NA
HETATM    7  N   UNL     1      40.070 -15.185   0.083  1.00  0.00    -0.214 N 
HETATM    8  C   UNL     1      40.066 -14.708   1.461  1.00  0.00     0.135 C 
HETATM    9  C   UNL     1      40.401 -13.209   1.483  1.00  0.00     0.063 C 
HETATM   10  H   UNL     1      40.010 -16.194  -0.032  1.00  0.00     0.178 HD
ENDROOT
BRANCH   1  11
HETATM   11  C   UNL     1      39.877 -10.986   0.464  1.00  0.00    -0.030 A 
HETATM   12  C   UNL     1      41.148 -10.753  -0.102  1.00  0.00     0.046 A 
HETATM   13  C   UNL     1      41.607  -9.452  -0.328  1.00  0.00     0.068 A 
HETATM   14  C   UNL     1      40.799  -8.373   0.027  1.00  0.00     0.037 A 
HETATM   15  C   UNL     1      39.538  -8.584   0.581  1.00  0.00     0.003 A 
HETATM   16  C   UNL     1      39.074  -9.882   0.789  1.00  0.00     0.009 A 
BRANCH  13  17
HETATM   17  O   UNL     1      42.809  -9.110  -0.882  1.00  0.00    -0.356 OA
HETATM   18  C   UNL     1      42.965  -7.761  -1.305  1.00  0.00     0.210 C 
ENDBRANCH  13  17
ENDBRANCH   1  11
BRANCH   8  19
HETATM   19  C   UNL     1      41.059 -15.485   2.305  1.00  0.00    -0.035 A 
HETATM   20  C   UNL     1      42.288 -15.922   1.781  1.00  0.00     0.010 A 
HETATM   21  C   UNL     1      43.207 -16.600   2.586  1.00  0.00     0.019 A 
HETATM   22  C   UNL     1      42.908 -16.838   3.925  1.00  0.00     0.011 A 
HETATM   23 BR   UNL     1      44.155 -17.746   5.019  1.00  0.00    -0.051 Br
HETATM   24  C   UNL     1      41.700 -16.407   4.466  1.00  0.00     0.019 A 
HETATM   25  C   UNL     1      40.780 -15.732   3.659  1.00  0.00     0.010 A 
ENDBRANCH   8  19
BRANCH   5  26
HETATM   26  N   UNL     1      37.782 -13.694  -3.665  1.00  0.00    -0.229 N 
HETATM   27  H   UNL     1      36.920 -14.214  -3.736  1.00  0.00     0.174 HD
HETATM   28  H   UNL     1      37.823 -12.848  -4.216  1.00  0.00     0.174 HD
ENDBRANCH   5  26
TORSDOF 4
ENDMDL
MODEL 8
REMARK VINA RESULT:      -7.5      3.885      6.817
REMARK  4 active torsions:
REMARK  status: ('A' for Active; 'I' for Inactive)
REMARK    1  A    between atoms: O_2  and  C_3 
REMARK    2  A    between atoms: C_5  and  C_6 
REMARK    3  A    between atoms: C_10  and  N_11 
REMARK    4  A    between atoms: C_14  and  C_15 
ROOT
HETATM    1  C   UNL     1      42.532 -13.715   5.205  1.00  0.00     0.164 C 
HETATM    2  N   UNL     1      43.622 -12.781   5.476  1.00  0.00    -0.074 N 
HETATM    3  C   UNL     1      43.939 -11.721   4.665  1.00  0.00     0.736 C 
HETATM    4  N   UNL     1      44.864 -11.001   5.245  1.00  0.00     0.131 NA
HETATM    5  C   UNL     1      45.052 -11.643   6.433  1.00  0.00     0.753 C 
HETATM    6  N   UNL     1      44.265 -12.692   6.655  1.00  0.00     0.037 NA
HETATM    7  N   UNL     1      43.312 -11.524   3.486  1.00  0.00    -0.214 N 
HETATM    8  C   UNL     1      42.022 -12.168   3.275  1.00  0.00     0.135 C 
HETATM    9  C   UNL     1      42.104 -13.634   3.727  1.00  0.00     0.063 C 
HETATM   10  H   UNL     1      43.411 -10.596   3.081  1.00  0.00     0.178 HD
ENDROOT
BRANCH   1  11
HETATM   11  C   UNL     1      42.831 -15.165   5.566  1.00  0.00    -0.030 A 
HETATM   12  C   UNL     1      43.357 -16.016   4.572  1.00  0.00     0.046 A 
HETATM   13  C   UNL     1      43.713 -17.335   4.869  1.00  0.00     0.068 A 
HETATM   14  C   UNL     1      43.528 -17.815   6.165  1.00  0.00     0.037 A 
HETATM   15  C   UNL     1      43.014 -16.986   7.161  1.00  0.00     0.003 A 
HETATM   16  C   UNL     1      42.678 -15.666   6.868  1.00  0.00     0.009 A 
BRANCH  13  17
HETATM   17  O   UNL     1      44.244 -18.240   3.993  1.00  0.00    -0.356 OA
HETATM   18  C   UNL     1      44.219 -19.607   4.383  1.00  0.00     0.210 C 
ENDBRANCH  13  17
ENDBRANCH   1  11
BRANCH   8  19
HETATM   19  C   UNL     1      41.609 -12.086   1.816  1.00  0.00    -0.035 A 
HETATM   20  C   UNL     1      41.201 -13.224   1.100  1.00  0.00     0.010 A 
HETATM   21  C   UNL     1      40.786 -13.120  -0.230  1.00  0.00     0.019 A 
HETATM   22  C   UNL     1      40.766 -11.874  -0.852  1.00  0.00     0.011 A 
HETATM   23 BR   UNL     1      40.194 -11.730  -2.648  1.00  0.00    -0.051 Br
HETATM   24  C   UNL     1      41.159 -10.733  -0.158  1.00  0.00     0.019 A 
HETATM   25  C   UNL     1      41.578 -10.839   1.171  1.00  0.00     0.010 A 
ENDBRANCH   8  19
BRANCH   5  26
HETATM   26  N   UNL     1      45.946 -11.152   7.286  1.00  0.00    -0.229 N 
HETATM   27  H   UNL     1      46.125 -11.691   8.121  1.00  0.00     0.174 HD
HETATM   28  H   UNL     1      46.751 -10.687   6.890  1.00  0.00     0.174 HD
ENDBRANCH   5  26
TORSDOF 4
ENDMDL
MODEL 9
REMARK VINA RESULT:      -7.4      4.373      7.108
REMARK  4 active torsions:
REMARK  status: ('A' for Active; 'I' for Inactive)
REMARK    1  A    between atoms: O_2  and  C_3 
REMARK    2  A    between atoms: C_5  and  C_6 
REMARK    3  A    between atoms: C_10  and  N_11 
REMARK    4  A    between atoms: C_14  and  C_15 
ROOT
HETATM    1  C   UNL     1      41.815 -14.775   3.748  1.00  0.00     0.164 C 
HETATM    2  N   UNL     1      42.591 -13.550   3.926  1.00  0.00    -0.074 N 
HETATM    3  C   UNL     1      42.402 -12.411   3.185  1.00  0.00     0.736 C 
HETATM    4  N   UNL     1      43.150 -11.456   3.671  1.00  0.00     0.131 NA
HETATM    5  C   UNL     1      43.751 -12.051   4.741  1.00  0.00     0.753 C 
HETATM    6  N   UNL     1      43.386 -13.307   4.985  1.00  0.00     0.037 NA
HETATM    7  N   UNL     1      41.533 -12.379   2.152  1.00  0.00    -0.214 N 
HETATM    8  C   UNL     1      40.492 -13.398   2.095  1.00  0.00     0.135 C 
HETATM    9  C   UNL     1      41.110 -14.776   2.378  1.00  0.00     0.063 C 
HETATM   10  H   UNL     1      41.260 -11.453   1.831  1.00  0.00     0.178 HD
ENDROOT
BRANCH   1  11
HETATM   11  C   UNL     1      42.613 -16.063   3.907  1.00  0.00    -0.030 A 
HETATM   12  C   UNL     1      42.655 -16.682   5.174  1.00  0.00     0.046 A 
HETATM   13  C   UNL     1      43.314 -17.901   5.357  1.00  0.00     0.068 A 
HETATM   14  C   UNL     1      43.952 -18.501   4.272  1.00  0.00     0.037 A 
HETATM   15  C   UNL     1      43.916 -17.906   3.012  1.00  0.00     0.003 A 
HETATM   16  C   UNL     1      43.242 -16.701   2.826  1.00  0.00     0.009 A 
BRANCH  13  17
HETATM   17  O   UNL     1      43.405 -18.596   6.531  1.00  0.00    -0.356 OA
HETATM   18  C   UNL     1      43.497 -20.012   6.437  1.00  0.00     0.210 C 
ENDBRANCH  13  17
ENDBRANCH   1  11
BRANCH   8  19
HETATM   19  C   UNL     1      39.805 -13.393   0.742  1.00  0.00    -0.035 A 
HETATM   20  C   UNL     1      39.931 -14.470  -0.153  1.00  0.00     0.010 A 
HETATM   21  C   UNL     1      39.257 -14.464  -1.377  1.00  0.00     0.019 A 
HETATM   22  C   UNL     1      38.444 -13.385  -1.712  1.00  0.00     0.011 A 
HETATM   23 BR   UNL     1      37.523 -13.380  -3.363  1.00  0.00    -0.051 Br
HETATM   24  C   UNL     1      38.299 -12.311  -0.838  1.00  0.00     0.019 A 
HETATM   25  C   UNL     1      38.977 -12.316   0.385  1.00  0.00     0.010 A 
ENDBRANCH   8  19
BRANCH   5  26
HETATM   26  N   UNL     1      44.592 -11.332   5.478  1.00  0.00    -0.229 N 
HETATM   27  H   UNL     1      44.271 -10.425   5.783  1.00  0.00     0.174 HD
HETATM   28  H   UNL     1      45.164 -11.834   6.142  1.00  0.00     0.174 HD
ENDBRANCH   5  26
TORSDOF 4
ENDMDL
MODEL 10
REMARK VINA RESULT:      -7.4     10.563     14.384
REMARK  4 active torsions:
REMARK  status: ('A' for Active; 'I' for Inactive)
REMARK    1  A    between atoms: O_2  and  C_3 
REMARK    2  A    between atoms: C_5  and  C_6 
REMARK    3  A    between atoms: C_10  and  N_11 
REMARK    4  A    between atoms: C_14  and  C_15 
ROOT
HETATM    1  C   UNL     1      40.540  -7.064  18.533  1.00  0.00     0.164 C 
HETATM    2  N   UNL     1      41.129  -5.734  18.665  1.00  0.00    -0.074 N 
HETATM    3  C   UNL     1      41.778  -5.081  17.648  1.00  0.00     0.736 C 
HETATM    4  N   UNL     1      42.066  -3.867  18.035  1.00  0.00     0.131 NA
HETATM    5  C   UNL     1      41.535  -3.810  19.289  1.00  0.00     0.753 C 
HETATM    6  N   UNL     1      40.885  -4.899  19.692  1.00  0.00     0.037 NA
HETATM    7  N   UNL     1      42.006  -5.680  16.460  1.00  0.00    -0.214 N 
HETATM    8  C   UNL     1      41.197  -6.840  16.105  1.00  0.00     0.135 C 
HETATM    9  C   UNL     1      41.119  -7.794  17.306  1.00  0.00     0.063 C 
HETATM   10  H   UNL     1      42.246  -5.060  15.690  1.00  0.00     0.178 HD
ENDROOT
BRANCH   1  11
HETATM   11  C   UNL     1      40.686  -7.950  19.764  1.00  0.00    -0.030 A 
HETATM   12  C   UNL     1      41.896  -8.649  19.956  1.00  0.00     0.046 A 
HETATM   13  C   UNL     1      42.107  -9.420  21.103  1.00  0.00     0.068 A 
HETATM   14  C   UNL     1      41.097  -9.509  22.060  1.00  0.00     0.037 A 
HETATM   15  C   UNL     1      39.897  -8.820  21.890  1.00  0.00     0.003 A 
HETATM   16  C   UNL     1      39.696  -8.037  20.755  1.00  0.00     0.009 A 
BRANCH  13  17
HETATM   17  O   UNL     1      43.241 -10.124  21.400  1.00  0.00    -0.356 OA
HETATM   18  C   UNL     1      43.243 -11.510  21.082  1.00  0.00     0.210 C 
ENDBRANCH  13  17
ENDBRANCH   1  11
BRANCH   8  19
HETATM   19  C   UNL     1      41.776  -7.553  14.897  1.00  0.00    -0.035 A 
HETATM   20  C   UNL     1      42.913  -7.067  14.229  1.00  0.00     0.010 A 
HETATM   21  C   UNL     1      43.456  -7.761  13.145  1.00  0.00     0.019 A 
HETATM   22  C   UNL     1      42.871  -8.953  12.726  1.00  0.00     0.011 A 
HETATM   23 BR   UNL     1      43.611  -9.899  11.266  1.00  0.00    -0.051 Br
HETATM   24  C   UNL     1      41.750  -9.457  13.378  1.00  0.00     0.019 A 
HETATM   25  C   UNL     1      41.205  -8.759  14.461  1.00  0.00     0.010 A 
ENDBRANCH   8  19
BRANCH   5  26
HETATM   26  N   UNL     1      41.651  -2.678  19.978  1.00  0.00    -0.229 N 
HETATM   27  H   UNL     1      41.348  -2.697  20.941  1.00  0.00     0.174 HD
HETATM   28  H   UNL     1      42.464  -2.109  19.792  1.00  0.00     0.174 HD
ENDBRANCH   5  26
TORSDOF 4
ENDMDL
