MODEL 1
REMARK VINA RESULT:      -8.3      0.000      0.000
REMARK  5 active torsions:
REMARK  status: ('A' for Active; 'I' for Inactive)
REMARK    1  A    between atoms: C_8  and  C_9 
REMARK    2  A    between atoms: C_9  and  N_10 
REMARK    3  A    between atoms: N_10  and  C_13 
REMARK    4  A    between atoms: C_13  and  C_14 
REMARK    5  A    between atoms: C_13  and  C_19 
ROOT
HETATM    1  N   UNL     1      42.365 -16.062   4.600  1.00  0.00    -0.056 N 
HETATM    2  H   UNL     1      41.551 -16.664   4.410  1.00  0.00     0.278 HD
HETATM    3  H   UNL     1      42.409 -16.017   5.625  1.00  0.00     0.278 HD
ENDROOT
BRANCH   1   4
HETATM    4  C   UNL     1      43.579 -16.726   4.070  1.00  0.00     0.275 C 
BRANCH   4   5
HETATM    5  C   UNL     1      43.650 -18.165   4.472  1.00  0.00     0.004 A 
HETATM    6  C   UNL     1      43.733 -19.176   3.525  1.00  0.00     0.113 A 
HETATM    7  C   UNL     1      43.835 -20.503   3.870  1.00  0.00     0.105 A 
HETATM    8  O   UNL     1      43.702 -18.995   2.172  1.00  0.00    -0.322 OA
HETATM    9  C   UNL     1      43.865 -20.907   5.186  1.00  0.00     0.040 A 
HETATM   10  O   UNL     1      43.897 -21.319   2.788  1.00  0.00    -0.323 OA
HETATM   11  C   UNL     1      43.793 -19.918   6.171  1.00  0.00     0.003 A 
HETATM   12  C   UNL     1      43.692 -18.558   5.820  1.00  0.00     0.012 A 
HETATM   13  C   UNL     1      43.869 -20.364   1.712  1.00  0.00     0.352 A 
ENDBRANCH   4   5
ENDBRANCH   1   4
BRANCH   1  14
HETATM   14  C   UNL     1      42.071 -14.689   4.075  1.00  0.00     0.292 C 
BRANCH  14  15
HETATM   15  C   UNL     1      41.158 -13.894   4.969  1.00  0.00     0.190 A 
HETATM   16  N   UNL     1      40.307 -14.495   5.817  1.00  0.00    -0.109 NA
HETATM   17  O   UNL     1      39.703 -13.416   6.473  1.00  0.00    -0.205 OA
HETATM   18  C   UNL     1      40.283 -12.290   5.976  1.00  0.00     0.288 A 
HETATM   19  N   UNL     1      41.203 -12.528   5.072  1.00  0.00    -0.215 NA
ENDBRANCH  14  15
BRANCH  14  20
HETATM   20  C   UNL     1      41.404 -14.708   2.709  1.00  0.00    -0.020 A 
HETATM   21  C   UNL     1      40.538 -15.766   2.375  1.00  0.00     0.011 A 
HETATM   22  C   UNL     1      39.885 -15.793   1.139  1.00  0.00     0.024 A 
HETATM   23  C   UNL     1      40.089 -14.765   0.222  1.00  0.00     0.034 A 
HETATM   24 CL   UNL     1      39.283 -14.799  -1.295  1.00  0.00    -0.084 Cl
HETATM   25  C   UNL     1      40.944 -13.711   0.529  1.00  0.00     0.024 A 
HETATM   26  C   UNL     1      41.597 -13.679   1.766  1.00  0.00     0.011 A 
ENDBRANCH  14  20
ENDBRANCH   1  14
TORSDOF 5
ENDMDL
MODEL 2
REMARK VINA RESULT:      -8.2      1.022      1.792
REMARK  5 active torsions:
REMARK  status: ('A' for Active; 'I' for Inactive)
REMARK    1  A    between atoms: C_8  and  C_9 
REMARK    2  A    between atoms: C_9  and  N_10 
REMARK    3  A    between atoms: N_10  and  C_13 
REMARK    4  A    between atoms: C_13  and  C_14 
REMARK    5  A    between atoms: C_13  and  C_19 
ROOT
HETATM    1  N   UNL     1      42.261 -15.990   4.976  1.00  0.00    -0.056 N 
HETATM    2  H   UNL     1      41.587 -16.658   4.574  1.00  0.00     0.278 HD
HETATM    3  H   UNL     1      42.023 -15.964   5.974  1.00  0.00     0.278 HD
ENDROOT
BRANCH   1   4
HETATM    4  C   UNL     1      43.628 -16.532   4.795  1.00  0.00     0.275 C 
BRANCH   4   5
HETATM    5  C   UNL     1      43.641 -17.734   3.904  1.00  0.00     0.004 A 
HETATM    6  C   UNL     1      43.786 -19.014   4.420  1.00  0.00     0.113 A 
HETATM    7  C   UNL     1      43.765 -20.136   3.625  1.00  0.00     0.105 A 
HETATM    8  O   UNL     1      43.984 -19.317   5.737  1.00  0.00    -0.322 OA
HETATM    9  C   UNL     1      43.594 -20.052   2.262  1.00  0.00     0.040 A 
HETATM   10  O   UNL     1      43.931 -21.280   4.336  1.00  0.00    -0.323 OA
HETATM   11  C   UNL     1      43.436 -18.781   1.704  1.00  0.00     0.003 A 
HETATM   12  C   UNL     1      43.453 -17.631   2.517  1.00  0.00     0.012 A 
HETATM   13  C   UNL     1      44.014 -20.770   5.679  1.00  0.00     0.352 A 
ENDBRANCH   4   5
ENDBRANCH   1   4
BRANCH   1  14
HETATM   14  C   UNL     1      41.996 -14.638   4.386  1.00  0.00     0.292 C 
BRANCH  14  15
HETATM   15  C   UNL     1      41.049 -13.807   5.210  1.00  0.00     0.190 A 
HETATM   16  N   UNL     1      40.241 -14.364   6.126  1.00  0.00    -0.109 NA
HETATM   17  O   UNL     1      39.585 -13.257   6.680  1.00  0.00    -0.205 OA
HETATM   18  C   UNL     1      40.098 -12.158   6.064  1.00  0.00     0.288 A 
HETATM   19  N   UNL     1      41.021 -12.436   5.174  1.00  0.00    -0.215 NA
ENDBRANCH  14  15
BRANCH  14  20
HETATM   20  C   UNL     1      41.387 -14.707   2.995  1.00  0.00    -0.020 A 
HETATM   21  C   UNL     1      40.462 -15.724   2.693  1.00  0.00     0.011 A 
HETATM   22  C   UNL     1      39.861 -15.792   1.433  1.00  0.00     0.024 A 
HETATM   23  C   UNL     1      40.176 -14.849   0.459  1.00  0.00     0.034 A 
HETATM   24 CL   UNL     1      39.435 -14.934  -1.088  1.00  0.00    -0.084 Cl
HETATM   25  C   UNL     1      41.092 -13.837   0.734  1.00  0.00     0.024 A 
HETATM   26  C   UNL     1      41.694 -13.763   1.994  1.00  0.00     0.011 A 
ENDBRANCH  14  20
ENDBRANCH   1  14
TORSDOF 5
ENDMDL
MODEL 3
REMARK VINA RESULT:      -8.0      3.463      4.605
REMARK  5 active torsions:
REMARK  status: ('A' for Active; 'I' for Inactive)
REMARK    1  A    between atoms: C_8  and  C_9 
REMARK    2  A    between atoms: C_9  and  N_10 
REMARK    3  A    between atoms: N_10  and  C_13 
REMARK    4  A    between atoms: C_13  and  C_14 
REMARK    5  A    between atoms: C_13  and  C_19 
ROOT
HETATM    1  N   UNL     1      42.681 -13.678   7.097  1.00  0.00    -0.056 N 
HETATM    2  H   UNL     1      41.801 -13.603   6.566  1.00  0.00     0.278 HD
HETATM    3  H   UNL     1      42.517 -13.109   7.936  1.00  0.00     0.278 HD
ENDROOT
BRANCH   1   4
HETATM    4  C   UNL     1      42.883 -15.096   7.481  1.00  0.00     0.275 C 
BRANCH   4   5
HETATM    5  C   UNL     1      43.124 -15.969   6.290  1.00  0.00     0.004 A 
HETATM    6  C   UNL     1      42.223 -16.018   5.236  1.00  0.00     0.113 A 
HETATM    7  C   UNL     1      42.440 -16.785   4.116  1.00  0.00     0.105 A 
HETATM    8  O   UNL     1      41.033 -15.350   5.183  1.00  0.00    -0.322 OA
HETATM    9  C   UNL     1      43.574 -17.552   3.974  1.00  0.00     0.040 A 
HETATM   10  O   UNL     1      41.430 -16.687   3.214  1.00  0.00    -0.323 OA
HETATM   11  C   UNL     1      44.511 -17.524   5.010  1.00  0.00     0.003 A 
HETATM   12  C   UNL     1      44.293 -16.736   6.157  1.00  0.00     0.012 A 
HETATM   13  C   UNL     1      40.564 -15.738   3.862  1.00  0.00     0.352 A 
ENDBRANCH   4   5
ENDBRANCH   1   4
BRANCH   1  14
HETATM   14  C   UNL     1      43.774 -13.043   6.293  1.00  0.00     0.292 C 
BRANCH  14  15
HETATM   15  C   UNL     1      44.575 -12.035   7.073  1.00  0.00     0.190 A 
HETATM   16  N   UNL     1      44.254 -11.709   8.336  1.00  0.00    -0.109 NA
HETATM   17  O   UNL     1      45.260 -10.801   8.690  1.00  0.00    -0.205 OA
HETATM   18  C   UNL     1      46.093 -10.712   7.618  1.00  0.00     0.288 A 
HETATM   19  N   UNL     1      45.736 -11.471   6.610  1.00  0.00    -0.215 NA
ENDBRANCH  14  15
BRANCH  14  20
HETATM   20  C   UNL     1      43.257 -12.305   5.069  1.00  0.00    -0.020 A 
HETATM   21  C   UNL     1      43.288 -12.940   3.813  1.00  0.00     0.011 A 
HETATM   22  C   UNL     1      42.789 -12.299   2.675  1.00  0.00     0.024 A 
HETATM   23  C   UNL     1      42.256 -11.017   2.776  1.00  0.00     0.034 A 
HETATM   24 CL   UNL     1      41.642 -10.232   1.377  1.00  0.00    -0.084 Cl
HETATM   25  C   UNL     1      42.220 -10.368   4.007  1.00  0.00     0.024 A 
HETATM   26  C   UNL     1      42.715 -11.007   5.148  1.00  0.00     0.011 A 
ENDBRANCH  14  20
ENDBRANCH   1  14
TORSDOF 5
ENDMDL
MODEL 4
REMARK VINA RESULT:      -7.8      4.156      6.837
REMARK  5 active torsions:
REMARK  status: ('A' for Active; 'I' for Inactive)
REMARK    1  A    between atoms: C_8  and  C_9 
REMARK    2  A    between atoms: C_9  and  N_10 
REMARK    3  A    between atoms: N_10  and  C_13 
REMARK    4  A    between atoms: C_13  and  C_14 
REMARK    5  A    between atoms: C_13  and  C_19 
ROOT
HETATM    1  N   UNL     1      42.009 -11.970   1.790  1.00  0.00    -0.056 N 
HETATM    2  H   UNL     1      42.560 -12.483   1.087  1.00  0.00     0.278 HD
HETATM    3  H   UNL     1      42.504 -11.076   1.893  1.00  0.00     0.278 HD
ENDROOT
BRANCH   1   4
HETATM    4  C   UNL     1      40.650 -11.736   1.247  1.00  0.00     0.275 C 
BRANCH   4   5
HETATM    5  C   UNL     1      40.346 -12.636   0.092  1.00  0.00     0.004 A 
HETATM    6  C   UNL     1      40.560 -12.229  -1.217  1.00  0.00     0.113 A 
HETATM    7  C   UNL     1      40.322 -13.051  -2.293  1.00  0.00     0.105 A 
HETATM    8  O   UNL     1      41.000 -10.994  -1.598  1.00  0.00    -0.322 OA
HETATM    9  C   UNL     1      39.856 -14.336  -2.132  1.00  0.00     0.040 A 
HETATM   10  O   UNL     1      40.594 -12.449  -3.479  1.00  0.00    -0.323 OA
HETATM   11  C   UNL     1      39.635 -14.788  -0.828  1.00  0.00     0.003 A 
HETATM   12  C   UNL     1      39.882 -13.949   0.276  1.00  0.00     0.012 A 
HETATM   13  C   UNL     1      41.076 -11.166  -3.040  1.00  0.00     0.352 A 
ENDBRANCH   4   5
ENDBRANCH   1   4
BRANCH   1  14
HETATM   14  C   UNL     1      42.090 -12.714   3.088  1.00  0.00     0.292 C 
BRANCH  14  15
HETATM   15  C   UNL     1      43.187 -12.216   3.990  1.00  0.00     0.190 A 
HETATM   16  N   UNL     1      44.229 -11.519   3.509  1.00  0.00    -0.109 NA
HETATM   17  O   UNL     1      44.965 -11.218   4.662  1.00  0.00    -0.205 OA
HETATM   18  C   UNL     1      44.265 -11.733   5.709  1.00  0.00     0.288 A 
HETATM   19  N   UNL     1      43.151 -12.329   5.356  1.00  0.00    -0.215 NA
ENDBRANCH  14  15
BRANCH  14  20
HETATM   20  C   UNL     1      42.345 -14.201   2.905  1.00  0.00    -0.020 A 
HETATM   21  C   UNL     1      43.128 -14.641   1.821  1.00  0.00     0.011 A 
HETATM   22  C   UNL     1      43.406 -16.000   1.645  1.00  0.00     0.024 A 
HETATM   23  C   UNL     1      42.906 -16.935   2.547  1.00  0.00     0.034 A 
HETATM   24 CL   UNL     1      43.252 -18.604   2.331  1.00  0.00    -0.084 Cl
HETATM   25  C   UNL     1      42.126 -16.523   3.623  1.00  0.00     0.024 A 
HETATM   26  C   UNL     1      41.847 -15.164   3.805  1.00  0.00     0.011 A 
ENDBRANCH  14  20
ENDBRANCH   1  14
TORSDOF 5
ENDMDL
MODEL 5
REMARK VINA RESULT:      -7.8      3.711      7.177
REMARK  5 active torsions:
REMARK  status: ('A' for Active; 'I' for Inactive)
REMARK    1  A    between atoms: C_8  and  C_9 
REMARK    2  A    between atoms: C_9  and  N_10 
REMARK    3  A    between atoms: N_10  and  C_13 
REMARK    4  A    between atoms: C_13  and  C_14 
REMARK    5  A    between atoms: C_13  and  C_19 
ROOT
HETATM    1  N   UNL     1      41.373 -15.079   1.137  1.00  0.00    -0.056 N 
HETATM    2  H   UNL     1      41.913 -15.881   0.781  1.00  0.00     0.278 HD
HETATM    3  H   UNL     1      41.841 -14.261   0.729  1.00  0.00     0.278 HD
ENDROOT
BRANCH   1   4
HETATM    4  C   UNL     1      39.986 -15.177   0.625  1.00  0.00     0.275 C 
BRANCH   4   5
HETATM    5  C   UNL     1      39.795 -14.382  -0.628  1.00  0.00     0.004 A 
HETATM    6  C   UNL     1      40.246 -13.074  -0.729  1.00  0.00     0.113 A 
HETATM    7  C   UNL     1      40.114 -12.335  -1.881  1.00  0.00     0.105 A 
HETATM    8  O   UNL     1      40.841 -12.364   0.275  1.00  0.00    -0.322 OA
HETATM    9  C   UNL     1      39.524 -12.857  -3.010  1.00  0.00     0.040 A 
HETATM   10  O   UNL     1      40.618 -11.081  -1.756  1.00  0.00    -0.323 OA
HETATM   11  C   UNL     1      39.064 -14.175  -2.952  1.00  0.00     0.003 A 
HETATM   12  C   UNL     1      39.202 -14.935  -1.774  1.00  0.00     0.012 A 
HETATM   13  C   UNL     1      41.129 -11.114  -0.412  1.00  0.00     0.352 A 
ENDBRANCH   4   5
ENDBRANCH   1   4
BRANCH   1  14
HETATM   14  C   UNL     1      41.532 -15.026   2.627  1.00  0.00     0.292 C 
BRANCH  14  15
HETATM   15  C   UNL     1      42.285 -13.812   3.100  1.00  0.00     0.190 A 
HETATM   16  N   UNL     1      43.445 -13.440   2.534  1.00  0.00    -0.109 NA
HETATM   17  O   UNL     1      43.769 -12.265   3.225  1.00  0.00    -0.205 OA
HETATM   18  C   UNL     1      42.752 -12.042   4.100  1.00  0.00     0.288 A 
HETATM   19  N   UNL     1      41.801 -12.944   4.045  1.00  0.00    -0.215 NA
ENDBRANCH  14  15
BRANCH  14  20
HETATM   20  C   UNL     1      42.282 -16.224   3.186  1.00  0.00    -0.020 A 
HETATM   21  C   UNL     1      42.764 -17.212   2.306  1.00  0.00     0.011 A 
HETATM   22  C   UNL     1      43.486 -18.308   2.789  1.00  0.00     0.024 A 
HETATM   23  C   UNL     1      43.732 -18.433   4.153  1.00  0.00     0.034 A 
HETATM   24 CL   UNL     1      44.620 -19.780   4.743  1.00  0.00    -0.084 Cl
HETATM   25  C   UNL     1      43.260 -17.472   5.042  1.00  0.00     0.024 A 
HETATM   26  C   UNL     1      42.540 -16.372   4.563  1.00  0.00     0.011 A 
ENDBRANCH  14  20
ENDBRANCH   1  14
TORSDOF 5
ENDMDL
MODEL 6
REMARK VINA RESULT:      -7.8      2.957      3.964
REMARK  5 active torsions:
REMARK  status: ('A' for Active; 'I' for Inactive)
REMARK    1  A    between atoms: C_8  and  C_9 
REMARK    2  A    between atoms: C_9  and  N_10 
REMARK    3  A    between atoms: N_10  and  C_13 
REMARK    4  A    between atoms: C_13  and  C_14 
REMARK    5  A    between atoms: C_13  and  C_19 
ROOT
HETATM    1  N   UNL     1      42.259 -16.319   3.580  1.00  0.00    -0.056 N 
HETATM    2  H   UNL     1      42.373 -16.010   2.603  1.00  0.00     0.278 HD
HETATM    3  H   UNL     1      41.663 -17.152   3.511  1.00  0.00     0.278 HD
ENDROOT
BRANCH   1   4
HETATM    4  C   UNL     1      43.590 -16.692   4.116  1.00  0.00     0.275 C 
BRANCH   4   5
HETATM    5  C   UNL     1      43.650 -18.134   4.510  1.00  0.00     0.004 A 
HETATM    6  C   UNL     1      43.721 -19.140   3.557  1.00  0.00     0.113 A 
HETATM    7  C   UNL     1      43.814 -20.469   3.895  1.00  0.00     0.105 A 
HETATM    8  O   UNL     1      43.689 -18.951   2.205  1.00  0.00    -0.322 OA
HETATM    9  C   UNL     1      43.844 -20.881   5.208  1.00  0.00     0.040 A 
HETATM   10  O   UNL     1      43.866 -21.281   2.808  1.00  0.00    -0.323 OA
HETATM   11  C   UNL     1      43.783 -19.897   6.199  1.00  0.00     0.003 A 
HETATM   12  C   UNL     1      43.692 -18.534   5.855  1.00  0.00     0.012 A 
HETATM   13  C   UNL     1      43.843 -20.319   1.738  1.00  0.00     0.352 A 
ENDBRANCH   4   5
ENDBRANCH   1   4
BRANCH   1  14
HETATM   14  C   UNL     1      41.512 -15.256   4.327  1.00  0.00     0.292 C 
BRANCH  14  15
HETATM   15  C   UNL     1      40.665 -14.388   3.435  1.00  0.00     0.190 A 
HETATM   16  N   UNL     1      40.649 -14.555   2.103  1.00  0.00    -0.109 NA
HETATM   17  O   UNL     1      39.716 -13.600   1.679  1.00  0.00    -0.205 OA
HETATM   18  C   UNL     1      39.248 -12.994   2.803  1.00  0.00     0.288 A 
HETATM   19  N   UNL     1      39.774 -13.460   3.910  1.00  0.00    -0.215 NA
ENDBRANCH  14  15
BRANCH  14  20
HETATM   20  C   UNL     1      42.428 -14.307   5.082  1.00  0.00    -0.020 A 
HETATM   21  C   UNL     1      42.979 -13.198   4.415  1.00  0.00     0.011 A 
HETATM   22  C   UNL     1      43.799 -12.290   5.093  1.00  0.00     0.024 A 
HETATM   23  C   UNL     1      44.079 -12.480   6.443  1.00  0.00     0.034 A 
HETATM   24 CL   UNL     1      45.085 -11.362   7.274  1.00  0.00    -0.084 Cl
HETATM   25  C   UNL     1      43.549 -13.573   7.122  1.00  0.00     0.024 A 
HETATM   26  C   UNL     1      42.726 -14.482   6.449  1.00  0.00     0.011 A 
ENDBRANCH  14  20
ENDBRANCH   1  14
TORSDOF 5
ENDMDL
MODEL 7
REMARK VINA RESULT:      -7.7      1.712      2.599
REMARK  5 active torsions:
REMARK  status: ('A' for Active; 'I' for Inactive)
REMARK    1  A    between atoms: C_8  and  C_9 
REMARK    2  A    between atoms: C_9  and  N_10 
REMARK    3  A    between atoms: N_10  and  C_13 
REMARK    4  A    between atoms: C_13  and  C_14 
REMARK    5  A    between atoms: C_13  and  C_19 
ROOT
HETATM    1  N   UNL     1      42.138 -16.524   2.727  1.00  0.00    -0.056 N 
HETATM    2  H   UNL     1      41.328 -16.819   2.163  1.00  0.00     0.278 HD
HETATM    3  H   UNL     1      41.878 -16.774   3.688  1.00  0.00     0.278 HD
ENDROOT
BRANCH   1   4
HETATM    4  C   UNL     1      43.320 -17.311   2.303  1.00  0.00     0.275 C 
BRANCH   4   5
HETATM    5  C   UNL     1      43.556 -18.491   3.193  1.00  0.00     0.004 A 
HETATM    6  C   UNL     1      43.536 -18.367   4.575  1.00  0.00     0.113 A 
HETATM    7  C   UNL     1      43.714 -19.443   5.414  1.00  0.00     0.105 A 
HETATM    8  O   UNL     1      43.363 -17.200   5.261  1.00  0.00    -0.322 OA
HETATM    9  C   UNL     1      43.922 -20.713   4.925  1.00  0.00     0.040 A 
HETATM   10  O   UNL     1      43.662 -19.095   6.725  1.00  0.00    -0.323 OA
HETATM   11  C   UNL     1      43.941 -20.881   3.538  1.00  0.00     0.003 A 
HETATM   12  C   UNL     1      43.755 -19.781   2.677  1.00  0.00     0.012 A 
HETATM   13  C   UNL     1      43.385 -17.686   6.632  1.00  0.00     0.352 A 
ENDBRANCH   4   5
ENDBRANCH   1   4
BRANCH   1  14
HETATM   14  C   UNL     1      42.261 -15.033   2.635  1.00  0.00     0.292 C 
BRANCH  14  15
HETATM   15  C   UNL     1      41.827 -14.325   3.890  1.00  0.00     0.190 A 
HETATM   16  N   UNL     1      42.668 -13.536   4.578  1.00  0.00    -0.109 NA
HETATM   17  O   UNL     1      41.864 -13.050   5.617  1.00  0.00    -0.205 OA
HETATM   18  C   UNL     1      40.622 -13.569   5.416  1.00  0.00     0.288 A 
HETATM   19  N   UNL     1      40.536 -14.333   4.354  1.00  0.00    -0.215 NA
ENDBRANCH  14  15
BRANCH  14  20
HETATM   20  C   UNL     1      41.428 -14.438   1.512  1.00  0.00    -0.020 A 
HETATM   21  C   UNL     1      41.589 -13.082   1.174  1.00  0.00     0.011 A 
HETATM   22  C   UNL     1      40.860 -12.515   0.123  1.00  0.00     0.024 A 
HETATM   23  C   UNL     1      39.962 -13.295  -0.600  1.00  0.00     0.034 A 
HETATM   24 CL   UNL     1      39.069 -12.597  -1.892  1.00  0.00    -0.084 Cl
HETATM   25  C   UNL     1      39.783 -14.637  -0.280  1.00  0.00     0.024 A 
HETATM   26  C   UNL     1      40.512 -15.209   0.768  1.00  0.00     0.011 A 
ENDBRANCH  14  20
ENDBRANCH   1  14
TORSDOF 5
ENDMDL
MODEL 8
REMARK VINA RESULT:      -7.7      3.725      6.973
REMARK  5 active torsions:
REMARK  status: ('A' for Active; 'I' for Inactive)
REMARK    1  A    between atoms: C_8  and  C_9 
REMARK    2  A    between atoms: C_9  and  N_10 
REMARK    3  A    between atoms: N_10  and  C_13 
REMARK    4  A    between atoms: C_13  and  C_14 
REMARK    5  A    between atoms: C_13  and  C_19 
ROOT
HETATM    1  N   UNL     1      40.520 -14.497   1.553  1.00  0.00    -0.056 N 
HETATM    2  H   UNL     1      39.881 -15.297   1.444  1.00  0.00     0.278 HD
HETATM    3  H   UNL     1      41.291 -14.702   0.906  1.00  0.00     0.278 HD
ENDROOT
BRANCH   1   4
HETATM    4  C   UNL     1      39.815 -13.266   1.123  1.00  0.00     0.275 C 
BRANCH   4   5
HETATM    5  C   UNL     1      40.202 -12.853  -0.261  1.00  0.00     0.004 A 
HETATM    6  C   UNL     1      39.762 -13.555  -1.374  1.00  0.00     0.113 A 
HETATM    7  C   UNL     1      40.076 -13.174  -2.657  1.00  0.00     0.105 A 
HETATM    8  O   UNL     1      39.004 -14.690  -1.343  1.00  0.00    -0.322 OA
HETATM    9  C   UNL     1      40.848 -12.063  -2.913  1.00  0.00     0.040 A 
HETATM   10  O   UNL     1      39.547 -14.005  -3.591  1.00  0.00    -0.323 OA
HETATM   11  C   UNL     1      41.304 -11.323  -1.819  1.00  0.00     0.003 A 
HETATM   12  C   UNL     1      40.981 -11.710  -0.504  1.00  0.00     0.012 A 
HETATM   13  C   UNL     1      38.823 -14.934  -2.765  1.00  0.00     0.352 A 
ENDBRANCH   4   5
ENDBRANCH   1   4
BRANCH   1  14
HETATM   14  C   UNL     1      41.055 -14.506   2.953  1.00  0.00     0.292 C 
BRANCH  14  15
HETATM   15  C   UNL     1      41.886 -13.294   3.278  1.00  0.00     0.190 A 
HETATM   16  N   UNL     1      41.539 -12.447   4.260  1.00  0.00    -0.109 NA
HETATM   17  O   UNL     1      42.585 -11.516   4.256  1.00  0.00    -0.205 OA
HETATM   18  C   UNL     1      43.461 -11.927   3.300  1.00  0.00     0.288 A 
HETATM   19  N   UNL     1      43.097 -13.029   2.690  1.00  0.00    -0.215 NA
ENDBRANCH  14  15
BRANCH  14  20
HETATM   20  C   UNL     1      41.940 -15.707   3.241  1.00  0.00    -0.020 A 
HETATM   21  C   UNL     1      42.311 -15.992   4.569  1.00  0.00     0.011 A 
HETATM   22  C   UNL     1      43.097 -17.109   4.867  1.00  0.00     0.024 A 
HETATM   23  C   UNL     1      43.524 -17.953   3.846  1.00  0.00     0.034 A 
HETATM   24 CL   UNL     1      44.488 -19.326   4.216  1.00  0.00    -0.084 Cl
HETATM   25  C   UNL     1      43.173 -17.688   2.525  1.00  0.00     0.024 A 
HETATM   26  C   UNL     1      42.384 -16.573   2.222  1.00  0.00     0.011 A 
ENDBRANCH  14  20
ENDBRANCH   1  14
TORSDOF 5
ENDMDL
MODEL 9
REMARK VINA RESULT:      -7.5      3.529      4.744
REMARK  5 active torsions:
REMARK  status: ('A' for Active; 'I' for Inactive)
REMARK    1  A    between atoms: C_8  and  C_9 
REMARK    2  A    between atoms: C_9  and  N_10 
REMARK    3  A    between atoms: N_10  and  C_13 
REMARK    4  A    between atoms: C_13  and  C_14 
REMARK    5  A    between atoms: C_13  and  C_19 
ROOT
HETATM    1  N   UNL     1      42.860 -13.538   7.183  1.00  0.00    -0.056 N 
HETATM    2  H   UNL     1      41.934 -13.155   6.947  1.00  0.00     0.278 HD
HETATM    3  H   UNL     1      43.027 -13.217   8.144  1.00  0.00     0.278 HD
ENDROOT
BRANCH   1   4
HETATM    4  C   UNL     1      42.782 -15.018   7.152  1.00  0.00     0.275 C 
BRANCH   4   5
HETATM    5  C   UNL     1      42.352 -15.527   5.812  1.00  0.00     0.004 A 
HETATM    6  C   UNL     1      43.070 -16.512   5.150  1.00  0.00     0.113 A 
HETATM    7  C   UNL     1      42.675 -17.022   3.935  1.00  0.00     0.105 A 
HETATM    8  O   UNL     1      44.235 -17.072   5.591  1.00  0.00    -0.322 OA
HETATM    9  C   UNL     1      41.534 -16.582   3.304  1.00  0.00     0.040 A 
HETATM   10  O   UNL     1      43.526 -17.970   3.467  1.00  0.00    -0.323 OA
HETATM   11  C   UNL     1      40.777 -15.596   3.943  1.00  0.00     0.003 A 
HETATM   12  C   UNL     1      41.178 -15.075   5.189  1.00  0.00     0.012 A 
HETATM   13  C   UNL     1      44.484 -18.044   4.538  1.00  0.00     0.352 A 
ENDBRANCH   4   5
ENDBRANCH   1   4
BRANCH   1  14
HETATM   14  C   UNL     1      43.878 -12.904   6.283  1.00  0.00     0.292 C 
BRANCH  14  15
HETATM   15  C   UNL     1      44.777 -11.931   6.997  1.00  0.00     0.190 A 
HETATM   16  N   UNL     1      45.849 -11.392   6.394  1.00  0.00    -0.109 NA
HETATM   17  O   UNL     1      46.359 -10.529   7.372  1.00  0.00    -0.205 OA
HETATM   18  C   UNL     1      45.517 -10.616   8.437  1.00  0.00     0.288 A 
HETATM   19  N   UNL     1      44.512 -11.438   8.249  1.00  0.00    -0.215 NA
ENDBRANCH  14  15
BRANCH  14  20
HETATM   20  C   UNL     1      43.253 -12.128   5.136  1.00  0.00    -0.020 A 
HETATM   21  C   UNL     1      43.412 -12.593   3.817  1.00  0.00     0.011 A 
HETATM   22  C   UNL     1      42.820 -11.918   2.745  1.00  0.00     0.024 A 
HETATM   23  C   UNL     1      42.065 -10.771   2.976  1.00  0.00     0.034 A 
HETATM   24 CL   UNL     1      41.338  -9.944   1.657  1.00  0.00    -0.084 Cl
HETATM   25  C   UNL     1      41.899 -10.290   4.271  1.00  0.00     0.024 A 
HETATM   26  C   UNL     1      42.486 -10.964   5.347  1.00  0.00     0.011 A 
ENDBRANCH  14  20
ENDBRANCH   1  14
TORSDOF 5
ENDMDL
MODEL 10
REMARK VINA RESULT:      -7.5     13.582     14.622
REMARK  5 active torsions:
REMARK  status: ('A' for Active; 'I' for Inactive)
REMARK    1  A    between atoms: C_8  and  C_9 
REMARK    2  A    between atoms: C_9  and  N_10 
REMARK    3  A    between atoms: N_10  and  C_13 
REMARK    4  A    between atoms: C_13  and  C_14 
REMARK    5  A    between atoms: C_13  and  C_19 
ROOT
HETATM    1  N   UNL     1      45.879 -29.727   1.416  1.00  0.00    -0.056 N 
HETATM    2  H   UNL     1      46.513 -30.028   0.661  1.00  0.00     0.278 HD
HETATM    3  H   UNL     1      45.607 -30.602   1.879  1.00  0.00     0.278 HD
ENDROOT
BRANCH   1   4
HETATM    4  C   UNL     1      46.638 -28.872   2.359  1.00  0.00     0.275 C 
BRANCH   4   5
HETATM    5  C   UNL     1      48.048 -29.343   2.531  1.00  0.00     0.004 A 
HETATM    6  C   UNL     1      48.857 -29.614   1.437  1.00  0.00     0.113 A 
HETATM    7  C   UNL     1      50.166 -30.013   1.569  1.00  0.00     0.105 A 
HETATM    8  O   UNL     1      48.468 -29.542   0.130  1.00  0.00    -0.322 OA
HETATM    9  C   UNL     1      50.753 -30.166   2.804  1.00  0.00     0.040 A 
HETATM   10  O   UNL     1      50.768 -30.229   0.372  1.00  0.00    -0.323 OA
HETATM   11  C   UNL     1      49.974 -29.894   3.932  1.00  0.00     0.003 A 
HETATM   12  C   UNL     1      48.634 -29.481   3.799  1.00  0.00     0.012 A 
HETATM   13  C   UNL     1      49.713 -29.878  -0.542  1.00  0.00     0.352 A 
ENDBRANCH   4   5
ENDBRANCH   1   4
BRANCH   1  14
HETATM   14  C   UNL     1      44.660 -29.116   0.795  1.00  0.00     0.292 C 
BRANCH  14  15
HETATM   15  C   UNL     1      43.373 -29.673   1.341  1.00  0.00     0.190 A 
HETATM   16  N   UNL     1      42.187 -29.108   1.060  1.00  0.00    -0.109 NA
HETATM   17  O   UNL     1      41.276 -29.951   1.710  1.00  0.00    -0.205 OA
HETATM   18  C   UNL     1      42.010 -30.947   2.274  1.00  0.00     0.288 A 
HETATM   19  N   UNL     1      43.299 -30.842   2.054  1.00  0.00    -0.215 NA
ENDBRANCH  14  15
BRANCH  14  20
HETATM   20  C   UNL     1      44.596 -29.319  -0.710  1.00  0.00    -0.020 A 
HETATM   21  C   UNL     1      44.921 -28.253  -1.569  1.00  0.00     0.011 A 
HETATM   22  C   UNL     1      44.903 -28.421  -2.956  1.00  0.00     0.024 A 
HETATM   23  C   UNL     1      44.559 -29.654  -3.504  1.00  0.00     0.034 A 
HETATM   24 CL   UNL     1      44.540 -29.858  -5.209  1.00  0.00    -0.084 Cl
HETATM   25  C   UNL     1      44.229 -30.721  -2.674  1.00  0.00     0.024 A 
HETATM   26  C   UNL     1      44.248 -30.559  -1.285  1.00  0.00     0.011 A 
ENDBRANCH  14  20
ENDBRANCH   1  14
TORSDOF 5
ENDMDL
