MODEL 1
REMARK VINA RESULT:      -9.1      0.000      0.000
REMARK  8 active torsions:
REMARK  status: ('A' for Active; 'I' for Inactive)
REMARK    1  A    between atoms: C_5  and  C_6 
REMARK       I    between atoms: C_6  and  N_7 
REMARK    2  A    between atoms: N_7  and  N_8 
REMARK       I    between atoms: N_8  and  C_9 
REMARK    3  A    between atoms: C_9  and  C_10 
REMARK    4  A    between atoms: C_10  and  S_11 
REMARK    5  A    between atoms: S_11  and  C_12 
REMARK    6  A    between atoms: N_13  and  C_14 
REMARK    7  A    between atoms: C_21  and  C_22 
REMARK    8  A    between atoms: C_22  and  N_23 
ROOT
HETATM    1  C   UNL     1      43.594 -12.712   6.118  1.00  0.00     0.196 A 
HETATM    2  N   UNL     1      42.613 -13.363   5.393  1.00  0.00    -0.274 N 
HETATM    3  C   UNL     1      42.457 -14.569   6.070  1.00  0.00     0.166 A 
HETATM    4  N   UNL     1      43.167 -14.555   7.183  1.00  0.00    -0.131 NA
HETATM    5  N   UNL     1      43.893 -13.396   7.201  1.00  0.00    -0.122 NA
ENDROOT
BRANCH   1   6
HETATM    6  S   UNL     1      44.339 -11.220   5.665  1.00  0.00    -0.080 SA
BRANCH   6   7
HETATM    7  C   UNL     1      45.638 -11.069   6.922  1.00  0.00     0.187 C 
BRANCH   7   8
HETATM    8  C   UNL     1      45.283 -10.179   8.112  1.00  0.00     0.245 C 
HETATM    9  N   UNL     1      44.111 -10.591   8.733  1.00  0.00    -0.267 N 
HETATM   10  H   UNL     1      43.384 -11.043   8.174  1.00  0.00     0.190 HD
HETATM   11  O   UNL     1      45.948  -9.226   8.524  1.00  0.00    -0.271 OA
BRANCH   9  12
HETATM   12  N   UNL     1      43.622  -9.810   9.790  1.00  0.00    -0.263 N 
HETATM   13  C   UNL     1      43.732 -10.317  11.073  1.00  0.00     0.270 C 
HETATM   14  O   UNL     1      44.321 -11.361  11.327  1.00  0.00    -0.266 OA
HETATM   15  H   UNL     1      42.892  -9.147   9.558  1.00  0.00     0.190 HD
BRANCH  13  16
HETATM   16  C   UNL     1      43.051  -9.524  12.131  1.00  0.00     0.033 A 
HETATM   17  C   UNL     1      43.561  -8.292  12.564  1.00  0.00     0.017 A 
HETATM   18  C   UNL     1      42.903  -7.575  13.566  1.00  0.00     0.007 A 
HETATM   19  C   UNL     1      41.729  -8.077  14.141  1.00  0.00    -0.062 A 
HETATM   20  C   UNL     1      41.056  -7.334  15.259  1.00  0.00     0.048 C 
HETATM   21  C   UNL     1      41.239  -9.320  13.723  1.00  0.00     0.007 A 
HETATM   22  C   UNL     1      41.895 -10.042  12.723  1.00  0.00     0.017 A 
ENDBRANCH  13  16
ENDBRANCH   9  12
ENDBRANCH   7   8
ENDBRANCH   6   7
ENDBRANCH   1   6
BRANCH   2  23
HETATM   23  C   UNL     1      41.963 -12.983   4.189  1.00  0.00     0.043 A 
HETATM   24  C   UNL     1      42.607 -13.118   2.951  1.00  0.00     0.033 A 
HETATM   25  C   UNL     1      41.954 -12.732   1.778  1.00  0.00     0.044 A 
HETATM   26  C   UNL     1      40.666 -12.219   1.847  1.00  0.00     0.116 A 
HETATM   27  F   UNL     1      40.042 -11.850   0.722  1.00  0.00    -0.206 F 
HETATM   28  C   UNL     1      40.013 -12.084   3.066  1.00  0.00     0.044 A 
HETATM   29  C   UNL     1      40.659 -12.467   4.244  1.00  0.00     0.033 A 
ENDBRANCH   2  23
BRANCH   3  30
HETATM   30  C   UNL     1      41.819 -15.805   5.507  1.00  0.00     0.255 C 
HETATM   31  C   UNL     1      41.467 -16.750   6.662  1.00  0.00     0.049 C 
BRANCH  30  32
HETATM   32  N   UNL     1      42.769 -16.539   4.519  1.00  0.00    -0.060 N 
HETATM   33  H   UNL     1      43.531 -15.867   4.340  1.00  0.00     0.280 HD
HETATM   34  C   UNL     1      43.348 -17.816   5.085  1.00  0.00     0.236 C 
HETATM   35  C   UNL     1      44.334 -18.437   4.106  1.00  0.00     0.028 C 
HETATM   36  C   UNL     1      43.705 -18.684   2.744  1.00  0.00     0.003 C 
HETATM   37  C   UNL     1      43.101 -17.401   2.197  1.00  0.00     0.028 C 
HETATM   38  C   UNL     1      42.104 -16.787   3.170  1.00  0.00     0.236 C 
ENDBRANCH  30  32
ENDBRANCH   3  30
TORSDOF 8
ENDMDL
MODEL 2
REMARK VINA RESULT:      -9.1      2.945      9.949
REMARK  8 active torsions:
REMARK  status: ('A' for Active; 'I' for Inactive)
REMARK    1  A    between atoms: C_5  and  C_6 
REMARK       I    between atoms: C_6  and  N_7 
REMARK    2  A    between atoms: N_7  and  N_8 
REMARK       I    between atoms: N_8  and  C_9 
REMARK    3  A    between atoms: C_9  and  C_10 
REMARK    4  A    between atoms: C_10  and  S_11 
REMARK    5  A    between atoms: S_11  and  C_12 
REMARK    6  A    between atoms: N_13  and  C_14 
REMARK    7  A    between atoms: C_21  and  C_22 
REMARK    8  A    between atoms: C_22  and  N_23 
ROOT
HETATM    1  C   UNL     1      41.318  -9.256   8.027  1.00  0.00     0.196 A 
HETATM    2  N   UNL     1      42.457  -9.604   8.730  1.00  0.00    -0.274 N 
HETATM    3  C   UNL     1      42.095  -9.396  10.057  1.00  0.00     0.166 A 
HETATM    4  N   UNL     1      40.809  -9.107  10.132  1.00  0.00    -0.131 NA
HETATM    5  N   UNL     1      40.329  -9.003   8.856  1.00  0.00    -0.122 NA
ENDROOT
BRANCH   1   6
HETATM    6  S   UNL     1      41.207  -9.148   6.306  1.00  0.00    -0.080 SA
BRANCH   6   7
HETATM    7  C   UNL     1      39.786 -10.224   5.969  1.00  0.00     0.187 C 
BRANCH   7   8
HETATM    8  C   UNL     1      40.116 -11.710   5.847  1.00  0.00     0.245 C 
HETATM    9  N   UNL     1      41.327 -11.919   5.197  1.00  0.00    -0.267 N 
HETATM   10  H   UNL     1      41.632 -11.248   4.489  1.00  0.00     0.190 HD
HETATM   11  O   UNL     1      39.438 -12.640   6.291  1.00  0.00    -0.271 OA
BRANCH   9  12
HETATM   12  N   UNL     1      41.712 -13.242   4.942  1.00  0.00    -0.263 N 
HETATM   13  C   UNL     1      42.657 -13.461   3.955  1.00  0.00     0.270 C 
HETATM   14  O   UNL     1      43.235 -12.549   3.374  1.00  0.00    -0.266 OA
HETATM   15  H   UNL     1      41.036 -13.959   5.177  1.00  0.00     0.190 HD
BRANCH  13  16
HETATM   16  C   UNL     1      42.904 -14.888   3.615  1.00  0.00     0.033 A 
HETATM   17  C   UNL     1      43.135 -15.847   4.610  1.00  0.00     0.017 A 
HETATM   18  C   UNL     1      43.371 -17.178   4.257  1.00  0.00     0.007 A 
HETATM   19  C   UNL     1      43.374 -17.565   2.911  1.00  0.00    -0.062 A 
HETATM   20  C   UNL     1      43.687 -18.984   2.531  1.00  0.00     0.048 C 
HETATM   21  C   UNL     1      43.167 -16.597   1.920  1.00  0.00     0.007 A 
HETATM   22  C   UNL     1      42.933 -15.264   2.268  1.00  0.00     0.017 A 
ENDBRANCH  13  16
ENDBRANCH   9  12
ENDBRANCH   7   8
ENDBRANCH   6   7
ENDBRANCH   1   6
BRANCH   2  23
HETATM   23  C   UNL     1      43.739  -9.988   8.258  1.00  0.00     0.043 A 
HETATM   24  C   UNL     1      44.841  -9.131   8.389  1.00  0.00     0.033 A 
HETATM   25  C   UNL     1      46.094  -9.525   7.911  1.00  0.00     0.044 A 
HETATM   26  C   UNL     1      46.240 -10.768   7.311  1.00  0.00     0.116 A 
HETATM   27  F   UNL     1      47.441 -11.144   6.854  1.00  0.00    -0.206 F 
HETATM   28  C   UNL     1      45.159 -11.630   7.179  1.00  0.00     0.044 A 
HETATM   29  C   UNL     1      43.902 -11.245   7.653  1.00  0.00     0.033 A 
ENDBRANCH   2  23
BRANCH   3  30
HETATM   30  C   UNL     1      43.049  -9.239  11.204  1.00  0.00     0.255 C 
HETATM   31  C   UNL     1      43.545 -10.627  11.629  1.00  0.00     0.049 C 
BRANCH  30  32
HETATM   32  N   UNL     1      42.372  -8.546  12.421  1.00  0.00    -0.060 N 
HETATM   33  H   UNL     1      41.698  -7.885  12.003  1.00  0.00     0.280 HD
HETATM   34  C   UNL     1      41.638  -9.510  13.324  1.00  0.00     0.236 C 
HETATM   35  C   UNL     1      40.927  -8.760  14.442  1.00  0.00     0.028 C 
HETATM   36  C   UNL     1      41.882  -7.888  15.241  1.00  0.00     0.003 C 
HETATM   37  C   UNL     1      42.636  -6.943  14.319  1.00  0.00     0.028 C 
HETATM   38  C   UNL     1      43.359  -7.694  13.210  1.00  0.00     0.236 C 
ENDBRANCH  30  32
ENDBRANCH   3  30
TORSDOF 8
ENDMDL
MODEL 3
REMARK VINA RESULT:      -9.0      2.789      4.066
REMARK  8 active torsions:
REMARK  status: ('A' for Active; 'I' for Inactive)
REMARK    1  A    between atoms: C_5  and  C_6 
REMARK       I    between atoms: C_6  and  N_7 
REMARK    2  A    between atoms: N_7  and  N_8 
REMARK       I    between atoms: N_8  and  C_9 
REMARK    3  A    between atoms: C_9  and  C_10 
REMARK    4  A    between atoms: C_10  and  S_11 
REMARK    5  A    between atoms: S_11  and  C_12 
REMARK    6  A    between atoms: N_13  and  C_14 
REMARK    7  A    between atoms: C_21  and  C_22 
REMARK    8  A    between atoms: C_22  and  N_23 
ROOT
HETATM    1  C   UNL     1      40.420 -13.480   4.308  1.00  0.00     0.196 A 
HETATM    2  N   UNL     1      41.797 -13.596   4.269  1.00  0.00    -0.274 N 
HETATM    3  C   UNL     1      42.017 -14.495   3.230  1.00  0.00     0.166 A 
HETATM    4  N   UNL     1      40.879 -14.756   2.613  1.00  0.00    -0.131 NA
HETATM    5  N   UNL     1      39.877 -14.131   3.302  1.00  0.00    -0.122 NA
ENDROOT
BRANCH   1   6
HETATM    6  S   UNL     1      39.529 -12.619   5.512  1.00  0.00    -0.080 SA
BRANCH   6   7
HETATM    7  C   UNL     1      39.983 -10.903   5.139  1.00  0.00     0.187 C 
BRANCH   7   8
HETATM    8  C   UNL     1      40.125  -9.994   6.358  1.00  0.00     0.245 C 
HETATM    9  N   UNL     1      41.025 -10.507   7.284  1.00  0.00    -0.267 N 
HETATM   10  H   UNL     1      41.132 -11.521   7.363  1.00  0.00     0.190 HD
HETATM   11  O   UNL     1      39.557  -8.912   6.522  1.00  0.00    -0.271 OA
BRANCH   9  12
HETATM   12  N   UNL     1      41.187  -9.815   8.492  1.00  0.00    -0.263 N 
HETATM   13  C   UNL     1      42.401  -9.191   8.721  1.00  0.00     0.270 C 
HETATM   14  O   UNL     1      43.290  -9.137   7.879  1.00  0.00    -0.266 OA
HETATM   15  H   UNL     1      40.610 -10.122   9.266  1.00  0.00     0.190 HD
BRANCH  13  16
HETATM   16  C   UNL     1      42.574  -8.615  10.082  1.00  0.00     0.033 A 
HETATM   17  C   UNL     1      42.151  -7.314  10.384  1.00  0.00     0.017 A 
HETATM   18  C   UNL     1      42.334  -6.799  11.670  1.00  0.00     0.007 A 
HETATM   19  C   UNL     1      42.936  -7.578  12.665  1.00  0.00    -0.062 A 
HETATM   20  C   UNL     1      43.187  -7.002  14.030  1.00  0.00     0.048 C 
HETATM   21  C   UNL     1      43.380  -8.868  12.350  1.00  0.00     0.007 A 
HETATM   22  C   UNL     1      43.201  -9.387  11.065  1.00  0.00     0.017 A 
ENDBRANCH  13  16
ENDBRANCH   9  12
ENDBRANCH   7   8
ENDBRANCH   6   7
ENDBRANCH   1   6
BRANCH   2  23
HETATM   23  C   UNL     1      42.785 -13.036   5.121  1.00  0.00     0.043 A 
HETATM   24  C   UNL     1      42.966 -13.518   6.426  1.00  0.00     0.033 A 
HETATM   25  C   UNL     1      43.938 -12.949   7.251  1.00  0.00     0.044 A 
HETATM   26  C   UNL     1      44.724 -11.909   6.772  1.00  0.00     0.116 A 
HETATM   27  F   UNL     1      45.655 -11.366   7.565  1.00  0.00    -0.206 F 
HETATM   28  C   UNL     1      44.560 -11.425   5.480  1.00  0.00     0.044 A 
HETATM   29  C   UNL     1      43.589 -11.987   4.647  1.00  0.00     0.033 A 
ENDBRANCH   2  23
BRANCH   3  30
HETATM   30  C   UNL     1      43.280 -15.274   3.008  1.00  0.00     0.255 C 
HETATM   31  C   UNL     1      43.510 -15.425   1.499  1.00  0.00     0.049 C 
BRANCH  30  32
HETATM   32  N   UNL     1      43.203 -16.686   3.656  1.00  0.00    -0.060 N 
HETATM   33  H   UNL     1      42.203 -16.820   3.873  1.00  0.00     0.280 HD
HETATM   34  C   UNL     1      43.669 -17.791   2.735  1.00  0.00     0.236 C 
HETATM   35  C   UNL     1      43.485 -19.151   3.395  1.00  0.00     0.028 C 
HETATM   36  C   UNL     1      44.190 -19.231   4.740  1.00  0.00     0.003 C 
HETATM   37  C   UNL     1      43.736 -18.099   5.646  1.00  0.00     0.028 C 
HETATM   38  C   UNL     1      43.933 -16.739   4.992  1.00  0.00     0.236 C 
ENDBRANCH  30  32
ENDBRANCH   3  30
TORSDOF 8
ENDMDL
MODEL 4
REMARK VINA RESULT:      -9.0      3.539     10.522
REMARK  8 active torsions:
REMARK  status: ('A' for Active; 'I' for Inactive)
REMARK    1  A    between atoms: C_5  and  C_6 
REMARK       I    between atoms: C_6  and  N_7 
REMARK    2  A    between atoms: N_7  and  N_8 
REMARK       I    between atoms: N_8  and  C_9 
REMARK    3  A    between atoms: C_9  and  C_10 
REMARK    4  A    between atoms: C_10  and  S_11 
REMARK    5  A    between atoms: S_11  and  C_12 
REMARK    6  A    between atoms: N_13  and  C_14 
REMARK    7  A    between atoms: C_21  and  C_22 
REMARK    8  A    between atoms: C_22  and  N_23 
ROOT
HETATM    1  C   UNL     1      40.303  -9.675   7.836  1.00  0.00     0.196 A 
HETATM    2  N   UNL     1      40.967  -9.175   8.941  1.00  0.00    -0.274 N 
HETATM    3  C   UNL     1      39.977  -8.477   9.625  1.00  0.00     0.166 A 
HETATM    4  N   UNL     1      38.805  -8.685   9.055  1.00  0.00    -0.131 NA
HETATM    5  N   UNL     1      39.015  -9.423   7.923  1.00  0.00    -0.122 NA
ENDROOT
BRANCH   1   6
HETATM    6  S   UNL     1      41.052 -10.499   6.514  1.00  0.00    -0.080 SA
BRANCH   6   7
HETATM    7  C   UNL     1      39.697 -11.556   5.934  1.00  0.00     0.187 C 
BRANCH   7   8
HETATM    8  C   UNL     1      40.068 -13.023   5.724  1.00  0.00     0.245 C 
HETATM    9  N   UNL     1      40.815 -13.206   4.567  1.00  0.00    -0.267 N 
HETATM   10  H   UNL     1      40.665 -12.578   3.774  1.00  0.00     0.190 HD
HETATM   11  O   UNL     1      39.790 -13.954   6.483  1.00  0.00    -0.271 OA
BRANCH   9  12
HETATM   12  N   UNL     1      41.152 -14.518   4.207  1.00  0.00    -0.263 N 
HETATM   13  C   UNL     1      42.443 -14.947   4.460  1.00  0.00     0.270 C 
HETATM   14  O   UNL     1      43.262 -14.268   5.068  1.00  0.00    -0.266 OA
HETATM   15  H   UNL     1      40.608 -14.932   3.459  1.00  0.00     0.190 HD
BRANCH  13  16
HETATM   16  C   UNL     1      42.789 -16.285   3.909  1.00  0.00     0.033 A 
HETATM   17  C   UNL     1      43.758 -17.097   4.515  1.00  0.00     0.017 A 
HETATM   18  C   UNL     1      44.066 -18.345   3.969  1.00  0.00     0.007 A 
HETATM   19  C   UNL     1      43.408 -18.796   2.818  1.00  0.00    -0.062 A 
HETATM   20  C   UNL     1      43.783 -20.112   2.198  1.00  0.00     0.048 C 
HETATM   21  C   UNL     1      42.460 -17.970   2.202  1.00  0.00     0.007 A 
HETATM   22  C   UNL     1      42.150 -16.719   2.744  1.00  0.00     0.017 A 
ENDBRANCH  13  16
ENDBRANCH   9  12
ENDBRANCH   7   8
ENDBRANCH   6   7
ENDBRANCH   1   6
BRANCH   2  23
HETATM   23  C   UNL     1      42.342  -9.243   9.287  1.00  0.00     0.043 A 
HETATM   24  C   UNL     1      42.794 -10.137  10.268  1.00  0.00     0.033 A 
HETATM   25  C   UNL     1      44.150 -10.184  10.600  1.00  0.00     0.044 A 
HETATM   26  C   UNL     1      45.045  -9.345   9.951  1.00  0.00     0.116 A 
HETATM   27  F   UNL     1      46.344  -9.392  10.269  1.00  0.00    -0.206 F 
HETATM   28  C   UNL     1      44.614  -8.458   8.972  1.00  0.00     0.044 A 
HETATM   29  C   UNL     1      43.259  -8.403   8.634  1.00  0.00     0.033 A 
ENDBRANCH   2  23
BRANCH   3  30
HETATM   30  C   UNL     1      40.219  -7.426  10.669  1.00  0.00     0.255 C 
HETATM   31  C   UNL     1      40.910  -6.225  10.012  1.00  0.00     0.049 C 
BRANCH  30  32
HETATM   32  N   UNL     1      41.115  -7.962  11.822  1.00  0.00    -0.060 N 
HETATM   33  H   UNL     1      41.522  -8.835  11.453  1.00  0.00     0.280 HD
HETATM   34  C   UNL     1      42.227  -7.011  12.204  1.00  0.00     0.236 C 
HETATM   35  C   UNL     1      43.117  -7.631  13.273  1.00  0.00     0.028 C 
HETATM   36  C   UNL     1      42.323  -8.058  14.497  1.00  0.00     0.003 C 
HETATM   37  C   UNL     1      41.190  -8.989  14.098  1.00  0.00     0.028 C 
HETATM   38  C   UNL     1      40.293  -8.365  13.040  1.00  0.00     0.236 C 
ENDBRANCH  30  32
ENDBRANCH   3  30
TORSDOF 8
ENDMDL
MODEL 5
REMARK VINA RESULT:      -8.8      1.969      3.620
REMARK  8 active torsions:
REMARK  status: ('A' for Active; 'I' for Inactive)
REMARK    1  A    between atoms: C_5  and  C_6 
REMARK       I    between atoms: C_6  and  N_7 
REMARK    2  A    between atoms: N_7  and  N_8 
REMARK       I    between atoms: N_8  and  C_9 
REMARK    3  A    between atoms: C_9  and  C_10 
REMARK    4  A    between atoms: C_10  and  S_11 
REMARK    5  A    between atoms: S_11  and  C_12 
REMARK    6  A    between atoms: N_13  and  C_14 
REMARK    7  A    between atoms: C_21  and  C_22 
REMARK    8  A    between atoms: C_22  and  N_23 
ROOT
HETATM    1  C   UNL     1      42.942 -11.991   5.508  1.00  0.00     0.196 A 
HETATM    2  N   UNL     1      42.278 -12.594   4.455  1.00  0.00    -0.274 N 
HETATM    3  C   UNL     1      41.456 -11.583   3.970  1.00  0.00     0.166 A 
HETATM    4  N   UNL     1      41.732 -10.446   4.582  1.00  0.00    -0.131 NA
HETATM    5  N   UNL     1      42.652 -10.710   5.558  1.00  0.00    -0.122 NA
ENDROOT
BRANCH   1   6
HETATM    6  S   UNL     1      43.991 -12.802   6.617  1.00  0.00    -0.080 SA
BRANCH   6   7
HETATM    7  C   UNL     1      45.292 -11.561   6.856  1.00  0.00     0.187 C 
BRANCH   7   8
HETATM    8  C   UNL     1      45.119 -10.673   8.086  1.00  0.00     0.245 C 
HETATM    9  N   UNL     1      43.836 -10.766   8.613  1.00  0.00    -0.267 N 
HETATM   10  H   UNL     1      43.054 -10.960   7.985  1.00  0.00     0.190 HD
HETATM   11  O   UNL     1      45.993  -9.974   8.602  1.00  0.00    -0.271 OA
BRANCH   9  12
HETATM   12  N   UNL     1      43.514  -9.936   9.696  1.00  0.00    -0.263 N 
HETATM   13  C   UNL     1      43.538 -10.491  10.964  1.00  0.00     0.270 C 
HETATM   14  O   UNL     1      43.923 -11.633  11.183  1.00  0.00    -0.266 OA
HETATM   15  H   UNL     1      42.918  -9.143   9.492  1.00  0.00     0.190 HD
BRANCH  13  16
HETATM   16  C   UNL     1      43.029  -9.613  12.052  1.00  0.00     0.033 A 
HETATM   17  C   UNL     1      43.621  -8.373  12.330  1.00  0.00     0.017 A 
HETATM   18  C   UNL     1      43.123  -7.576  13.363  1.00  0.00     0.007 A 
HETATM   19  C   UNL     1      42.031  -8.005  14.126  1.00  0.00    -0.062 A 
HETATM   20  C   UNL     1      41.536  -7.175  15.275  1.00  0.00     0.048 C 
HETATM   21  C   UNL     1      41.460  -9.257  13.861  1.00  0.00     0.007 A 
HETATM   22  C   UNL     1      41.955 -10.059  12.830  1.00  0.00     0.017 A 
ENDBRANCH  13  16
ENDBRANCH   9  12
ENDBRANCH   7   8
ENDBRANCH   6   7
ENDBRANCH   1   6
BRANCH   2  23
HETATM   23  C   UNL     1      42.316 -13.939   4.003  1.00  0.00     0.043 A 
HETATM   24  C   UNL     1      43.120 -14.310   2.916  1.00  0.00     0.033 A 
HETATM   25  C   UNL     1      43.139 -15.637   2.481  1.00  0.00     0.044 A 
HETATM   26  C   UNL     1      42.361 -16.584   3.133  1.00  0.00     0.116 A 
HETATM   27  F   UNL     1      42.380 -17.856   2.716  1.00  0.00    -0.206 F 
HETATM   28  C   UNL     1      41.563 -16.233   4.216  1.00  0.00     0.044 A 
HETATM   29  C   UNL     1      41.538 -14.907   4.657  1.00  0.00     0.033 A 
ENDBRANCH   2  23
BRANCH   3  30
HETATM   30  C   UNL     1      40.251 -11.786   3.099  1.00  0.00     0.255 C 
HETATM   31  C   UNL     1      39.185 -12.547   3.897  1.00  0.00     0.049 C 
BRANCH  30  32
HETATM   32  N   UNL     1      40.602 -12.595   1.817  1.00  0.00    -0.060 N 
HETATM   33  H   UNL     1      41.589 -12.869   1.943  1.00  0.00     0.280 HD
HETATM   34  C   UNL     1      39.755 -13.834   1.643  1.00  0.00     0.236 C 
HETATM   35  C   UNL     1      40.206 -14.624   0.423  1.00  0.00     0.028 C 
HETATM   36  C   UNL     1      40.195 -13.778  -0.840  1.00  0.00     0.003 C 
HETATM   37  C   UNL     1      41.026 -12.520  -0.644  1.00  0.00     0.028 C 
HETATM   38  C   UNL     1      40.565 -11.723   0.568  1.00  0.00     0.236 C 
ENDBRANCH  30  32
ENDBRANCH   3  30
TORSDOF 8
ENDMDL
MODEL 6
REMARK VINA RESULT:      -8.8      3.130     10.265
REMARK  8 active torsions:
REMARK  status: ('A' for Active; 'I' for Inactive)
REMARK    1  A    between atoms: C_5  and  C_6 
REMARK       I    between atoms: C_6  and  N_7 
REMARK    2  A    between atoms: N_7  and  N_8 
REMARK       I    between atoms: N_8  and  C_9 
REMARK    3  A    between atoms: C_9  and  C_10 
REMARK    4  A    between atoms: C_10  and  S_11 
REMARK    5  A    between atoms: S_11  and  C_12 
REMARK    6  A    between atoms: N_13  and  C_14 
REMARK    7  A    between atoms: C_21  and  C_22 
REMARK    8  A    between atoms: C_22  and  N_23 
ROOT
HETATM    1  C   UNL     1      41.015  -9.184   8.688  1.00  0.00     0.196 A 
HETATM    2  N   UNL     1      42.187  -9.473   9.362  1.00  0.00    -0.274 N 
HETATM    3  C   UNL     1      41.813  -9.415  10.701  1.00  0.00     0.166 A 
HETATM    4  N   UNL     1      40.505  -9.264  10.796  1.00  0.00    -0.131 NA
HETATM    5  N   UNL     1      40.010  -9.103   9.532  1.00  0.00    -0.122 NA
ENDROOT
BRANCH   1   6
HETATM    6  S   UNL     1      40.883  -8.945   6.981  1.00  0.00    -0.080 SA
BRANCH   6   7
HETATM    7  C   UNL     1      40.114 -10.502   6.457  1.00  0.00     0.187 C 
BRANCH   7   8
HETATM    8  C   UNL     1      41.072 -11.516   5.834  1.00  0.00     0.245 C 
HETATM    9  N   UNL     1      40.535 -12.797   5.830  1.00  0.00    -0.267 N 
HETATM   10  H   UNL     1      39.887 -13.067   6.573  1.00  0.00     0.190 HD
HETATM   11  O   UNL     1      42.177 -11.264   5.350  1.00  0.00    -0.271 OA
BRANCH   9  12
HETATM   12  N   UNL     1      41.343 -13.843   5.363  1.00  0.00    -0.263 N 
HETATM   13  C   UNL     1      41.021 -14.414   4.145  1.00  0.00     0.270 C 
HETATM   14  O   UNL     1      40.131 -13.982   3.422  1.00  0.00    -0.266 OA
HETATM   15  H   UNL     1      41.839 -14.376   6.068  1.00  0.00     0.190 HD
BRANCH  13  16
HETATM   16  C   UNL     1      41.809 -15.623   3.780  1.00  0.00     0.033 A 
HETATM   17  C   UNL     1      41.474 -16.405   2.666  1.00  0.00     0.017 A 
HETATM   18  C   UNL     1      42.229 -17.538   2.355  1.00  0.00     0.007 A 
HETATM   19  C   UNL     1      43.326 -17.898   3.146  1.00  0.00    -0.062 A 
HETATM   20  C   UNL     1      44.100 -19.150   2.845  1.00  0.00     0.048 C 
HETATM   21  C   UNL     1      43.640 -17.128   4.273  1.00  0.00     0.007 A 
HETATM   22  C   UNL     1      42.886 -15.994   4.590  1.00  0.00     0.017 A 
ENDBRANCH  13  16
ENDBRANCH   9  12
ENDBRANCH   7   8
ENDBRANCH   6   7
ENDBRANCH   1   6
BRANCH   2  23
HETATM   23  C   UNL     1      43.499  -9.685   8.863  1.00  0.00     0.043 A 
HETATM   24  C   UNL     1      43.882 -10.934   8.354  1.00  0.00     0.033 A 
HETATM   25  C   UNL     1      45.180 -11.124   7.873  1.00  0.00     0.044 A 
HETATM   26  C   UNL     1      46.084 -10.071   7.899  1.00  0.00     0.116 A 
HETATM   27  F   UNL     1      47.326 -10.255   7.438  1.00  0.00    -0.206 F 
HETATM   28  C   UNL     1      45.717  -8.825   8.395  1.00  0.00     0.044 A 
HETATM   29  C   UNL     1      44.421  -8.626   8.879  1.00  0.00     0.033 A 
ENDBRANCH   2  23
BRANCH   3  30
HETATM   30  C   UNL     1      42.754  -9.259  11.860  1.00  0.00     0.255 C 
HETATM   31  C   UNL     1      43.078 -10.647  12.425  1.00  0.00     0.049 C 
BRANCH  30  32
HETATM   32  N   UNL     1      42.134  -8.382  12.985  1.00  0.00    -0.060 N 
HETATM   33  H   UNL     1      41.156  -8.233  12.692  1.00  0.00     0.280 HD
HETATM   34  C   UNL     1      42.155  -9.050  14.341  1.00  0.00     0.236 C 
HETATM   35  C   UNL     1      41.458  -8.180  15.377  1.00  0.00     0.028 C 
HETATM   36  C   UNL     1      42.060  -6.786  15.450  1.00  0.00     0.003 C 
HETATM   37  C   UNL     1      42.061  -6.136  14.076  1.00  0.00     0.028 C 
HETATM   38  C   UNL     1      42.771  -6.999  13.043  1.00  0.00     0.236 C 
ENDBRANCH  30  32
ENDBRANCH   3  30
TORSDOF 8
ENDMDL
MODEL 7
REMARK VINA RESULT:      -8.5      3.147     10.508
REMARK  8 active torsions:
REMARK  status: ('A' for Active; 'I' for Inactive)
REMARK    1  A    between atoms: C_5  and  C_6 
REMARK       I    between atoms: C_6  and  N_7 
REMARK    2  A    between atoms: N_7  and  N_8 
REMARK       I    between atoms: N_8  and  C_9 
REMARK    3  A    between atoms: C_9  and  C_10 
REMARK    4  A    between atoms: C_10  and  S_11 
REMARK    5  A    between atoms: S_11  and  C_12 
REMARK    6  A    between atoms: N_13  and  C_14 
REMARK    7  A    between atoms: C_21  and  C_22 
REMARK    8  A    between atoms: C_22  and  N_23 
ROOT
HETATM    1  C   UNL     1      43.853 -10.238  10.520  1.00  0.00     0.196 A 
HETATM    2  N   UNL     1      42.880  -9.430  11.080  1.00  0.00    -0.274 N 
HETATM    3  C   UNL     1      42.477 -10.141  12.205  1.00  0.00     0.166 A 
HETATM    4  N   UNL     1      43.256 -11.193  12.376  1.00  0.00    -0.131 NA
HETATM    5  N   UNL     1      44.107 -11.260  11.308  1.00  0.00    -0.122 NA
ENDROOT
BRANCH   1   6
HETATM    6  S   UNL     1      44.618  -9.963   8.995  1.00  0.00    -0.080 SA
BRANCH   6   7
HETATM    7  C   UNL     1      43.422 -10.707   7.852  1.00  0.00     0.187 C 
BRANCH   7   8
HETATM    8  C   UNL     1      43.940 -11.913   7.072  1.00  0.00     0.245 C 
HETATM    9  N   UNL     1      42.909 -12.759   6.683  1.00  0.00    -0.267 N 
HETATM   10  H   UNL     1      42.073 -12.825   7.269  1.00  0.00     0.190 HD
HETATM   11  O   UNL     1      45.116 -12.128   6.770  1.00  0.00    -0.271 OA
BRANCH   9  12
HETATM   12  N   UNL     1      43.251 -13.951   6.031  1.00  0.00    -0.263 N 
HETATM   13  C   UNL     1      42.833 -14.116   4.722  1.00  0.00     0.270 C 
HETATM   14  O   UNL     1      42.269 -13.231   4.088  1.00  0.00    -0.266 OA
HETATM   15  H   UNL     1      43.417 -14.755   6.625  1.00  0.00     0.190 HD
BRANCH  13  16
HETATM   16  C   UNL     1      43.081 -15.461   4.139  1.00  0.00     0.033 A 
HETATM   17  C   UNL     1      42.981 -15.690   2.759  1.00  0.00     0.017 A 
HETATM   18  C   UNL     1      43.212 -16.967   2.243  1.00  0.00     0.007 A 
HETATM   19  C   UNL     1      43.549 -18.026   3.096  1.00  0.00    -0.062 A 
HETATM   20  C   UNL     1      43.739 -19.410   2.546  1.00  0.00     0.048 C 
HETATM   21  C   UNL     1      43.622 -17.797   4.476  1.00  0.00     0.007 A 
HETATM   22  C   UNL     1      43.389 -16.521   4.997  1.00  0.00     0.017 A 
ENDBRANCH  13  16
ENDBRANCH   9  12
ENDBRANCH   7   8
ENDBRANCH   6   7
ENDBRANCH   1   6
BRANCH   2  23
HETATM   23  C   UNL     1      42.323  -8.213  10.608  1.00  0.00     0.043 A 
HETATM   24  C   UNL     1      41.308  -8.214   9.640  1.00  0.00     0.033 A 
HETATM   25  C   UNL     1      40.777  -7.006   9.184  1.00  0.00     0.044 A 
HETATM   26  C   UNL     1      41.257  -5.808   9.694  1.00  0.00     0.116 A 
HETATM   27  F   UNL     1      40.746  -4.651   9.256  1.00  0.00    -0.206 F 
HETATM   28  C   UNL     1      42.258  -5.791  10.658  1.00  0.00     0.044 A 
HETATM   29  C   UNL     1      42.796  -6.994  11.120  1.00  0.00     0.033 A 
ENDBRANCH   2  23
BRANCH   3  30
HETATM   30  C   UNL     1      41.194  -9.927  12.954  1.00  0.00     0.255 C 
HETATM   31  C   UNL     1      40.018 -10.175  12.003  1.00  0.00     0.049 C 
BRANCH  30  32
HETATM   32  N   UNL     1      41.097  -8.481  13.520  1.00  0.00    -0.060 N 
HETATM   33  H   UNL     1      41.858  -7.965  13.051  1.00  0.00     0.280 HD
HETATM   34  C   UNL     1      39.776  -7.811  13.220  1.00  0.00     0.236 C 
HETATM   35  C   UNL     1      39.778  -6.374  13.721  1.00  0.00     0.028 C 
HETATM   36  C   UNL     1      40.105  -6.289  15.204  1.00  0.00     0.003 C 
HETATM   37  C   UNL     1      41.421  -6.991  15.499  1.00  0.00     0.028 C 
HETATM   38  C   UNL     1      41.413  -8.432  15.010  1.00  0.00     0.236 C 
ENDBRANCH  30  32
ENDBRANCH   3  30
TORSDOF 8
ENDMDL
MODEL 8
REMARK VINA RESULT:      -8.2      1.899      2.402
REMARK  8 active torsions:
REMARK  status: ('A' for Active; 'I' for Inactive)
REMARK    1  A    between atoms: C_5  and  C_6 
REMARK       I    between atoms: C_6  and  N_7 
REMARK    2  A    between atoms: N_7  and  N_8 
REMARK       I    between atoms: N_8  and  C_9 
REMARK    3  A    between atoms: C_9  and  C_10 
REMARK    4  A    between atoms: C_10  and  S_11 
REMARK    5  A    between atoms: S_11  and  C_12 
REMARK    6  A    between atoms: N_13  and  C_14 
REMARK    7  A    between atoms: C_21  and  C_22 
REMARK    8  A    between atoms: C_22  and  N_23 
ROOT
HETATM    1  C   UNL     1      42.060 -12.065   5.052  1.00  0.00     0.196 A 
HETATM    2  N   UNL     1      41.307 -12.970   4.327  1.00  0.00    -0.274 N 
HETATM    3  C   UNL     1      41.284 -14.098   5.141  1.00  0.00     0.166 A 
HETATM    4  N   UNL     1      41.839 -13.822   6.307  1.00  0.00    -0.131 NA
HETATM    5  N   UNL     1      42.340 -12.552   6.241  1.00  0.00    -0.122 NA
ENDROOT
BRANCH   1   6
HETATM    6  S   UNL     1      42.580 -10.520   4.478  1.00  0.00    -0.080 SA
BRANCH   6   7
HETATM    7  C   UNL     1      41.214  -9.457   5.017  1.00  0.00     0.187 C 
BRANCH   7   8
HETATM    8  C   UNL     1      41.434  -8.752   6.355  1.00  0.00     0.245 C 
HETATM    9  N   UNL     1      41.408  -9.645   7.419  1.00  0.00    -0.267 N 
HETATM   10  H   UNL     1      40.827 -10.483   7.351  1.00  0.00     0.190 HD
HETATM   11  O   UNL     1      41.648  -7.548   6.510  1.00  0.00    -0.271 OA
BRANCH   9  12
HETATM   12  N   UNL     1      41.513  -9.120   8.715  1.00  0.00    -0.263 N 
HETATM   13  C   UNL     1      42.629  -9.456   9.460  1.00  0.00     0.270 C 
HETATM   14  O   UNL     1      43.564 -10.103   9.002  1.00  0.00    -0.266 OA
HETATM   15  H   UNL     1      40.642  -8.875   9.171  1.00  0.00     0.190 HD
BRANCH  13  16
HETATM   16  C   UNL     1      42.606  -9.008  10.878  1.00  0.00     0.033 A 
HETATM   17  C   UNL     1      42.329  -9.901  11.923  1.00  0.00     0.017 A 
HETATM   18  C   UNL     1      42.308  -9.448  13.244  1.00  0.00     0.007 A 
HETATM   19  C   UNL     1      42.566  -8.103  13.536  1.00  0.00    -0.062 A 
HETATM   20  C   UNL     1      42.483  -7.606  14.950  1.00  0.00     0.048 C 
HETATM   21  C   UNL     1      42.817  -7.211  12.486  1.00  0.00     0.007 A 
HETATM   22  C   UNL     1      42.837  -7.659  11.163  1.00  0.00     0.017 A 
ENDBRANCH  13  16
ENDBRANCH   9  12
ENDBRANCH   7   8
ENDBRANCH   6   7
ENDBRANCH   1   6
BRANCH   2  23
HETATM   23  C   UNL     1      40.754 -12.861   3.024  1.00  0.00     0.043 A 
HETATM   24  C   UNL     1      39.455 -12.367   2.833  1.00  0.00     0.033 A 
HETATM   25  C   UNL     1      38.927 -12.274   1.543  1.00  0.00     0.044 A 
HETATM   26  C   UNL     1      39.693 -12.669   0.456  1.00  0.00     0.116 A 
HETATM   27  F   UNL     1      39.185 -12.578  -0.779  1.00  0.00    -0.206 F 
HETATM   28  C   UNL     1      40.984 -13.155   0.629  1.00  0.00     0.044 A 
HETATM   29  C   UNL     1      41.521 -13.253   1.915  1.00  0.00     0.033 A 
ENDBRANCH   2  23
BRANCH   3  30
HETATM   30  C   UNL     1      40.949 -15.489   4.689  1.00  0.00     0.255 C 
HETATM   31  C   UNL     1      40.443 -16.293   5.893  1.00  0.00     0.049 C 
BRANCH  30  32
HETATM   32  N   UNL     1      42.188 -16.207   4.082  1.00  0.00    -0.060 N 
HETATM   33  H   UNL     1      42.835 -15.444   3.828  1.00  0.00     0.280 HD
HETATM   34  C   UNL     1      42.872 -17.142   5.054  1.00  0.00     0.236 C 
HETATM   35  C   UNL     1      44.123 -17.743   4.429  1.00  0.00     0.028 C 
HETATM   36  C   UNL     1      43.821 -18.450   3.118  1.00  0.00     0.003 C 
HETATM   37  C   UNL     1      43.108 -17.510   2.159  1.00  0.00     0.028 C 
HETATM   38  C   UNL     1      41.850 -16.920   2.779  1.00  0.00     0.236 C 
ENDBRANCH  30  32
ENDBRANCH   3  30
TORSDOF 8
ENDMDL
MODEL 9
REMARK VINA RESULT:      -8.2     18.776     20.288
REMARK  8 active torsions:
REMARK  status: ('A' for Active; 'I' for Inactive)
REMARK    1  A    between atoms: C_5  and  C_6 
REMARK       I    between atoms: C_6  and  N_7 
REMARK    2  A    between atoms: N_7  and  N_8 
REMARK       I    between atoms: N_8  and  C_9 
REMARK    3  A    between atoms: C_9  and  C_10 
REMARK    4  A    between atoms: C_10  and  S_11 
REMARK    5  A    between atoms: S_11  and  C_12 
REMARK    6  A    between atoms: N_13  and  C_14 
REMARK    7  A    between atoms: C_21  and  C_22 
REMARK    8  A    between atoms: C_22  and  N_23 
ROOT
HETATM    1  C   UNL     1      44.115 -31.327   0.408  1.00  0.00     0.196 A 
HETATM    2  N   UNL     1      44.978 -31.134  -0.655  1.00  0.00    -0.274 N 
HETATM    3  C   UNL     1      45.849 -32.215  -0.565  1.00  0.00     0.166 A 
HETATM    4  N   UNL     1      45.435 -33.050   0.371  1.00  0.00    -0.131 NA
HETATM    5  N   UNL     1      44.357 -32.481   0.991  1.00  0.00    -0.122 NA
ENDROOT
BRANCH   1   6
HETATM    6  S   UNL     1      42.901 -30.208   0.919  1.00  0.00    -0.080 SA
BRANCH   6   7
HETATM    7  C   UNL     1      42.584 -30.769   2.614  1.00  0.00     0.187 C 
BRANCH   7   8
HETATM    8  C   UNL     1      43.833 -31.011   3.458  1.00  0.00     0.245 C 
HETATM    9  N   UNL     1      44.791 -30.024   3.257  1.00  0.00    -0.267 N 
HETATM   10  H   UNL     1      44.848 -29.565   2.346  1.00  0.00     0.190 HD
HETATM   11  O   UNL     1      43.997 -31.934   4.259  1.00  0.00    -0.271 OA
BRANCH   9  12
HETATM   12  N   UNL     1      46.025 -30.169   3.907  1.00  0.00    -0.263 N 
HETATM   13  C   UNL     1      47.164 -30.231   3.124  1.00  0.00     0.270 C 
HETATM   14  O   UNL     1      47.146 -30.065   1.910  1.00  0.00    -0.266 OA
HETATM   15  H   UNL     1      46.002 -30.607   4.820  1.00  0.00     0.190 HD
BRANCH  13  16
HETATM   16  C   UNL     1      48.421 -30.550   3.853  1.00  0.00     0.033 A 
HETATM   17  C   UNL     1      49.558 -29.738   3.740  1.00  0.00     0.017 A 
HETATM   18  C   UNL     1      50.726 -30.069   4.431  1.00  0.00     0.007 A 
HETATM   19  C   UNL     1      50.769 -31.209   5.244  1.00  0.00    -0.062 A 
HETATM   20  C   UNL     1      52.043 -31.596   5.939  1.00  0.00     0.048 C 
HETATM   21  C   UNL     1      49.638 -32.030   5.332  1.00  0.00     0.007 A 
HETATM   22  C   UNL     1      48.468 -31.704   4.641  1.00  0.00     0.017 A 
ENDBRANCH  13  16
ENDBRANCH   9  12
ENDBRANCH   7   8
ENDBRANCH   6   7
ENDBRANCH   1   6
BRANCH   2  23
HETATM   23  C   UNL     1      45.059 -30.062  -1.581  1.00  0.00     0.043 A 
HETATM   24  C   UNL     1      45.872 -28.948  -1.323  1.00  0.00     0.033 A 
HETATM   25  C   UNL     1      45.933 -27.900  -2.244  1.00  0.00     0.044 A 
HETATM   26  C   UNL     1      45.189 -27.968  -3.414  1.00  0.00     0.116 A 
HETATM   27  F   UNL     1      45.250 -26.963  -4.295  1.00  0.00    -0.206 F 
HETATM   28  C   UNL     1      44.384 -29.068  -3.687  1.00  0.00     0.044 A 
HETATM   29  C   UNL     1      44.316 -30.121  -2.771  1.00  0.00     0.033 A 
ENDBRANCH   2  23
BRANCH   3  30
HETATM   30  C   UNL     1      47.199 -32.299  -1.214  1.00  0.00     0.255 C 
HETATM   31  C   UNL     1      47.462 -33.752  -1.625  1.00  0.00     0.049 C 
BRANCH  30  32
HETATM   32  N   UNL     1      48.327 -31.829  -0.251  1.00  0.00    -0.060 N 
HETATM   33  H   UNL     1      47.834 -31.331   0.506  1.00  0.00     0.280 HD
HETATM   34  C   UNL     1      49.124 -32.972   0.336  1.00  0.00     0.236 C 
HETATM   35  C   UNL     1      50.150 -32.452   1.333  1.00  0.00     0.028 C 
HETATM   36  C   UNL     1      51.069 -31.411   0.715  1.00  0.00     0.003 C 
HETATM   37  C   UNL     1      50.256 -30.282   0.103  1.00  0.00     0.028 C 
HETATM   38  C   UNL     1      49.240 -30.800  -0.905  1.00  0.00     0.236 C 
ENDBRANCH  30  32
ENDBRANCH   3  30
TORSDOF 8
ENDMDL
MODEL 10
REMARK VINA RESULT:      -8.1      4.134     10.827
REMARK  8 active torsions:
REMARK  status: ('A' for Active; 'I' for Inactive)
REMARK    1  A    between atoms: C_5  and  C_6 
REMARK       I    between atoms: C_6  and  N_7 
REMARK    2  A    between atoms: N_7  and  N_8 
REMARK       I    between atoms: N_8  and  C_9 
REMARK    3  A    between atoms: C_9  and  C_10 
REMARK    4  A    between atoms: C_10  and  S_11 
REMARK    5  A    between atoms: S_11  and  C_12 
REMARK    6  A    between atoms: N_13  and  C_14 
REMARK    7  A    between atoms: C_21  and  C_22 
REMARK    8  A    between atoms: C_22  and  N_23 
ROOT
HETATM    1  C   UNL     1      40.088  -9.540   8.228  1.00  0.00     0.196 A 
HETATM    2  N   UNL     1      40.754  -9.153   9.376  1.00  0.00    -0.274 N 
HETATM    3  C   UNL     1      39.756  -8.567  10.148  1.00  0.00     0.166 A 
HETATM    4  N   UNL     1      38.581  -8.741   9.571  1.00  0.00    -0.131 NA
HETATM    5  N   UNL     1      38.795  -9.336   8.358  1.00  0.00    -0.122 NA
ENDROOT
BRANCH   1   6
HETATM    6  S   UNL     1      40.840 -10.183   6.811  1.00  0.00    -0.080 SA
BRANCH   6   7
HETATM    7  C   UNL     1      39.439 -11.000   5.998  1.00  0.00     0.187 C 
BRANCH   7   8
HETATM    8  C   UNL     1      39.758 -12.354   5.369  1.00  0.00     0.245 C 
HETATM    9  N   UNL     1      40.667 -13.077   6.132  1.00  0.00    -0.267 N 
HETATM   10  H   UNL     1      41.363 -12.573   6.686  1.00  0.00     0.190 HD
HETATM   11  O   UNL     1      39.264 -12.804   4.332  1.00  0.00    -0.271 OA
BRANCH   9  12
HETATM   12  N   UNL     1      41.114 -14.305   5.626  1.00  0.00    -0.263 N 
HETATM   13  C   UNL     1      42.365 -14.344   5.036  1.00  0.00     0.270 C 
HETATM   14  O   UNL     1      43.127 -13.384   5.028  1.00  0.00    -0.266 OA
HETATM   15  H   UNL     1      40.397 -14.968   5.358  1.00  0.00     0.190 HD
BRANCH  13  16
HETATM   16  C   UNL     1      42.717 -15.629   4.373  1.00  0.00     0.033 A 
HETATM   17  C   UNL     1      42.128 -16.010   3.159  1.00  0.00     0.017 A 
HETATM   18  C   UNL     1      42.473 -17.226   2.565  1.00  0.00     0.007 A 
HETATM   19  C   UNL     1      43.411 -18.070   3.172  1.00  0.00    -0.062 A 
HETATM   20  C   UNL     1      43.737 -19.403   2.563  1.00  0.00     0.048 C 
HETATM   21  C   UNL     1      43.977 -17.695   4.397  1.00  0.00     0.007 A 
HETATM   22  C   UNL     1      43.633 -16.481   4.997  1.00  0.00     0.017 A 
ENDBRANCH  13  16
ENDBRANCH   9  12
ENDBRANCH   7   8
ENDBRANCH   6   7
ENDBRANCH   1   6
BRANCH   2  23
HETATM   23  C   UNL     1      42.135  -9.221   9.696  1.00  0.00     0.043 A 
HETATM   24  C   UNL     1      42.599 -10.088  10.696  1.00  0.00     0.033 A 
HETATM   25  C   UNL     1      43.962 -10.136  11.002  1.00  0.00     0.044 A 
HETATM   26  C   UNL     1      44.850  -9.325  10.309  1.00  0.00     0.116 A 
HETATM   27  F   UNL     1      46.155  -9.373  10.602  1.00  0.00    -0.206 F 
HETATM   28  C   UNL     1      44.406  -8.466   9.311  1.00  0.00     0.044 A 
HETATM   29  C   UNL     1      43.045  -8.410   8.999  1.00  0.00     0.033 A 
ENDBRANCH   2  23
BRANCH   3  30
HETATM   30  C   UNL     1      39.984  -7.639  11.304  1.00  0.00     0.255 C 
HETATM   31  C   UNL     1      39.812  -8.423  12.611  1.00  0.00     0.049 C 
BRANCH  30  32
HETATM   32  N   UNL     1      38.982  -6.449  11.288  1.00  0.00    -0.060 N 
HETATM   33  H   UNL     1      38.387  -6.619  10.462  1.00  0.00     0.280 HD
HETATM   34  C   UNL     1      38.117  -6.381  12.526  1.00  0.00     0.236 C 
HETATM   35  C   UNL     1      37.102  -5.252  12.408  1.00  0.00     0.028 C 
HETATM   36  C   UNL     1      37.768  -3.913  12.138  1.00  0.00     0.003 C 
HETATM   37  C   UNL     1      38.659  -4.001  10.909  1.00  0.00     0.028 C 
HETATM   38  C   UNL     1      39.682  -5.120  11.033  1.00  0.00     0.236 C 
ENDBRANCH  30  32
ENDBRANCH   3  30
TORSDOF 8
ENDMDL
