MODEL 1
REMARK VINA RESULT:      -8.5      0.000      0.000
REMARK  7 active torsions:
REMARK  status: ('A' for Active; 'I' for Inactive)
REMARK    1  A    between atoms: C_4  and  C_5 
REMARK    2  A    between atoms: C_5  and  N_6 
REMARK       I    between atoms: N_6  and  C_7 
REMARK    3  A    between atoms: N_6  and  C_22 
REMARK    4  A    between atoms: C_7  and  C_8 
REMARK    5  A    between atoms: C_13  and  C_14 
REMARK    6  A    between atoms: C_15  and  O_16 
REMARK    7  A    between atoms: C_22  and  C_23 
ROOT
HETATM    1  N   UNL     1      40.579 -12.731   1.856  1.00  0.00    -0.343 N 
HETATM    2  C   UNL     1      40.568 -11.773   2.867  1.00  0.00     0.235 C 
HETATM    3  O   UNL     1      41.034 -10.645   2.678  1.00  0.00    -0.272 OA
ENDROOT
BRANCH   2   4
HETATM    4  C   UNL     1      39.935 -12.097   4.208  1.00  0.00     0.195 C 
HETATM    5  C   UNL     1      39.152 -10.928   4.727  1.00  0.00     0.247 C 
HETATM    6  O   UNL     1      38.407 -10.201   4.093  1.00  0.00    -0.271 OA
HETATM    7  N   UNL     1      39.346 -10.877   6.092  1.00  0.00    -0.290 N 
HETATM    8  N   UNL     1      40.295 -11.792   6.559  1.00  0.00    -0.228 NA
HETATM    9  H   UNL     1      38.984 -10.105   6.646  1.00  0.00     0.183 HD
HETATM   10  C   UNL     1      40.987 -12.280   5.325  1.00  0.00     0.134 C 
HETATM   11  H   UNL     1      39.773 -12.583   6.959  1.00  0.00     0.147 HD
BRANCH  10  12
HETATM   12  C   UNL     1      41.541 -13.687   5.521  1.00  0.00    -0.004 A 
HETATM   13  C   UNL     1      40.767 -14.714   6.093  1.00  0.00     0.073 A 
HETATM   14  C   UNL     1      41.277 -15.999   6.281  1.00  0.00     0.037 A 
HETATM   15  C   UNL     1      42.587 -16.289   5.916  1.00  0.00     0.003 A 
HETATM   16  C   UNL     1      43.387 -15.288   5.377  1.00  0.00     0.001 A 
HETATM   17  C   UNL     1      42.871 -14.002   5.188  1.00  0.00     0.012 A 
BRANCH  13  18
HETATM   18  O   UNL     1      39.472 -14.529   6.494  1.00  0.00    -0.360 OA
HETATM   19  H   UNL     1      38.898 -14.496   5.704  1.00  0.00     0.217 HD
ENDBRANCH  13  18
ENDBRANCH  10  12
ENDBRANCH   2   4
BRANCH   1  20
HETATM   20  C   UNL     1      40.873 -12.261   0.490  1.00  0.00     0.164 C 
BRANCH  20  21
HETATM   21  C   UNL     1      39.883 -12.768  -0.536  1.00  0.00    -0.040 A 
HETATM   22  C   UNL     1      40.214 -13.838  -1.379  1.00  0.00     0.009 A 
HETATM   23  C   UNL     1      39.306 -14.290  -2.337  1.00  0.00     0.001 A 
HETATM   24  C   UNL     1      38.058 -13.683  -2.459  1.00  0.00     0.000 A 
HETATM   25  C   UNL     1      37.714 -12.625  -1.620  1.00  0.00     0.001 A 
HETATM   26  C   UNL     1      38.620 -12.171  -0.660  1.00  0.00     0.009 A 
ENDBRANCH  20  21
ENDBRANCH   1  20
BRANCH   1  27
HETATM   27  C   UNL     1      40.130 -14.125   2.003  1.00  0.00     0.164 C 
BRANCH  27  28
HETATM   28  C   UNL     1      41.244 -15.150   2.018  1.00  0.00    -0.040 A 
HETATM   29  C   UNL     1      42.544 -14.819   1.605  1.00  0.00     0.009 A 
HETATM   30  C   UNL     1      43.566 -15.767   1.647  1.00  0.00     0.001 A 
HETATM   31  C   UNL     1      43.305 -17.054   2.115  1.00  0.00     0.000 A 
HETATM   32  C   UNL     1      42.023 -17.391   2.544  1.00  0.00     0.001 A 
HETATM   33  C   UNL     1      40.999 -16.444   2.500  1.00  0.00     0.009 A 
ENDBRANCH  27  28
ENDBRANCH   1  27
TORSDOF 7
ENDMDL
MODEL 2
REMARK VINA RESULT:      -8.3      2.875      4.636
REMARK  7 active torsions:
REMARK  status: ('A' for Active; 'I' for Inactive)
REMARK    1  A    between atoms: C_4  and  C_5 
REMARK    2  A    between atoms: C_5  and  N_6 
REMARK       I    between atoms: N_6  and  C_7 
REMARK    3  A    between atoms: N_6  and  C_22 
REMARK    4  A    between atoms: C_7  and  C_8 
REMARK    5  A    between atoms: C_13  and  C_14 
REMARK    6  A    between atoms: C_15  and  O_16 
REMARK    7  A    between atoms: C_22  and  C_23 
ROOT
HETATM    1  N   UNL     1      40.559 -13.575   4.941  1.00  0.00    -0.343 N 
HETATM    2  C   UNL     1      40.673 -12.188   4.993  1.00  0.00     0.235 C 
HETATM    3  O   UNL     1      40.693 -11.513   3.960  1.00  0.00    -0.272 OA
ENDROOT
BRANCH   2   4
HETATM    4  C   UNL     1      40.728 -11.484   6.338  1.00  0.00     0.195 C 
HETATM    5  C   UNL     1      39.423 -10.812   6.645  1.00  0.00     0.247 C 
HETATM    6  O   UNL     1      38.304 -11.261   6.469  1.00  0.00    -0.271 OA
HETATM    7  N   UNL     1      39.714  -9.613   7.264  1.00  0.00    -0.290 N 
HETATM    8  N   UNL     1      41.079  -9.311   7.288  1.00  0.00    -0.228 NA
HETATM    9  H   UNL     1      38.981  -8.942   7.479  1.00  0.00     0.183 HD
HETATM   10  C   UNL     1      41.697 -10.281   6.331  1.00  0.00     0.134 C 
HETATM   11  H   UNL     1      41.417  -9.543   8.232  1.00  0.00     0.147 HD
BRANCH  10  12
HETATM   12  C   UNL     1      43.150 -10.569   6.695  1.00  0.00    -0.004 A 
HETATM   13  C   UNL     1      44.087 -10.981   5.729  1.00  0.00     0.073 A 
HETATM   14  C   UNL     1      45.413 -11.255   6.063  1.00  0.00     0.037 A 
HETATM   15  C   UNL     1      45.838 -11.139   7.382  1.00  0.00     0.003 A 
HETATM   16  C   UNL     1      44.929 -10.764   8.365  1.00  0.00     0.001 A 
HETATM   17  C   UNL     1      43.600 -10.489   8.026  1.00  0.00     0.012 A 
BRANCH  13  18
HETATM   18  O   UNL     1      43.768 -11.135   4.407  1.00  0.00    -0.360 OA
HETATM   19  H   UNL     1      43.221 -11.939   4.306  1.00  0.00     0.217 HD
ENDBRANCH  13  18
ENDBRANCH  10  12
ENDBRANCH   2   4
BRANCH   1  20
HETATM   20  C   UNL     1      40.155 -14.166   3.653  1.00  0.00     0.164 C 
BRANCH  20  21
HETATM   21  C   UNL     1      41.248 -14.992   3.012  1.00  0.00    -0.040 A 
HETATM   22  C   UNL     1      41.119 -16.383   2.898  1.00  0.00     0.009 A 
HETATM   23  C   UNL     1      42.139 -17.143   2.324  1.00  0.00     0.001 A 
HETATM   24  C   UNL     1      43.293 -16.522   1.853  1.00  0.00     0.000 A 
HETATM   25  C   UNL     1      43.429 -15.139   1.952  1.00  0.00     0.001 A 
HETATM   26  C   UNL     1      42.411 -14.376   2.525  1.00  0.00     0.009 A 
ENDBRANCH  20  21
ENDBRANCH   1  20
BRANCH   1  27
HETATM   27  C   UNL     1      40.612 -14.475   6.105  1.00  0.00     0.164 C 
BRANCH  27  28
HETATM   28  C   UNL     1      41.930 -15.195   6.287  1.00  0.00    -0.040 A 
HETATM   29  C   UNL     1      41.987 -16.593   6.407  1.00  0.00     0.009 A 
HETATM   30  C   UNL     1      43.212 -17.245   6.551  1.00  0.00     0.001 A 
HETATM   31  C   UNL     1      44.396 -16.511   6.563  1.00  0.00     0.000 A 
HETATM   32  C   UNL     1      44.356 -15.124   6.428  1.00  0.00     0.001 A 
HETATM   33  C   UNL     1      43.131 -14.470   6.287  1.00  0.00     0.009 A 
ENDBRANCH  27  28
ENDBRANCH   1  27
TORSDOF 7
ENDMDL
MODEL 3
REMARK VINA RESULT:      -7.9     16.208     17.770
REMARK  7 active torsions:
REMARK  status: ('A' for Active; 'I' for Inactive)
REMARK    1  A    between atoms: C_4  and  C_5 
REMARK    2  A    between atoms: C_5  and  N_6 
REMARK       I    between atoms: N_6  and  C_7 
REMARK    3  A    between atoms: N_6  and  C_22 
REMARK    4  A    between atoms: C_7  and  C_8 
REMARK    5  A    between atoms: C_13  and  C_14 
REMARK    6  A    between atoms: C_15  and  O_16 
REMARK    7  A    between atoms: C_22  and  C_23 
ROOT
HETATM    1  N   UNL     1      46.701 -29.888  -1.105  1.00  0.00    -0.343 N 
HETATM    2  C   UNL     1      45.878 -29.063  -0.342  1.00  0.00     0.235 C 
HETATM    3  O   UNL     1      45.638 -27.904  -0.694  1.00  0.00    -0.272 OA
ENDROOT
BRANCH   2   4
HETATM    4  C   UNL     1      45.226 -29.603   0.918  1.00  0.00     0.195 C 
HETATM    5  C   UNL     1      43.742 -29.387   0.888  1.00  0.00     0.247 C 
HETATM    6  O   UNL     1      42.992 -29.553  -0.058  1.00  0.00    -0.271 OA
HETATM    7  N   UNL     1      43.349 -29.057   2.170  1.00  0.00    -0.290 N 
HETATM    8  N   UNL     1      44.416 -28.876   3.054  1.00  0.00    -0.228 NA
HETATM    9  H   UNL     1      42.393 -28.773   2.369  1.00  0.00     0.183 HD
HETATM   10  C   UNL     1      45.625 -28.801   2.177  1.00  0.00     0.134 C 
HETATM   11  H   UNL     1      44.487 -29.736   3.614  1.00  0.00     0.147 HD
BRANCH  10  12
HETATM   12  C   UNL     1      46.876 -29.266   2.916  1.00  0.00    -0.004 A 
HETATM   13  C   UNL     1      48.072 -28.523   2.886  1.00  0.00     0.073 A 
HETATM   14  C   UNL     1      49.219 -28.952   3.553  1.00  0.00     0.037 A 
HETATM   15  C   UNL     1      49.207 -30.150   4.260  1.00  0.00     0.003 A 
HETATM   16  C   UNL     1      48.051 -30.921   4.284  1.00  0.00     0.001 A 
HETATM   17  C   UNL     1      46.903 -30.487   3.614  1.00  0.00     0.012 A 
BRANCH  13  18
HETATM   18  O   UNL     1      48.190 -27.338   2.211  1.00  0.00    -0.360 OA
HETATM   19  H   UNL     1      49.046 -27.328   1.739  1.00  0.00     0.217 HD
ENDBRANCH  13  18
ENDBRANCH  10  12
ENDBRANCH   2   4
BRANCH   1  20
HETATM   20  C   UNL     1      47.012 -29.442  -2.475  1.00  0.00     0.164 C 
BRANCH  20  21
HETATM   21  C   UNL     1      46.030 -29.959  -3.503  1.00  0.00    -0.040 A 
HETATM   22  C   UNL     1      46.283 -31.151  -4.196  1.00  0.00     0.009 A 
HETATM   23  C   UNL     1      45.384 -31.614  -5.158  1.00  0.00     0.001 A 
HETATM   24  C   UNL     1      44.222 -30.896  -5.432  1.00  0.00     0.000 A 
HETATM   25  C   UNL     1      43.955 -29.715  -4.742  1.00  0.00     0.001 A 
HETATM   26  C   UNL     1      44.852 -29.249  -3.780  1.00  0.00     0.009 A 
ENDBRANCH  20  21
ENDBRANCH   1  20
BRANCH   1  27
HETATM   27  C   UNL     1      47.118 -31.249  -0.732  1.00  0.00     0.164 C 
BRANCH  27  28
HETATM   28  C   UNL     1      48.434 -31.326   0.011  1.00  0.00    -0.040 A 
HETATM   29  C   UNL     1      48.748 -32.426   0.827  1.00  0.00     0.009 A 
HETATM   30  C   UNL     1      49.975 -32.493   1.487  1.00  0.00     0.001 A 
HETATM   31  C   UNL     1      50.908 -31.470   1.331  1.00  0.00     0.000 A 
HETATM   32  C   UNL     1      50.617 -30.381   0.513  1.00  0.00     0.001 A 
HETATM   33  C   UNL     1      49.389 -30.311  -0.147  1.00  0.00     0.009 A 
ENDBRANCH  27  28
ENDBRANCH   1  27
TORSDOF 7
ENDMDL
MODEL 4
REMARK VINA RESULT:      -7.9      2.497      6.081
REMARK  7 active torsions:
REMARK  status: ('A' for Active; 'I' for Inactive)
REMARK    1  A    between atoms: C_4  and  C_5 
REMARK    2  A    between atoms: C_5  and  N_6 
REMARK       I    between atoms: N_6  and  C_7 
REMARK    3  A    between atoms: N_6  and  C_22 
REMARK    4  A    between atoms: C_7  and  C_8 
REMARK    5  A    between atoms: C_13  and  C_14 
REMARK    6  A    between atoms: C_15  and  O_16 
REMARK    7  A    between atoms: C_22  and  C_23 
ROOT
HETATM    1  N   UNL     1      42.306 -12.640   5.134  1.00  0.00    -0.343 N 
HETATM    2  C   UNL     1      41.047 -12.044   5.155  1.00  0.00     0.235 C 
HETATM    3  O   UNL     1      40.379 -12.007   6.193  1.00  0.00    -0.272 OA
ENDROOT
BRANCH   2   4
HETATM    4  C   UNL     1      40.501 -11.388   3.900  1.00  0.00     0.195 C 
HETATM    5  C   UNL     1      39.894 -10.053   4.214  1.00  0.00     0.247 C 
HETATM    6  O   UNL     1      40.342  -9.196   4.956  1.00  0.00    -0.271 OA
HETATM    7  N   UNL     1      38.769  -9.918   3.426  1.00  0.00    -0.290 N 
HETATM    8  N   UNL     1      38.445 -11.073   2.708  1.00  0.00    -0.228 NA
HETATM    9  H   UNL     1      38.141  -9.126   3.539  1.00  0.00     0.183 HD
HETATM   10  C   UNL     1      39.286 -12.147   3.322  1.00  0.00     0.134 C 
HETATM   11  H   UNL     1      38.776 -10.926   1.745  1.00  0.00     0.147 HD
BRANCH  10  12
HETATM   12  C   UNL     1      39.585 -13.257   2.319  1.00  0.00    -0.004 A 
HETATM   13  C   UNL     1      39.906 -12.975   0.978  1.00  0.00     0.073 A 
HETATM   14  C   UNL     1      40.170 -13.990   0.058  1.00  0.00     0.037 A 
HETATM   15  C   UNL     1      40.104 -15.322   0.451  1.00  0.00     0.003 A 
HETATM   16  C   UNL     1      39.760 -15.634   1.762  1.00  0.00     0.001 A 
HETATM   17  C   UNL     1      39.497 -14.613   2.681  1.00  0.00     0.012 A 
BRANCH  13  18
HETATM   18  O   UNL     1      39.987 -11.700   0.488  1.00  0.00    -0.360 OA
HETATM   19  H   UNL     1      39.307 -11.150   0.926  1.00  0.00     0.217 HD
ENDBRANCH  13  18
ENDBRANCH  10  12
ENDBRANCH   2   4
BRANCH   1  20
HETATM   20  C   UNL     1      42.929 -12.936   6.437  1.00  0.00     0.164 C 
BRANCH  20  21
HETATM   21  C   UNL     1      43.853 -11.838   6.915  1.00  0.00    -0.040 A 
HETATM   22  C   UNL     1      43.341 -10.712   7.575  1.00  0.00     0.009 A 
HETATM   23  C   UNL     1      44.194  -9.691   7.997  1.00  0.00     0.001 A 
HETATM   24  C   UNL     1      45.565  -9.788   7.770  1.00  0.00     0.000 A 
HETATM   25  C   UNL     1      46.087 -10.907   7.123  1.00  0.00     0.001 A 
HETATM   26  C   UNL     1      45.236 -11.929   6.700  1.00  0.00     0.009 A 
ENDBRANCH  20  21
ENDBRANCH   1  20
BRANCH   1  27
HETATM   27  C   UNL     1      43.144 -12.813   3.936  1.00  0.00     0.164 C 
BRANCH  27  28
HETATM   28  C   UNL     1      43.132 -14.209   3.353  1.00  0.00    -0.040 A 
HETATM   29  C   UNL     1      43.463 -14.440   2.008  1.00  0.00     0.009 A 
HETATM   30  C   UNL     1      43.471 -15.735   1.490  1.00  0.00     0.001 A 
HETATM   31  C   UNL     1      43.161 -16.817   2.313  1.00  0.00     0.000 A 
HETATM   32  C   UNL     1      42.846 -16.604   3.653  1.00  0.00     0.001 A 
HETATM   33  C   UNL     1      42.836 -15.308   4.172  1.00  0.00     0.009 A 
ENDBRANCH  27  28
ENDBRANCH   1  27
TORSDOF 7
ENDMDL
MODEL 5
REMARK VINA RESULT:      -7.8     16.363     18.035
REMARK  7 active torsions:
REMARK  status: ('A' for Active; 'I' for Inactive)
REMARK    1  A    between atoms: C_4  and  C_5 
REMARK    2  A    between atoms: C_5  and  N_6 
REMARK       I    between atoms: N_6  and  C_7 
REMARK    3  A    between atoms: N_6  and  C_22 
REMARK    4  A    between atoms: C_7  and  C_8 
REMARK    5  A    between atoms: C_13  and  C_14 
REMARK    6  A    between atoms: C_15  and  O_16 
REMARK    7  A    between atoms: C_22  and  C_23 
ROOT
HETATM    1  N   UNL     1      46.722 -29.352   0.482  1.00  0.00    -0.343 N 
HETATM    2  C   UNL     1      46.339 -29.227   1.815  1.00  0.00     0.235 C 
HETATM    3  O   UNL     1      46.042 -28.127   2.291  1.00  0.00    -0.272 OA
ENDROOT
BRANCH   2   4
HETATM    4  C   UNL     1      46.238 -30.463   2.691  1.00  0.00     0.195 C 
HETATM    5  C   UNL     1      44.809 -30.758   3.039  1.00  0.00     0.247 C 
HETATM    6  O   UNL     1      43.844 -30.708   2.296  1.00  0.00    -0.271 OA
HETATM    7  N   UNL     1      44.787 -31.198   4.347  1.00  0.00    -0.290 N 
HETATM    8  N   UNL     1      46.024 -31.102   4.992  1.00  0.00    -0.228 NA
HETATM    9  H   UNL     1      43.908 -31.368   4.830  1.00  0.00     0.183 HD
HETATM   10  C   UNL     1      46.854 -30.243   4.091  1.00  0.00     0.134 C 
HETATM   11  H   UNL     1      46.434 -32.046   4.991  1.00  0.00     0.147 HD
BRANCH  10  12
HETATM   12  C   UNL     1      48.339 -30.555   4.242  1.00  0.00    -0.004 A 
HETATM   13  C   UNL     1      49.331 -29.641   3.838  1.00  0.00     0.073 A 
HETATM   14  C   UNL     1      50.690 -29.930   3.966  1.00  0.00     0.037 A 
HETATM   15  C   UNL     1      51.097 -31.152   4.490  1.00  0.00     0.003 A 
HETATM   16  C   UNL     1      50.141 -32.087   4.870  1.00  0.00     0.001 A 
HETATM   17  C   UNL     1      48.780 -31.794   4.741  1.00  0.00     0.012 A 
BRANCH  13  18
HETATM   18  O   UNL     1      49.036 -28.418   3.301  1.00  0.00    -0.360 OA
HETATM   19  H   UNL     1      49.573 -27.737   3.752  1.00  0.00     0.217 HD
ENDBRANCH  13  18
ENDBRANCH  10  12
ENDBRANCH   2   4
BRANCH   1  20
HETATM   20  C   UNL     1      46.462 -28.200  -0.400  1.00  0.00     0.164 C 
BRANCH  20  21
HETATM   21  C   UNL     1      45.594 -28.549  -1.589  1.00  0.00    -0.040 A 
HETATM   22  C   UNL     1      44.417 -29.291  -1.419  1.00  0.00     0.009 A 
HETATM   23  C   UNL     1      43.628 -29.628  -2.521  1.00  0.00     0.001 A 
HETATM   24  C   UNL     1      44.005 -29.223  -3.799  1.00  0.00     0.000 A 
HETATM   25  C   UNL     1      45.168 -28.477  -3.980  1.00  0.00     0.001 A 
HETATM   26  C   UNL     1      45.958 -28.138  -2.880  1.00  0.00     0.009 A 
ENDBRANCH  20  21
ENDBRANCH   1  20
BRANCH   1  27
HETATM   27  C   UNL     1      47.176 -30.598  -0.158  1.00  0.00     0.164 C 
BRANCH  27  28
HETATM   28  C   UNL     1      48.567 -31.041   0.240  1.00  0.00    -0.040 A 
HETATM   29  C   UNL     1      48.792 -32.297   0.828  1.00  0.00     0.009 A 
HETATM   30  C   UNL     1      50.083 -32.701   1.167  1.00  0.00     0.001 A 
HETATM   31  C   UNL     1      51.167 -31.864   0.911  1.00  0.00     0.000 A 
HETATM   32  C   UNL     1      50.960 -30.622   0.313  1.00  0.00     0.001 A 
HETATM   33  C   UNL     1      49.669 -30.214  -0.025  1.00  0.00     0.009 A 
ENDBRANCH  27  28
ENDBRANCH   1  27
TORSDOF 7
ENDMDL
MODEL 6
REMARK VINA RESULT:      -7.8      2.507      5.965
REMARK  7 active torsions:
REMARK  status: ('A' for Active; 'I' for Inactive)
REMARK    1  A    between atoms: C_4  and  C_5 
REMARK    2  A    between atoms: C_5  and  N_6 
REMARK       I    between atoms: N_6  and  C_7 
REMARK    3  A    between atoms: N_6  and  C_22 
REMARK    4  A    between atoms: C_7  and  C_8 
REMARK    5  A    between atoms: C_13  and  C_14 
REMARK    6  A    between atoms: C_15  and  O_16 
REMARK    7  A    between atoms: C_22  and  C_23 
ROOT
HETATM    1  N   UNL     1      42.408 -16.033   2.579  1.00  0.00    -0.343 N 
HETATM    2  C   UNL     1      41.957 -15.018   1.738  1.00  0.00     0.235 C 
HETATM    3  O   UNL     1      42.647 -14.620   0.795  1.00  0.00    -0.272 OA
ENDROOT
BRANCH   2   4
HETATM    4  C   UNL     1      40.578 -14.419   1.949  1.00  0.00     0.195 C 
HETATM    5  C   UNL     1      39.766 -14.484   0.690  1.00  0.00     0.247 C 
HETATM    6  O   UNL     1      39.686 -15.419  -0.088  1.00  0.00    -0.271 OA
HETATM    7  N   UNL     1      39.035 -13.316   0.611  1.00  0.00    -0.290 N 
HETATM    8  N   UNL     1      39.359 -12.384   1.601  1.00  0.00    -0.228 NA
HETATM    9  H   UNL     1      38.480 -13.098  -0.213  1.00  0.00     0.183 HD
HETATM   10  C   UNL     1      40.631 -12.895   2.199  1.00  0.00     0.134 C 
HETATM   11  H   UNL     1      38.626 -12.448   2.321  1.00  0.00     0.147 HD
BRANCH  10  12
HETATM   12  C   UNL     1      40.783 -12.444   3.648  1.00  0.00    -0.004 A 
HETATM   13  C   UNL     1      41.791 -11.542   4.040  1.00  0.00     0.073 A 
HETATM   14  C   UNL     1      41.937 -11.137   5.367  1.00  0.00     0.037 A 
HETATM   15  C   UNL     1      41.085 -11.637   6.346  1.00  0.00     0.003 A 
HETATM   16  C   UNL     1      40.099 -12.552   5.996  1.00  0.00     0.001 A 
HETATM   17  C   UNL     1      39.956 -12.955   4.664  1.00  0.00     0.012 A 
BRANCH  13  18
HETATM   18  O   UNL     1      42.685 -11.002   3.157  1.00  0.00    -0.360 OA
HETATM   19  H   UNL     1      43.526 -11.496   3.216  1.00  0.00     0.217 HD
ENDBRANCH  13  18
ENDBRANCH  10  12
ENDBRANCH   2   4
BRANCH   1  20
HETATM   20  C   UNL     1      43.573 -16.811   2.123  1.00  0.00     0.164 C 
BRANCH  20  21
HETATM   21  C   UNL     1      43.662 -18.177   2.769  1.00  0.00    -0.040 A 
HETATM   22  C   UNL     1      44.235 -18.330   4.039  1.00  0.00     0.009 A 
HETATM   23  C   UNL     1      44.333 -19.593   4.623  1.00  0.00     0.001 A 
HETATM   24  C   UNL     1      43.854 -20.714   3.948  1.00  0.00     0.000 A 
HETATM   25  C   UNL     1      43.273 -20.573   2.689  1.00  0.00     0.001 A 
HETATM   26  C   UNL     1      43.174 -19.311   2.103  1.00  0.00     0.009 A 
ENDBRANCH  20  21
ENDBRANCH   1  20
BRANCH   1  27
HETATM   27  C   UNL     1      41.703 -16.518   3.777  1.00  0.00     0.164 C 
BRANCH  27  28
HETATM   28  C   UNL     1      42.154 -15.884   5.075  1.00  0.00    -0.040 A 
HETATM   29  C   UNL     1      41.629 -16.300   6.309  1.00  0.00     0.009 A 
HETATM   30  C   UNL     1      42.071 -15.723   7.500  1.00  0.00     0.001 A 
HETATM   31  C   UNL     1      43.053 -14.734   7.474  1.00  0.00     0.000 A 
HETATM   32  C   UNL     1      43.594 -14.323   6.257  1.00  0.00     0.001 A 
HETATM   33  C   UNL     1      43.151 -14.898   5.064  1.00  0.00     0.009 A 
ENDBRANCH  27  28
ENDBRANCH   1  27
TORSDOF 7
ENDMDL
MODEL 7
REMARK VINA RESULT:      -7.8      3.022      5.730
REMARK  7 active torsions:
REMARK  status: ('A' for Active; 'I' for Inactive)
REMARK    1  A    between atoms: C_4  and  C_5 
REMARK    2  A    between atoms: C_5  and  N_6 
REMARK       I    between atoms: N_6  and  C_7 
REMARK    3  A    between atoms: N_6  and  C_22 
REMARK    4  A    between atoms: C_7  and  C_8 
REMARK    5  A    between atoms: C_13  and  C_14 
REMARK    6  A    between atoms: C_15  and  O_16 
REMARK    7  A    between atoms: C_22  and  C_23 
ROOT
HETATM    1  N   UNL     1      41.587 -14.696   5.180  1.00  0.00    -0.343 N 
HETATM    2  C   UNL     1      41.409 -15.908   5.841  1.00  0.00     0.235 C 
HETATM    3  O   UNL     1      40.279 -16.329   6.103  1.00  0.00    -0.272 OA
ENDROOT
BRANCH   2   4
HETATM    4  C   UNL     1      42.616 -16.753   6.209  1.00  0.00     0.195 C 
HETATM    5  C   UNL     1      43.395 -16.118   7.322  1.00  0.00     0.247 C 
HETATM    6  O   UNL     1      42.949 -15.591   8.327  1.00  0.00    -0.271 OA
HETATM    7  N   UNL     1      44.734 -16.323   7.056  1.00  0.00    -0.290 N 
HETATM    8  N   UNL     1      44.976 -16.902   5.807  1.00  0.00    -0.228 NA
HETATM    9  H   UNL     1      45.455 -15.896   7.632  1.00  0.00     0.183 HD
HETATM   10  C   UNL     1      43.672 -16.791   5.082  1.00  0.00     0.134 C 
HETATM   11  H   UNL     1      45.158 -17.901   5.973  1.00  0.00     0.147 HD
BRANCH  10  12
HETATM   12  C   UNL     1      43.522 -17.894   4.039  1.00  0.00    -0.004 A 
HETATM   13  C   UNL     1      43.876 -19.228   4.318  1.00  0.00     0.073 A 
HETATM   14  C   UNL     1      43.748 -20.236   3.363  1.00  0.00     0.037 A 
HETATM   15  C   UNL     1      43.277 -19.934   2.090  1.00  0.00     0.003 A 
HETATM   16  C   UNL     1      42.947 -18.621   1.774  1.00  0.00     0.001 A 
HETATM   17  C   UNL     1      43.076 -17.613   2.735  1.00  0.00     0.012 A 
BRANCH  13  18
HETATM   18  O   UNL     1      44.359 -19.626   5.535  1.00  0.00    -0.360 OA
HETATM   19  H   UNL     1      44.391 -18.853   6.131  1.00  0.00     0.217 HD
ENDBRANCH  13  18
ENDBRANCH  10  12
ENDBRANCH   2   4
BRANCH   1  20
HETATM   20  C   UNL     1      40.401 -14.102   4.539  1.00  0.00     0.164 C 
BRANCH  20  21
HETATM   21  C   UNL     1      40.340 -14.361   3.049  1.00  0.00    -0.040 A 
HETATM   22  C   UNL     1      39.953 -15.616   2.558  1.00  0.00     0.009 A 
HETATM   23  C   UNL     1      39.918 -15.857   1.184  1.00  0.00     0.001 A 
HETATM   24  C   UNL     1      40.263 -14.847   0.288  1.00  0.00     0.000 A 
HETATM   25  C   UNL     1      40.640 -13.592   0.764  1.00  0.00     0.001 A 
HETATM   26  C   UNL     1      40.676 -13.348   2.138  1.00  0.00     0.009 A 
ENDBRANCH  20  21
ENDBRANCH   1  20
BRANCH   1  27
HETATM   27  C   UNL     1      42.888 -14.065   4.898  1.00  0.00     0.164 C 
BRANCH  27  28
HETATM   28  C   UNL     1      43.188 -12.838   5.731  1.00  0.00    -0.040 A 
HETATM   29  C   UNL     1      44.321 -12.777   6.558  1.00  0.00     0.009 A 
HETATM   30  C   UNL     1      44.597 -11.630   7.302  1.00  0.00     0.001 A 
HETATM   31  C   UNL     1      43.753 -10.524   7.218  1.00  0.00     0.000 A 
HETATM   32  C   UNL     1      42.634 -10.564   6.389  1.00  0.00     0.001 A 
HETATM   33  C   UNL     1      42.355 -11.712   5.645  1.00  0.00     0.009 A 
ENDBRANCH  27  28
ENDBRANCH   1  27
TORSDOF 7
ENDMDL
MODEL 8
REMARK VINA RESULT:      -7.6      3.221      6.950
REMARK  7 active torsions:
REMARK  status: ('A' for Active; 'I' for Inactive)
REMARK    1  A    between atoms: C_4  and  C_5 
REMARK    2  A    between atoms: C_5  and  N_6 
REMARK       I    between atoms: N_6  and  C_7 
REMARK    3  A    between atoms: N_6  and  C_22 
REMARK    4  A    between atoms: C_7  and  C_8 
REMARK    5  A    between atoms: C_13  and  C_14 
REMARK    6  A    between atoms: C_15  and  O_16 
REMARK    7  A    between atoms: C_22  and  C_23 
ROOT
HETATM    1  N   UNL     1      42.794 -12.351   6.000  1.00  0.00    -0.343 N 
HETATM    2  C   UNL     1      43.432 -13.566   6.241  1.00  0.00     0.235 C 
HETATM    3  O   UNL     1      44.655 -13.619   6.406  1.00  0.00    -0.272 OA
ENDROOT
BRANCH   2   4
HETATM    4  C   UNL     1      42.615 -14.840   6.349  1.00  0.00     0.195 C 
HETATM    5  C   UNL     1      42.969 -15.601   7.592  1.00  0.00     0.247 C 
HETATM    6  O   UNL     1      43.156 -15.144   8.706  1.00  0.00    -0.271 OA
HETATM    7  N   UNL     1      42.951 -16.943   7.271  1.00  0.00    -0.290 N 
HETATM    8  N   UNL     1      42.767 -17.192   5.908  1.00  0.00    -0.228 NA
HETATM    9  H   UNL     1      43.253 -17.647   7.940  1.00  0.00     0.183 HD
HETATM   10  C   UNL     1      42.977 -15.865   5.251  1.00  0.00     0.134 C 
HETATM   11  H   UNL     1      41.778 -17.451   5.785  1.00  0.00     0.147 HD
BRANCH  10  12
HETATM   12  C   UNL     1      42.202 -15.768   3.940  1.00  0.00    -0.004 A 
HETATM   13  C   UNL     1      40.816 -16.004   3.881  1.00  0.00     0.073 A 
HETATM   14  C   UNL     1      40.109 -15.925   2.681  1.00  0.00     0.037 A 
HETATM   15  C   UNL     1      40.775 -15.622   1.498  1.00  0.00     0.003 A 
HETATM   16  C   UNL     1      42.149 -15.412   1.519  1.00  0.00     0.001 A 
HETATM   17  C   UNL     1      42.854 -15.492   2.724  1.00  0.00     0.012 A 
BRANCH  13  18
HETATM   18  O   UNL     1      40.071 -16.320   4.984  1.00  0.00    -0.360 OA
HETATM   19  H   UNL     1      40.617 -16.182   5.784  1.00  0.00     0.217 HD
ENDBRANCH  13  18
ENDBRANCH  10  12
ENDBRANCH   2   4
BRANCH   1  20
HETATM   20  C   UNL     1      43.569 -11.125   6.257  1.00  0.00     0.164 C 
BRANCH  20  21
HETATM   21  C   UNL     1      43.337 -10.556   7.640  1.00  0.00    -0.040 A 
HETATM   22  C   UNL     1      44.173 -10.911   8.707  1.00  0.00     0.009 A 
HETATM   23  C   UNL     1      43.943 -10.400   9.985  1.00  0.00     0.001 A 
HETATM   24  C   UNL     1      42.881  -9.527  10.208  1.00  0.00     0.000 A 
HETATM   25  C   UNL     1      42.048  -9.159   9.153  1.00  0.00     0.001 A 
HETATM   26  C   UNL     1      42.276  -9.668   7.873  1.00  0.00     0.009 A 
ENDBRANCH  20  21
ENDBRANCH   1  20
BRANCH   1  27
HETATM   27  C   UNL     1      41.361 -12.189   5.705  1.00  0.00     0.164 C 
BRANCH  27  28
HETATM   28  C   UNL     1      41.018 -12.157   4.232  1.00  0.00    -0.040 A 
HETATM   29  C   UNL     1      39.704 -12.367   3.784  1.00  0.00     0.009 A 
HETATM   30  C   UNL     1      39.399 -12.311   2.424  1.00  0.00     0.001 A 
HETATM   31  C   UNL     1      40.400 -12.030   1.495  1.00  0.00     0.000 A 
HETATM   32  C   UNL     1      41.705 -11.803   1.927  1.00  0.00     0.001 A 
HETATM   33  C   UNL     1      42.013 -11.861   3.288  1.00  0.00     0.009 A 
ENDBRANCH  27  28
ENDBRANCH   1  27
TORSDOF 7
ENDMDL
MODEL 9
REMARK VINA RESULT:      -7.5      2.227      5.844
REMARK  7 active torsions:
REMARK  status: ('A' for Active; 'I' for Inactive)
REMARK    1  A    between atoms: C_4  and  C_5 
REMARK    2  A    between atoms: C_5  and  N_6 
REMARK       I    between atoms: N_6  and  C_7 
REMARK    3  A    between atoms: N_6  and  C_22 
REMARK    4  A    between atoms: C_7  and  C_8 
REMARK    5  A    between atoms: C_13  and  C_14 
REMARK    6  A    between atoms: C_15  and  O_16 
REMARK    7  A    between atoms: C_22  and  C_23 
ROOT
HETATM    1  N   UNL     1      41.346 -14.466   4.097  1.00  0.00    -0.343 N 
HETATM    2  C   UNL     1      41.442 -13.919   5.375  1.00  0.00     0.235 C 
HETATM    3  O   UNL     1      40.940 -14.489   6.348  1.00  0.00    -0.272 OA
ENDROOT
BRANCH   2   4
HETATM    4  C   UNL     1      42.212 -12.629   5.589  1.00  0.00     0.195 C 
HETATM    5  C   UNL     1      43.278 -12.807   6.628  1.00  0.00     0.247 C 
HETATM    6  O   UNL     1      44.035 -13.755   6.752  1.00  0.00    -0.271 OA
HETATM    7  N   UNL     1      43.323 -11.647   7.374  1.00  0.00    -0.290 N 
HETATM    8  N   UNL     1      42.306 -10.740   7.063  1.00  0.00    -0.228 NA
HETATM    9  H   UNL     1      43.912 -11.576   8.200  1.00  0.00     0.183 HD
HETATM   10  C   UNL     1      41.342 -11.525   6.231  1.00  0.00     0.134 C 
HETATM   11  H   UNL     1      42.726 -10.019   6.459  1.00  0.00     0.147 HD
BRANCH  10  12
HETATM   12  C   UNL     1      40.568 -10.621   5.277  1.00  0.00    -0.004 A 
HETATM   13  C   UNL     1      41.217  -9.873   4.277  1.00  0.00     0.073 A 
HETATM   14  C   UNL     1      40.511  -9.038   3.411  1.00  0.00     0.037 A 
HETATM   15  C   UNL     1      39.131  -8.915   3.532  1.00  0.00     0.003 A 
HETATM   16  C   UNL     1      38.465  -9.617   4.529  1.00  0.00     0.001 A 
HETATM   17  C   UNL     1      39.176 -10.454   5.395  1.00  0.00     0.012 A 
BRANCH  13  18
HETATM   18  O   UNL     1      42.571  -9.916   4.082  1.00  0.00    -0.360 OA
HETATM   19  H   UNL     1      42.822 -10.820   3.809  1.00  0.00     0.217 HD
ENDBRANCH  13  18
ENDBRANCH  10  12
ENDBRANCH   2   4
BRANCH   1  20
HETATM   20  C   UNL     1      40.909 -15.870   3.999  1.00  0.00     0.164 C 
BRANCH  20  21
HETATM   21  C   UNL     1      42.051 -16.828   3.738  1.00  0.00    -0.040 A 
HETATM   22  C   UNL     1      42.187 -17.452   2.490  1.00  0.00     0.009 A 
HETATM   23  C   UNL     1      43.230 -18.350   2.259  1.00  0.00     0.001 A 
HETATM   24  C   UNL     1      44.148 -18.629   3.269  1.00  0.00     0.000 A 
HETATM   25  C   UNL     1      44.028 -18.008   4.510  1.00  0.00     0.001 A 
HETATM   26  C   UNL     1      42.987 -17.109   4.744  1.00  0.00     0.009 A 
ENDBRANCH  20  21
ENDBRANCH   1  20
BRANCH   1  27
HETATM   27  C   UNL     1      41.832 -13.827   2.863  1.00  0.00     0.164 C 
BRANCH  27  28
HETATM   28  C   UNL     1      40.821 -12.939   2.170  1.00  0.00    -0.040 A 
HETATM   29  C   UNL     1      41.191 -12.112   1.097  1.00  0.00     0.009 A 
HETATM   30  C   UNL     1      40.243 -11.317   0.454  1.00  0.00     0.001 A 
HETATM   31  C   UNL     1      38.911 -11.347   0.865  1.00  0.00     0.000 A 
HETATM   32  C   UNL     1      38.527 -12.175   1.918  1.00  0.00     0.001 A 
HETATM   33  C   UNL     1      39.475 -12.970   2.565  1.00  0.00     0.009 A 
ENDBRANCH  27  28
ENDBRANCH   1  27
TORSDOF 7
ENDMDL
MODEL 10
REMARK VINA RESULT:      -7.4      2.246      6.542
REMARK  7 active torsions:
REMARK  status: ('A' for Active; 'I' for Inactive)
REMARK    1  A    between atoms: C_4  and  C_5 
REMARK    2  A    between atoms: C_5  and  N_6 
REMARK       I    between atoms: N_6  and  C_7 
REMARK    3  A    between atoms: N_6  and  C_22 
REMARK    4  A    between atoms: C_7  and  C_8 
REMARK    5  A    between atoms: C_13  and  C_14 
REMARK    6  A    between atoms: C_15  and  O_16 
REMARK    7  A    between atoms: C_22  and  C_23 
ROOT
HETATM    1  N   UNL     1      41.282 -15.301   2.886  1.00  0.00    -0.343 N 
HETATM    2  C   UNL     1      40.464 -14.312   2.343  1.00  0.00     0.235 C 
HETATM    3  O   UNL     1      39.301 -14.165   2.732  1.00  0.00    -0.272 OA
ENDROOT
BRANCH   2   4
HETATM    4  C   UNL     1      41.017 -13.368   1.290  1.00  0.00     0.195 C 
HETATM    5  C   UNL     1      41.800 -12.258   1.925  1.00  0.00     0.247 C 
HETATM    6  O   UNL     1      42.595 -12.348   2.844  1.00  0.00    -0.271 OA
HETATM    7  N   UNL     1      41.534 -11.107   1.209  1.00  0.00    -0.290 N 
HETATM    8  N   UNL     1      40.540 -11.267   0.240  1.00  0.00    -0.228 NA
HETATM    9  H   UNL     1      41.885 -10.204   1.518  1.00  0.00     0.183 HD
HETATM   10  C   UNL     1      39.903 -12.581   0.565  1.00  0.00     0.134 C 
HETATM   11  H   UNL     1      41.021 -11.366  -0.665  1.00  0.00     0.147 HD
BRANCH  10  12
HETATM   12  C   UNL     1      39.305 -13.229  -0.680  1.00  0.00    -0.004 A 
HETATM   13  C   UNL     1      38.284 -12.605  -1.420  1.00  0.00     0.073 A 
HETATM   14  C   UNL     1      37.729 -13.203  -2.552  1.00  0.00     0.037 A 
HETATM   15  C   UNL     1      38.171 -14.454  -2.968  1.00  0.00     0.003 A 
HETATM   16  C   UNL     1      39.157 -15.109  -2.240  1.00  0.00     0.001 A 
HETATM   17  C   UNL     1      39.712 -14.507  -1.106  1.00  0.00     0.012 A 
BRANCH  13  18
HETATM   18  O   UNL     1      37.772 -11.380  -1.089  1.00  0.00    -0.360 OA
HETATM   19  H   UNL     1      37.526 -11.386  -0.143  1.00  0.00     0.217 HD
ENDBRANCH  13  18
ENDBRANCH  10  12
ENDBRANCH   2   4
BRANCH   1  20
HETATM   20  C   UNL     1      40.822 -15.941   4.131  1.00  0.00     0.164 C 
BRANCH  20  21
HETATM   21  C   UNL     1      41.622 -15.520   5.344  1.00  0.00    -0.040 A 
HETATM   22  C   UNL     1      42.060 -14.196   5.485  1.00  0.00     0.009 A 
HETATM   23  C   UNL     1      42.814 -13.815   6.596  1.00  0.00     0.001 A 
HETATM   24  C   UNL     1      43.134 -14.751   7.578  1.00  0.00     0.000 A 
HETATM   25  C   UNL     1      42.696 -16.068   7.453  1.00  0.00     0.001 A 
HETATM   26  C   UNL     1      41.941 -16.451   6.343  1.00  0.00     0.009 A 
ENDBRANCH  20  21
ENDBRANCH   1  20
BRANCH   1  27
HETATM   27  C   UNL     1      42.648 -15.614   2.435  1.00  0.00     0.164 C 
BRANCH  27  28
HETATM   28  C   UNL     1      43.086 -17.039   2.694  1.00  0.00    -0.040 A 
HETATM   29  C   UNL     1      44.020 -17.343   3.699  1.00  0.00     0.009 A 
HETATM   30  C   UNL     1      44.397 -18.664   3.941  1.00  0.00     0.001 A 
HETATM   31  C   UNL     1      43.837 -19.699   3.194  1.00  0.00     0.000 A 
HETATM   32  C   UNL     1      42.898 -19.413   2.205  1.00  0.00     0.001 A 
HETATM   33  C   UNL     1      42.521 -18.091   1.959  1.00  0.00     0.009 A 
ENDBRANCH  27  28
ENDBRANCH   1  27
TORSDOF 7
ENDMDL
