MODEL 1
REMARK VINA RESULT:      -9.5      0.000      0.000
REMARK  9 active torsions:
REMARK  status: ('A' for Active; 'I' for Inactive)
REMARK    1  A    between atoms: C_2  and  O_3 
REMARK    2  A    between atoms: O_3  and  C_4 
REMARK    3  A    between atoms: C_5  and  C_6 
REMARK    4  A    between atoms: C_7  and  C_8 
REMARK       I    between atoms: C_8  and  N_9 
REMARK    5  A    between atoms: N_9  and  C_10 
REMARK    6  A    between atoms: C_20  and  S_21 
REMARK    7  A    between atoms: S_21  and  C_22 
REMARK    8  A    between atoms: C_22  and  C_23 
REMARK       I    between atoms: C_23  and  N_24 
REMARK    9  A    between atoms: N_24  and  C_25 
ROOT
HETATM    1  C   UNL     1      40.625 -13.864   4.720  1.00  0.00     0.107 A 
HETATM    2  C   UNL     1      41.615 -14.682   5.548  1.00  0.00     0.046 A 
HETATM    3  C   UNL     1      42.298 -14.115   6.570  1.00  0.00     0.019 A 
HETATM    4  C   UNL     1      43.163 -14.854   7.560  1.00  0.00     0.069 C 
HETATM    5  N   UNL     1      42.185 -12.755   6.799  1.00  0.00    -0.353 N 
HETATM    6  C   UNL     1      41.389 -11.877   6.082  1.00  0.00     0.087 A 
HETATM    7  C   UNL     1      40.584 -12.383   5.109  1.00  0.00     0.055 A 
HETATM    8  C   UNL     1      39.573 -11.505   4.389  1.00  0.00     0.019 C 
HETATM    9  N   UNL     1      38.736 -10.776   3.792  1.00  0.00    -0.096 N 
HETATM   10  H   UNL     1      42.902 -12.357   7.403  1.00  0.00     0.166 HD
ENDROOT
BRANCH   1  11
HETATM   11  C   UNL     1      40.802 -14.074   3.208  1.00  0.00    -0.011 A 
HETATM   12  C   UNL     1      42.006 -13.812   2.527  1.00  0.00     0.076 A 
HETATM   13  C   UNL     1      42.093 -14.058   1.151  1.00  0.00     0.037 A 
HETATM   14  C   UNL     1      40.993 -14.546   0.443  1.00  0.00     0.003 A 
HETATM   15  C   UNL     1      39.799 -14.802   1.102  1.00  0.00     0.001 A 
HETATM   16  C   UNL     1      39.704 -14.570   2.473  1.00  0.00     0.011 A 
BRANCH  12  17
HETATM   17  O   UNL     1      43.048 -13.357   3.286  1.00  0.00    -0.351 OA
BRANCH  17  18
HETATM   18  C   UNL     1      43.482 -12.010   3.106  1.00  0.00     0.171 C 
HETATM   19  C   UNL     1      44.427 -11.570   4.212  1.00  0.00     0.034 C 
ENDBRANCH  17  18
ENDBRANCH  12  17
ENDBRANCH   1  11
BRANCH   6  20
HETATM   20  S   UNL     1      41.352 -10.137   6.396  1.00  0.00    -0.102 SA
BRANCH  20  21
HETATM   21  C   UNL     1      42.893  -9.767   7.266  1.00  0.00     0.184 C 
BRANCH  21  22
HETATM   22  C   UNL     1      42.643  -9.048   8.579  1.00  0.00     0.231 C 
HETATM   23  N   UNL     1      42.983  -9.792   9.694  1.00  0.00    -0.327 N 
HETATM   24  H   UNL     1      43.334 -10.728   9.521  1.00  0.00     0.169 HD
HETATM   25  O   UNL     1      42.160  -7.915   8.562  1.00  0.00    -0.272 OA
BRANCH  23  26
HETATM   26  C   UNL     1      42.752  -9.464  11.048  1.00  0.00     0.034 A 
HETATM   27  C   UNL     1      43.556  -8.598  11.789  1.00  0.00     0.030 A 
HETATM   28  C   UNL     1      43.199  -8.239  13.095  1.00  0.00     0.009 A 
HETATM   29  C   UNL     1      42.038  -8.747  13.683  1.00  0.00    -0.062 A 
HETATM   30  C   UNL     1      41.627  -8.338  15.066  1.00  0.00     0.048 C 
HETATM   31  C   UNL     1      41.254  -9.648  12.955  1.00  0.00     0.009 A 
HETATM   32  C   UNL     1      41.610 -10.005  11.650  1.00  0.00     0.030 A 
ENDBRANCH  23  26
ENDBRANCH  21  22
ENDBRANCH  20  21
ENDBRANCH   6  20
BRANCH   2  33
HETATM   33  C   UNL     1      41.709 -16.127   5.185  1.00  0.00     0.255 C 
HETATM   34  N   UNL     1      42.906 -16.463   4.586  1.00  0.00    -0.323 N 
HETATM   35  H   UNL     1      43.634 -15.761   4.573  1.00  0.00     0.169 HD
HETATM   36  O   UNL     1      40.764 -16.871   5.411  1.00  0.00    -0.268 OA
BRANCH  34  37
HETATM   37  C   UNL     1      43.247 -17.707   4.024  1.00  0.00     0.035 A 
HETATM   38  C   UNL     1      43.882 -18.719   4.744  1.00  0.00     0.029 A 
HETATM   39  C   UNL     1      44.143 -19.952   4.141  1.00  0.00     0.002 A 
HETATM   40  C   UNL     1      43.798 -20.170   2.808  1.00  0.00     0.000 A 
HETATM   41  C   UNL     1      43.175 -19.158   2.081  1.00  0.00     0.002 A 
HETATM   42  C   UNL     1      42.882 -17.938   2.692  1.00  0.00     0.029 A 
ENDBRANCH  34  37
ENDBRANCH   2  33
TORSDOF 9
ENDMDL
MODEL 2
REMARK VINA RESULT:      -8.7      2.249     10.203
REMARK  9 active torsions:
REMARK  status: ('A' for Active; 'I' for Inactive)
REMARK    1  A    between atoms: C_2  and  O_3 
REMARK    2  A    between atoms: O_3  and  C_4 
REMARK    3  A    between atoms: C_5  and  C_6 
REMARK    4  A    between atoms: C_7  and  C_8 
REMARK       I    between atoms: C_8  and  N_9 
REMARK    5  A    between atoms: N_9  and  C_10 
REMARK    6  A    between atoms: C_20  and  S_21 
REMARK    7  A    between atoms: S_21  and  C_22 
REMARK    8  A    between atoms: C_22  and  C_23 
REMARK       I    between atoms: C_23  and  N_24 
REMARK    9  A    between atoms: N_24  and  C_25 
ROOT
HETATM    1  C   UNL     1      42.286  -9.004   7.246  1.00  0.00     0.107 A 
HETATM    2  C   UNL     1      43.446  -9.195   8.223  1.00  0.00     0.046 A 
HETATM    3  C   UNL     1      44.282 -10.253   8.106  1.00  0.00     0.019 A 
HETATM    4  C   UNL     1      45.553 -10.454   8.893  1.00  0.00     0.069 C 
HETATM    5  N   UNL     1      44.023 -11.232   7.164  1.00  0.00    -0.353 N 
HETATM    6  C   UNL     1      42.968 -11.232   6.266  1.00  0.00     0.087 A 
HETATM    7  C   UNL     1      42.143 -10.150   6.241  1.00  0.00     0.055 A 
HETATM    8  C   UNL     1      41.061 -10.011   5.181  1.00  0.00     0.019 C 
HETATM    9  N   UNL     1      40.164  -9.896   4.303  1.00  0.00    -0.096 N 
HETATM   10  H   UNL     1      44.530 -12.105   7.295  1.00  0.00     0.166 HD
ENDROOT
BRANCH   1  11
HETATM   11  C   UNL     1      40.964  -8.669   7.954  1.00  0.00    -0.011 A 
HETATM   12  C   UNL     1      40.330  -7.416   7.854  1.00  0.00     0.076 A 
HETATM   13  C   UNL     1      39.109  -7.201   8.507  1.00  0.00     0.037 A 
HETATM   14  C   UNL     1      38.523  -8.212   9.271  1.00  0.00     0.003 A 
HETATM   15  C   UNL     1      39.141  -9.448   9.382  1.00  0.00     0.001 A 
HETATM   16  C   UNL     1      40.350  -9.677   8.728  1.00  0.00     0.011 A 
BRANCH  12  17
HETATM   17  O   UNL     1      40.950  -6.481   7.073  1.00  0.00    -0.351 OA
BRANCH  17  18
HETATM   18  C   UNL     1      40.476  -6.285   5.741  1.00  0.00     0.171 C 
HETATM   19  C   UNL     1      41.615  -6.277   4.735  1.00  0.00     0.034 C 
ENDBRANCH  17  18
ENDBRANCH  12  17
ENDBRANCH   1  11
BRANCH   6  20
HETATM   20  S   UNL     1      42.666 -12.558   5.135  1.00  0.00    -0.102 SA
BRANCH  20  21
HETATM   21  C   UNL     1      41.550 -13.688   5.998  1.00  0.00     0.184 C 
BRANCH  21  22
HETATM   22  C   UNL     1      41.872 -15.140   5.698  1.00  0.00     0.231 C 
HETATM   23  N   UNL     1      42.717 -15.311   4.617  1.00  0.00    -0.327 N 
HETATM   24  H   UNL     1      43.008 -14.467   4.135  1.00  0.00     0.169 HD
HETATM   25  O   UNL     1      41.366 -16.024   6.392  1.00  0.00    -0.272 OA
BRANCH  23  26
HETATM   26  C   UNL     1      43.096 -16.526   4.008  1.00  0.00     0.034 A 
HETATM   27  C   UNL     1      43.990 -17.437   4.572  1.00  0.00     0.030 A 
HETATM   28  C   UNL     1      44.232 -18.671   3.955  1.00  0.00     0.009 A 
HETATM   29  C   UNL     1      43.592 -19.010   2.760  1.00  0.00    -0.062 A 
HETATM   30  C   UNL     1      43.816 -20.344   2.113  1.00  0.00     0.048 C 
HETATM   31  C   UNL     1      42.728 -18.080   2.173  1.00  0.00     0.009 A 
HETATM   32  C   UNL     1      42.485 -16.848   2.790  1.00  0.00     0.030 A 
ENDBRANCH  23  26
ENDBRANCH  21  22
ENDBRANCH  20  21
ENDBRANCH   6  20
BRANCH   2  33
HETATM   33  C   UNL     1      43.608  -8.115   9.240  1.00  0.00     0.255 C 
HETATM   34  N   UNL     1      43.012  -8.410  10.450  1.00  0.00    -0.323 N 
HETATM   35  H   UNL     1      42.654  -9.347  10.577  1.00  0.00     0.169 HD
HETATM   36  O   UNL     1      44.206  -7.089   8.945  1.00  0.00    -0.268 OA
BRANCH  34  37
HETATM   37  C   UNL     1      42.885  -7.552  11.558  1.00  0.00     0.035 A 
HETATM   38  C   UNL     1      42.263  -6.305  11.487  1.00  0.00     0.029 A 
HETATM   39  C   UNL     1      42.120  -5.527  12.638  1.00  0.00     0.002 A 
HETATM   40  C   UNL     1      42.624  -5.976  13.858  1.00  0.00     0.000 A 
HETATM   41  C   UNL     1      43.257  -7.214  13.931  1.00  0.00     0.002 A 
HETATM   42  C   UNL     1      43.369  -8.008  12.789  1.00  0.00     0.029 A 
ENDBRANCH  34  37
ENDBRANCH   2  33
TORSDOF 9
ENDMDL
MODEL 3
REMARK VINA RESULT:      -8.7      1.660      2.599
REMARK  9 active torsions:
REMARK  status: ('A' for Active; 'I' for Inactive)
REMARK    1  A    between atoms: C_2  and  O_3 
REMARK    2  A    between atoms: O_3  and  C_4 
REMARK    3  A    between atoms: C_5  and  C_6 
REMARK    4  A    between atoms: C_7  and  C_8 
REMARK       I    between atoms: C_8  and  N_9 
REMARK    5  A    between atoms: N_9  and  C_10 
REMARK    6  A    between atoms: C_20  and  S_21 
REMARK    7  A    between atoms: S_21  and  C_22 
REMARK    8  A    between atoms: C_22  and  C_23 
REMARK       I    between atoms: C_23  and  N_24 
REMARK    9  A    between atoms: N_24  and  C_25 
ROOT
HETATM    1  C   UNL     1      41.044 -12.389   4.550  1.00  0.00     0.107 A 
HETATM    2  C   UNL     1      42.370 -13.050   4.925  1.00  0.00     0.046 A 
HETATM    3  C   UNL     1      43.044 -12.671   6.035  1.00  0.00     0.019 A 
HETATM    4  C   UNL     1      44.261 -13.360   6.598  1.00  0.00     0.069 C 
HETATM    5  N   UNL     1      42.587 -11.599   6.782  1.00  0.00    -0.353 N 
HETATM    6  C   UNL     1      41.447 -10.857   6.520  1.00  0.00     0.087 A 
HETATM    7  C   UNL     1      40.651 -11.242   5.485  1.00  0.00     0.055 A 
HETATM    8  C   UNL     1      39.308 -10.573   5.236  1.00  0.00     0.019 C 
HETATM    9  N   UNL     1      38.196 -10.018   5.028  1.00  0.00    -0.096 N 
HETATM   10  H   UNL     1      43.260 -11.213   7.441  1.00  0.00     0.166 HD
ENDROOT
BRANCH   1  11
HETATM   11  C   UNL     1      40.976 -11.993   3.067  1.00  0.00    -0.011 A 
HETATM   12  C   UNL     1      40.111 -12.608   2.142  1.00  0.00     0.076 A 
HETATM   13  C   UNL     1      40.090 -12.168   0.812  1.00  0.00     0.037 A 
HETATM   14  C   UNL     1      40.929 -11.135   0.391  1.00  0.00     0.003 A 
HETATM   15  C   UNL     1      41.789 -10.525   1.292  1.00  0.00     0.001 A 
HETATM   16  C   UNL     1      41.812 -10.949   2.619  1.00  0.00     0.011 A 
BRANCH  12  17
HETATM   17  O   UNL     1      39.303 -13.598   2.628  1.00  0.00    -0.351 OA
BRANCH  17  18
HETATM   18  C   UNL     1      39.693 -14.955   2.424  1.00  0.00     0.171 C 
HETATM   19  C   UNL     1      40.074 -15.220   0.977  1.00  0.00     0.034 C 
ENDBRANCH  17  18
ENDBRANCH  12  17
ENDBRANCH   1  11
BRANCH   6  20
HETATM   20  S   UNL     1      40.968  -9.456   7.486  1.00  0.00    -0.102 SA
BRANCH  20  21
HETATM   21  C   UNL     1      42.495  -8.827   8.220  1.00  0.00     0.184 C 
BRANCH  21  22
HETATM   22  C   UNL     1      42.590  -9.157   9.699  1.00  0.00     0.231 C 
HETATM   23  N   UNL     1      41.920  -8.263  10.513  1.00  0.00    -0.327 N 
HETATM   24  H   UNL     1      41.466  -7.484  10.048  1.00  0.00     0.169 HD
HETATM   25  O   UNL     1      43.242 -10.140  10.054  1.00  0.00    -0.272 OA
BRANCH  23  26
HETATM   26  C   UNL     1      41.926  -8.215  11.923  1.00  0.00     0.034 A 
HETATM   27  C   UNL     1      42.987  -7.723  12.683  1.00  0.00     0.030 A 
HETATM   28  C   UNL     1      42.873  -7.609  14.075  1.00  0.00     0.009 A 
HETATM   29  C   UNL     1      41.700  -7.994  14.729  1.00  0.00    -0.062 A 
HETATM   30  C   UNL     1      41.554  -7.839  16.213  1.00  0.00     0.048 C 
HETATM   31  C   UNL     1      40.651  -8.526  13.971  1.00  0.00     0.009 A 
HETATM   32  C   UNL     1      40.765  -8.638  12.582  1.00  0.00     0.030 A 
ENDBRANCH  23  26
ENDBRANCH  21  22
ENDBRANCH  20  21
ENDBRANCH   6  20
BRANCH   2  33
HETATM   33  C   UNL     1      42.807 -14.157   4.024  1.00  0.00     0.255 C 
HETATM   34  N   UNL     1      42.570 -15.413   4.546  1.00  0.00    -0.323 N 
HETATM   35  H   UNL     1      42.021 -15.468   5.394  1.00  0.00     0.169 HD
HETATM   36  O   UNL     1      43.335 -13.894   2.952  1.00  0.00    -0.268 OA
BRANCH  34  37
HETATM   37  C   UNL     1      42.975 -16.644   3.999  1.00  0.00     0.035 A 
HETATM   38  C   UNL     1      42.491 -17.133   2.786  1.00  0.00     0.029 A 
HETATM   39  C   UNL     1      42.977 -18.337   2.270  1.00  0.00     0.002 A 
HETATM   40  C   UNL     1      43.925 -19.074   2.979  1.00  0.00     0.000 A 
HETATM   41  C   UNL     1      44.402 -18.596   4.197  1.00  0.00     0.002 A 
HETATM   42  C   UNL     1      43.944 -17.376   4.696  1.00  0.00     0.029 A 
ENDBRANCH  34  37
ENDBRANCH   2  33
TORSDOF 9
ENDMDL
MODEL 4
REMARK VINA RESULT:      -8.6      2.274      4.738
REMARK  9 active torsions:
REMARK  status: ('A' for Active; 'I' for Inactive)
REMARK    1  A    between atoms: C_2  and  O_3 
REMARK    2  A    between atoms: O_3  and  C_4 
REMARK    3  A    between atoms: C_5  and  C_6 
REMARK    4  A    between atoms: C_7  and  C_8 
REMARK       I    between atoms: C_8  and  N_9 
REMARK    5  A    between atoms: N_9  and  C_10 
REMARK    6  A    between atoms: C_20  and  S_21 
REMARK    7  A    between atoms: S_21  and  C_22 
REMARK    8  A    between atoms: C_22  and  C_23 
REMARK       I    between atoms: C_23  and  N_24 
REMARK    9  A    between atoms: N_24  and  C_25 
ROOT
HETATM    1  C   UNL     1      41.726 -12.285   4.508  1.00  0.00     0.107 A 
HETATM    2  C   UNL     1      40.455 -11.649   3.946  1.00  0.00     0.046 A 
HETATM    3  C   UNL     1      40.054 -10.423   4.355  1.00  0.00     0.019 A 
HETATM    4  C   UNL     1      38.925  -9.625   3.752  1.00  0.00     0.069 C 
HETATM    5  N   UNL     1      40.738  -9.782   5.373  1.00  0.00    -0.353 N 
HETATM    6  C   UNL     1      41.857 -10.269   6.028  1.00  0.00     0.087 A 
HETATM    7  C   UNL     1      42.392 -11.446   5.602  1.00  0.00     0.055 A 
HETATM    8  C   UNL     1      43.705 -11.962   6.169  1.00  0.00     0.019 C 
HETATM    9  N   UNL     1      44.793 -12.391   6.639  1.00  0.00    -0.096 N 
HETATM   10  H   UNL     1      40.246  -8.998   5.798  1.00  0.00     0.166 HD
ENDROOT
BRANCH   1  11
HETATM   11  C   UNL     1      41.522 -13.749   4.926  1.00  0.00    -0.011 A 
HETATM   12  C   UNL     1      42.245 -14.820   4.367  1.00  0.00     0.076 A 
HETATM   13  C   UNL     1      42.019 -16.124   4.826  1.00  0.00     0.037 A 
HETATM   14  C   UNL     1      41.074 -16.376   5.821  1.00  0.00     0.003 A 
HETATM   15  C   UNL     1      40.352 -15.329   6.376  1.00  0.00     0.001 A 
HETATM   16  C   UNL     1      40.575 -14.027   5.934  1.00  0.00     0.011 A 
BRANCH  12  17
HETATM   17  O   UNL     1      43.169 -14.498   3.412  1.00  0.00    -0.351 OA
BRANCH  17  18
HETATM   18  C   UNL     1      42.844 -14.740   2.044  1.00  0.00     0.171 C 
HETATM   19  C   UNL     1      43.359 -16.091   1.574  1.00  0.00     0.034 C 
ENDBRANCH  17  18
ENDBRANCH  12  17
ENDBRANCH   1  11
BRANCH   6  20
HETATM   20  S   UNL     1      42.634  -9.417   7.368  1.00  0.00    -0.102 SA
BRANCH  20  21
HETATM   21  C   UNL     1      41.366  -9.265   8.648  1.00  0.00     0.184 C 
BRANCH  21  22
HETATM   22  C   UNL     1      41.968  -9.247  10.041  1.00  0.00     0.231 C 
HETATM   23  N   UNL     1      41.252  -8.485  10.946  1.00  0.00    -0.327 N 
HETATM   24  H   UNL     1      40.432  -8.010  10.585  1.00  0.00     0.169 HD
HETATM   25  O   UNL     1      43.012  -9.866  10.254  1.00  0.00    -0.272 OA
BRANCH  23  26
HETATM   26  C   UNL     1      41.614  -8.162  12.272  1.00  0.00     0.034 A 
HETATM   27  C   UNL     1      42.869  -7.681  12.643  1.00  0.00     0.030 A 
HETATM   28  C   UNL     1      43.116  -7.280  13.963  1.00  0.00     0.009 A 
HETATM   29  C   UNL     1      42.114  -7.363  14.933  1.00  0.00    -0.062 A 
HETATM   30  C   UNL     1      42.357  -6.900  16.339  1.00  0.00     0.048 C 
HETATM   31  C   UNL     1      40.868  -7.884  14.570  1.00  0.00     0.009 A 
HETATM   32  C   UNL     1      40.622  -8.283  13.252  1.00  0.00     0.030 A 
ENDBRANCH  23  26
ENDBRANCH  21  22
ENDBRANCH  20  21
ENDBRANCH   6  20
BRANCH   2  33
HETATM   33  C   UNL     1      39.756 -12.445   2.894  1.00  0.00     0.255 C 
HETATM   34  N   UNL     1      40.301 -12.287   1.636  1.00  0.00    -0.323 N 
HETATM   35  H   UNL     1      41.172 -11.777   1.567  1.00  0.00     0.169 HD
HETATM   36  O   UNL     1      38.788 -13.130   3.196  1.00  0.00    -0.268 OA
BRANCH  34  37
HETATM   37  C   UNL     1      39.798 -12.802   0.428  1.00  0.00     0.035 A 
HETATM   38  C   UNL     1      40.045 -14.105  -0.005  1.00  0.00     0.029 A 
HETATM   39  C   UNL     1      39.468 -14.573  -1.188  1.00  0.00     0.002 A 
HETATM   40  C   UNL     1      38.667 -13.732  -1.960  1.00  0.00     0.000 A 
HETATM   41  C   UNL     1      38.428 -12.427  -1.539  1.00  0.00     0.002 A 
HETATM   42  C   UNL     1      38.974 -11.970  -0.339  1.00  0.00     0.029 A 
ENDBRANCH  34  37
ENDBRANCH   2  33
TORSDOF 9
ENDMDL
MODEL 5
REMARK VINA RESULT:      -8.5      4.412      8.842
REMARK  9 active torsions:
REMARK  status: ('A' for Active; 'I' for Inactive)
REMARK    1  A    between atoms: C_2  and  O_3 
REMARK    2  A    between atoms: O_3  and  C_4 
REMARK    3  A    between atoms: C_5  and  C_6 
REMARK    4  A    between atoms: C_7  and  C_8 
REMARK       I    between atoms: C_8  and  N_9 
REMARK    5  A    between atoms: N_9  and  C_10 
REMARK    6  A    between atoms: C_20  and  S_21 
REMARK    7  A    between atoms: S_21  and  C_22 
REMARK    8  A    between atoms: C_22  and  C_23 
REMARK       I    between atoms: C_23  and  N_24 
REMARK    9  A    between atoms: N_24  and  C_25 
ROOT
HETATM    1  C   UNL     1      40.820 -11.466   2.143  1.00  0.00     0.107 A 
HETATM    2  C   UNL     1      39.599 -10.695   2.642  1.00  0.00     0.046 A 
HETATM    3  C   UNL     1      39.315 -10.627   3.963  1.00  0.00     0.019 A 
HETATM    4  C   UNL     1      38.249  -9.761   4.586  1.00  0.00     0.069 C 
HETATM    5  N   UNL     1      40.074 -11.351   4.866  1.00  0.00    -0.353 N 
HETATM    6  C   UNL     1      41.159 -12.153   4.552  1.00  0.00     0.087 A 
HETATM    7  C   UNL     1      41.580 -12.190   3.259  1.00  0.00     0.055 A 
HETATM    8  C   UNL     1      42.854 -12.923   2.868  1.00  0.00     0.019 C 
HETATM    9  N   UNL     1      43.909 -13.530   2.543  1.00  0.00    -0.096 N 
HETATM   10  H   UNL     1      39.661 -11.457   5.791  1.00  0.00     0.166 HD
ENDROOT
BRANCH   1  11
HETATM   11  C   UNL     1      40.497 -12.385   0.954  1.00  0.00    -0.011 A 
HETATM   12  C   UNL     1      40.761 -12.038  -0.384  1.00  0.00     0.076 A 
HETATM   13  C   UNL     1      40.463 -12.945  -1.409  1.00  0.00     0.037 A 
HETATM   14  C   UNL     1      39.892 -14.185  -1.118  1.00  0.00     0.003 A 
HETATM   15  C   UNL     1      39.623 -14.536   0.197  1.00  0.00     0.001 A 
HETATM   16  C   UNL     1      39.924 -13.645   1.225  1.00  0.00     0.011 A 
BRANCH  12  17
HETATM   17  O   UNL     1      41.340 -10.817  -0.594  1.00  0.00    -0.351 OA
BRANCH  17  18
HETATM   18  C   UNL     1      40.916 -10.048  -1.719  1.00  0.00     0.171 C 
HETATM   19  C   UNL     1      41.805  -8.834  -1.937  1.00  0.00     0.034 C 
ENDBRANCH  17  18
ENDBRANCH  12  17
ENDBRANCH   1  11
BRANCH   6  20
HETATM   20  S   UNL     1      42.035 -13.103   5.759  1.00  0.00    -0.102 SA
BRANCH  20  21
HETATM   21  C   UNL     1      40.862 -14.348   6.343  1.00  0.00     0.184 C 
BRANCH  21  22
HETATM   22  C   UNL     1      41.108 -15.702   5.703  1.00  0.00     0.231 C 
HETATM   23  N   UNL     1      42.342 -15.811   5.089  1.00  0.00    -0.327 N 
HETATM   24  H   UNL     1      42.931 -14.985   5.111  1.00  0.00     0.169 HD
HETATM   25  O   UNL     1      40.226 -16.561   5.755  1.00  0.00    -0.272 OA
BRANCH  23  26
HETATM   26  C   UNL     1      42.817 -16.881   4.301  1.00  0.00     0.034 A 
HETATM   27  C   UNL     1      43.683 -17.871   4.768  1.00  0.00     0.030 A 
HETATM   28  C   UNL     1      44.023 -18.960   3.955  1.00  0.00     0.009 A 
HETATM   29  C   UNL     1      43.510 -19.071   2.659  1.00  0.00    -0.062 A 
HETATM   30  C   UNL     1      43.838 -20.252   1.796  1.00  0.00     0.048 C 
HETATM   31  C   UNL     1      42.676 -18.057   2.177  1.00  0.00     0.009 A 
HETATM   32  C   UNL     1      42.336 -16.971   2.990  1.00  0.00     0.030 A 
ENDBRANCH  23  26
ENDBRANCH  21  22
ENDBRANCH  20  21
ENDBRANCH   6  20
BRANCH   2  33
HETATM   33  C   UNL     1      38.811  -9.995   1.585  1.00  0.00     0.255 C 
HETATM   34  N   UNL     1      37.683 -10.689   1.195  1.00  0.00    -0.323 N 
HETATM   35  H   UNL     1      37.429 -11.506   1.734  1.00  0.00     0.169 HD
HETATM   36  O   UNL     1      39.206  -8.924   1.144  1.00  0.00    -0.268 OA
BRANCH  34  37
HETATM   37  C   UNL     1      36.810 -10.355   0.143  1.00  0.00     0.035 A 
HETATM   38  C   UNL     1      35.633  -9.630   0.333  1.00  0.00     0.029 A 
HETATM   39  C   UNL     1      34.839  -9.283  -0.763  1.00  0.00     0.002 A 
HETATM   40  C   UNL     1      35.199  -9.684  -2.048  1.00  0.00     0.000 A 
HETATM   41  C   UNL     1      36.366 -10.420  -2.242  1.00  0.00     0.002 A 
HETATM   42  C   UNL     1      37.179 -10.736  -1.152  1.00  0.00     0.029 A 
ENDBRANCH  34  37
ENDBRANCH   2  33
TORSDOF 9
ENDMDL
MODEL 6
REMARK VINA RESULT:      -8.5      4.373      9.043
REMARK  9 active torsions:
REMARK  status: ('A' for Active; 'I' for Inactive)
REMARK    1  A    between atoms: C_2  and  O_3 
REMARK    2  A    between atoms: O_3  and  C_4 
REMARK    3  A    between atoms: C_5  and  C_6 
REMARK    4  A    between atoms: C_7  and  C_8 
REMARK       I    between atoms: C_8  and  N_9 
REMARK    5  A    between atoms: N_9  and  C_10 
REMARK    6  A    between atoms: C_20  and  S_21 
REMARK    7  A    between atoms: S_21  and  C_22 
REMARK    8  A    between atoms: C_22  and  C_23 
REMARK       I    between atoms: C_23  and  N_24 
REMARK    9  A    between atoms: N_24  and  C_25 
ROOT
HETATM    1  C   UNL     1      40.319 -11.180   1.770  1.00  0.00     0.107 A 
HETATM    2  C   UNL     1      40.669  -9.748   2.172  1.00  0.00     0.046 A 
HETATM    3  C   UNL     1      40.919  -9.432   3.463  1.00  0.00     0.019 A 
HETATM    4  C   UNL     1      41.440  -8.104   3.955  1.00  0.00     0.069 C 
HETATM    5  N   UNL     1      40.750 -10.388   4.449  1.00  0.00    -0.353 N 
HETATM    6  C   UNL     1      40.362 -11.702   4.243  1.00  0.00     0.087 A 
HETATM    7  C   UNL     1      40.197 -12.133   2.963  1.00  0.00     0.055 A 
HETATM    8  C   UNL     1      39.925 -13.598   2.656  1.00  0.00     0.019 C 
HETATM    9  N   UNL     1      39.699 -14.811   2.400  1.00  0.00    -0.096 N 
HETATM   10  H   UNL     1      40.707 -10.027   5.400  1.00  0.00     0.166 HD
ENDROOT
BRANCH   1  11
HETATM   11  C   UNL     1      39.106 -11.253   0.829  1.00  0.00    -0.011 A 
HETATM   12  C   UNL     1      39.135 -11.904  -0.419  1.00  0.00     0.076 A 
HETATM   13  C   UNL     1      37.976 -11.950  -1.205  1.00  0.00     0.037 A 
HETATM   14  C   UNL     1      36.796 -11.344  -0.770  1.00  0.00     0.003 A 
HETATM   15  C   UNL     1      36.757 -10.695   0.455  1.00  0.00     0.001 A 
HETATM   16  C   UNL     1      37.901 -10.651   1.249  1.00  0.00     0.011 A 
BRANCH  12  17
HETATM   17  O   UNL     1      40.317 -12.493  -0.771  1.00  0.00    -0.351 OA
BRANCH  17  18
HETATM   18  C   UNL     1      40.420 -13.092  -2.062  1.00  0.00     0.171 C 
HETATM   19  C   UNL     1      41.169 -12.200  -3.038  1.00  0.00     0.034 C 
ENDBRANCH  17  18
ENDBRANCH  12  17
ENDBRANCH   1  11
BRANCH   6  20
HETATM   20  S   UNL     1      40.101 -12.847   5.566  1.00  0.00    -0.102 SA
BRANCH  20  21
HETATM   21  C   UNL     1      41.719 -13.579   5.901  1.00  0.00     0.184 C 
BRANCH  21  22
HETATM   22  C   UNL     1      41.790 -15.027   5.450  1.00  0.00     0.231 C 
HETATM   23  N   UNL     1      42.964 -15.349   4.795  1.00  0.00    -0.327 N 
HETATM   24  H   UNL     1      43.630 -14.594   4.667  1.00  0.00     0.169 HD
HETATM   25  O   UNL     1      40.835 -15.772   5.670  1.00  0.00    -0.272 OA
BRANCH  23  26
HETATM   26  C   UNL     1      43.280 -16.561   4.144  1.00  0.00     0.034 A 
HETATM   27  C   UNL     1      44.066 -17.567   4.706  1.00  0.00     0.030 A 
HETATM   28  C   UNL     1      44.244 -18.786   4.040  1.00  0.00     0.009 A 
HETATM   29  C   UNL     1      43.647 -19.015   2.798  1.00  0.00    -0.062 A 
HETATM   30  C   UNL     1      43.800 -20.331   2.095  1.00  0.00     0.048 C 
HETATM   31  C   UNL     1      42.893 -17.991   2.215  1.00  0.00     0.009 A 
HETATM   32  C   UNL     1      42.714 -16.774   2.881  1.00  0.00     0.030 A 
ENDBRANCH  23  26
ENDBRANCH  21  22
ENDBRANCH  20  21
ENDBRANCH   6  20
BRANCH   2  33
HETATM   33  C   UNL     1      40.771  -8.776   1.043  1.00  0.00     0.255 C 
HETATM   34  N   UNL     1      41.741  -9.111   0.120  1.00  0.00    -0.323 N 
HETATM   35  H   UNL     1      42.181 -10.017   0.215  1.00  0.00     0.169 HD
HETATM   36  O   UNL     1      40.043  -7.793   1.022  1.00  0.00    -0.268 OA
BRANCH  34  37
HETATM   37  C   UNL     1      42.159  -8.341  -0.980  1.00  0.00     0.035 A 
HETATM   38  C   UNL     1      41.731  -8.583  -2.286  1.00  0.00     0.029 A 
HETATM   39  C   UNL     1      42.141  -7.746  -3.326  1.00  0.00     0.002 A 
HETATM   40  C   UNL     1      43.005  -6.681  -3.072  1.00  0.00     0.000 A 
HETATM   41  C   UNL     1      43.446  -6.442  -1.773  1.00  0.00     0.002 A 
HETATM   42  C   UNL     1      43.009  -7.257  -0.727  1.00  0.00     0.029 A 
ENDBRANCH  34  37
ENDBRANCH   2  33
TORSDOF 9
ENDMDL
MODEL 7
REMARK VINA RESULT:      -8.5      2.617     10.382
REMARK  9 active torsions:
REMARK  status: ('A' for Active; 'I' for Inactive)
REMARK    1  A    between atoms: C_2  and  O_3 
REMARK    2  A    between atoms: O_3  and  C_4 
REMARK    3  A    between atoms: C_5  and  C_6 
REMARK    4  A    between atoms: C_7  and  C_8 
REMARK       I    between atoms: C_8  and  N_9 
REMARK    5  A    between atoms: N_9  and  C_10 
REMARK    6  A    between atoms: C_20  and  S_21 
REMARK    7  A    between atoms: S_21  and  C_22 
REMARK    8  A    between atoms: C_22  and  C_23 
REMARK       I    between atoms: C_23  and  N_24 
REMARK    9  A    between atoms: N_24  and  C_25 
ROOT
HETATM    1  C   UNL     1      42.259 -10.001   7.115  1.00  0.00     0.107 A 
HETATM    2  C   UNL     1      41.728  -8.713   6.487  1.00  0.00     0.046 A 
HETATM    3  C   UNL     1      41.663  -8.573   5.143  1.00  0.00     0.019 A 
HETATM    4  C   UNL     1      41.002  -7.430   4.413  1.00  0.00     0.069 C 
HETATM    5  N   UNL     1      42.182  -9.560   4.325  1.00  0.00    -0.353 N 
HETATM    6  C   UNL     1      42.763 -10.743   4.752  1.00  0.00     0.087 A 
HETATM    7  C   UNL     1      42.769 -11.013   6.086  1.00  0.00     0.055 A 
HETATM    8  C   UNL     1      43.248 -12.357   6.613  1.00  0.00     0.019 C 
HETATM    9  N   UNL     1      43.645 -13.471   7.050  1.00  0.00    -0.096 N 
HETATM   10  H   UNL     1      42.329  -9.286   3.355  1.00  0.00     0.166 HD
ENDROOT
BRANCH   1  11
HETATM   11  C   UNL     1      43.273  -9.739   8.240  1.00  0.00    -0.011 A 
HETATM   12  C   UNL     1      42.922  -9.701   9.603  1.00  0.00     0.076 A 
HETATM   13  C   UNL     1      43.913  -9.485  10.569  1.00  0.00     0.037 A 
HETATM   14  C   UNL     1      45.243  -9.292  10.194  1.00  0.00     0.003 A 
HETATM   15  C   UNL     1      45.600  -9.321   8.855  1.00  0.00     0.001 A 
HETATM   16  C   UNL     1      44.624  -9.545   7.885  1.00  0.00     0.011 A 
BRANCH  12  17
HETATM   17  O   UNL     1      41.605  -9.920   9.899  1.00  0.00    -0.351 OA
BRANCH  17  18
HETATM   18  C   UNL     1      41.001  -9.138  10.929  1.00  0.00     0.171 C 
HETATM   19  C   UNL     1      40.509 -10.005  12.076  1.00  0.00     0.034 C 
ENDBRANCH  17  18
ENDBRANCH  12  17
ENDBRANCH   1  11
BRANCH   6  20
HETATM   20  S   UNL     1      43.467 -11.926   3.641  1.00  0.00    -0.102 SA
BRANCH  20  21
HETATM   21  C   UNL     1      42.084 -12.941   3.073  1.00  0.00     0.184 C 
BRANCH  21  22
HETATM   22  C   UNL     1      42.080 -14.311   3.728  1.00  0.00     0.231 C 
HETATM   23  N   UNL     1      43.160 -15.099   3.375  1.00  0.00    -0.327 N 
HETATM   24  H   UNL     1      43.814 -14.696   2.712  1.00  0.00     0.169 HD
HETATM   25  O   UNL     1      41.151 -14.616   4.475  1.00  0.00    -0.272 OA
BRANCH  23  26
HETATM   26  C   UNL     1      43.377 -16.454   3.704  1.00  0.00     0.034 A 
HETATM   27  C   UNL     1      43.398 -17.490   2.770  1.00  0.00     0.030 A 
HETATM   28  C   UNL     1      43.728 -18.794   3.162  1.00  0.00     0.009 A 
HETATM   29  C   UNL     1      44.033 -19.084   4.494  1.00  0.00    -0.062 A 
HETATM   30  C   UNL     1      44.425 -20.469   4.916  1.00  0.00     0.048 C 
HETATM   31  C   UNL     1      43.971 -18.053   5.438  1.00  0.00     0.009 A 
HETATM   32  C   UNL     1      43.644 -16.751   5.046  1.00  0.00     0.030 A 
ENDBRANCH  23  26
ENDBRANCH  21  22
ENDBRANCH  20  21
ENDBRANCH   6  20
BRANCH   2  33
HETATM   33  C   UNL     1      41.245  -7.684   7.455  1.00  0.00     0.255 C 
HETATM   34  N   UNL     1      42.181  -6.707   7.727  1.00  0.00    -0.323 N 
HETATM   35  H   UNL     1      43.022  -6.698   7.165  1.00  0.00     0.169 HD
HETATM   36  O   UNL     1      40.122  -7.782   7.933  1.00  0.00    -0.268 OA
BRANCH  34  37
HETATM   37  C   UNL     1      42.073  -5.678   8.681  1.00  0.00     0.035 A 
HETATM   38  C   UNL     1      41.420  -4.472   8.428  1.00  0.00     0.029 A 
HETATM   39  C   UNL     1      41.300  -3.514   9.438  1.00  0.00     0.002 A 
HETATM   40  C   UNL     1      41.858  -3.743  10.695  1.00  0.00     0.000 A 
HETATM   41  C   UNL     1      42.523  -4.940  10.948  1.00  0.00     0.002 A 
HETATM   42  C   UNL     1      42.613  -5.913   9.951  1.00  0.00     0.029 A 
ENDBRANCH  34  37
ENDBRANCH   2  33
TORSDOF 9
ENDMDL
MODEL 8
REMARK VINA RESULT:      -8.4      3.762      7.112
REMARK  9 active torsions:
REMARK  status: ('A' for Active; 'I' for Inactive)
REMARK    1  A    between atoms: C_2  and  O_3 
REMARK    2  A    between atoms: O_3  and  C_4 
REMARK    3  A    between atoms: C_5  and  C_6 
REMARK    4  A    between atoms: C_7  and  C_8 
REMARK       I    between atoms: C_8  and  N_9 
REMARK    5  A    between atoms: N_9  and  C_10 
REMARK    6  A    between atoms: C_20  and  S_21 
REMARK    7  A    between atoms: S_21  and  C_22 
REMARK    8  A    between atoms: C_22  and  C_23 
REMARK       I    between atoms: C_23  and  N_24 
REMARK    9  A    between atoms: N_24  and  C_25 
ROOT
HETATM    1  C   UNL     1      41.793 -13.307   3.715  1.00  0.00     0.107 A 
HETATM    2  C   UNL     1      41.607 -14.217   2.502  1.00  0.00     0.046 A 
HETATM    3  C   UNL     1      40.645 -13.961   1.585  1.00  0.00     0.019 A 
HETATM    4  C   UNL     1      40.478 -14.678   0.269  1.00  0.00     0.069 C 
HETATM    5  N   UNL     1      39.747 -12.931   1.802  1.00  0.00    -0.353 N 
HETATM    6  C   UNL     1      39.745 -12.075   2.892  1.00  0.00     0.087 A 
HETATM    7  C   UNL     1      40.747 -12.193   3.805  1.00  0.00     0.055 A 
HETATM    8  C   UNL     1      40.896 -11.191   4.940  1.00  0.00     0.019 C 
HETATM    9  N   UNL     1      41.020 -10.362   5.881  1.00  0.00    -0.096 N 
HETATM   10  H   UNL     1      38.914 -12.953   1.218  1.00  0.00     0.166 HD
ENDROOT
BRANCH   1  11
HETATM   11  C   UNL     1      41.937 -14.092   5.029  1.00  0.00    -0.011 A 
HETATM   12  C   UNL     1      42.993 -13.892   5.937  1.00  0.00     0.076 A 
HETATM   13  C   UNL     1      43.035 -14.629   7.128  1.00  0.00     0.037 A 
HETATM   14  C   UNL     1      42.047 -15.572   7.416  1.00  0.00     0.003 A 
HETATM   15  C   UNL     1      41.004 -15.782   6.526  1.00  0.00     0.001 A 
HETATM   16  C   UNL     1      40.947 -15.048   5.344  1.00  0.00     0.011 A 
BRANCH  12  17
HETATM   17  O   UNL     1      43.913 -12.938   5.600  1.00  0.00    -0.351 OA
BRANCH  17  18
HETATM   18  C   UNL     1      44.196 -11.904   6.541  1.00  0.00     0.171 C 
HETATM   19  C   UNL     1      45.671 -11.535   6.545  1.00  0.00     0.034 C 
ENDBRANCH  17  18
ENDBRANCH  12  17
ENDBRANCH   1  11
BRANCH   6  20
HETATM   20  S   UNL     1      38.519 -10.823   3.130  1.00  0.00    -0.102 SA
BRANCH  20  21
HETATM   21  C   UNL     1      38.549  -9.822   1.626  1.00  0.00     0.184 C 
BRANCH  21  22
HETATM   22  C   UNL     1      39.747  -8.891   1.589  1.00  0.00     0.231 C 
HETATM   23  N   UNL     1      40.103  -8.493   0.313  1.00  0.00    -0.327 N 
HETATM   24  H   UNL     1      39.552  -8.876  -0.448  1.00  0.00     0.169 HD
HETATM   25  O   UNL     1      40.304  -8.587   2.644  1.00  0.00    -0.272 OA
BRANCH  23  26
HETATM   26  C   UNL     1      41.238  -7.745  -0.067  1.00  0.00     0.034 A 
HETATM   27  C   UNL     1      42.263  -8.239  -0.873  1.00  0.00     0.030 A 
HETATM   28  C   UNL     1      43.303  -7.400  -1.296  1.00  0.00     0.009 A 
HETATM   29  C   UNL     1      43.337  -6.057  -0.911  1.00  0.00    -0.062 A 
HETATM   30  C   UNL     1      44.425  -5.142  -1.389  1.00  0.00     0.048 C 
HETATM   31  C   UNL     1      42.331  -5.573  -0.068  1.00  0.00     0.009 A 
HETATM   32  C   UNL     1      41.293  -6.411   0.352  1.00  0.00     0.030 A 
ENDBRANCH  23  26
ENDBRANCH  21  22
ENDBRANCH  20  21
ENDBRANCH   6  20
BRANCH   2  33
HETATM   33  C   UNL     1      42.589 -15.335   2.387  1.00  0.00     0.255 C 
HETATM   34  N   UNL     1      42.137 -16.518   2.937  1.00  0.00    -0.323 N 
HETATM   35  H   UNL     1      41.170 -16.555   3.232  1.00  0.00     0.169 HD
HETATM   36  O   UNL     1      43.676 -15.136   1.862  1.00  0.00    -0.268 OA
BRANCH  34  37
HETATM   37  C   UNL     1      42.869 -17.709   3.094  1.00  0.00     0.035 A 
HETATM   38  C   UNL     1      43.650 -17.978   4.219  1.00  0.00     0.029 A 
HETATM   39  C   UNL     1      44.308 -19.205   4.339  1.00  0.00     0.002 A 
HETATM   40  C   UNL     1      44.214 -20.155   3.322  1.00  0.00     0.000 A 
HETATM   41  C   UNL     1      43.447 -19.886   2.192  1.00  0.00     0.002 A 
HETATM   42  C   UNL     1      42.760 -18.675   2.087  1.00  0.00     0.029 A 
ENDBRANCH  34  37
ENDBRANCH   2  33
TORSDOF 9
ENDMDL
MODEL 9
REMARK VINA RESULT:      -8.4      2.379      9.069
REMARK  9 active torsions:
REMARK  status: ('A' for Active; 'I' for Inactive)
REMARK    1  A    between atoms: C_2  and  O_3 
REMARK    2  A    between atoms: O_3  and  C_4 
REMARK    3  A    between atoms: C_5  and  C_6 
REMARK    4  A    between atoms: C_7  and  C_8 
REMARK       I    between atoms: C_8  and  N_9 
REMARK    5  A    between atoms: N_9  and  C_10 
REMARK    6  A    between atoms: C_20  and  S_21 
REMARK    7  A    between atoms: S_21  and  C_22 
REMARK    8  A    between atoms: C_22  and  C_23 
REMARK       I    between atoms: C_23  and  N_24 
REMARK    9  A    between atoms: N_24  and  C_25 
ROOT
HETATM    1  C   UNL     1      42.053  -9.886   4.793  1.00  0.00     0.107 A 
HETATM    2  C   UNL     1      42.560 -10.379   6.148  1.00  0.00     0.046 A 
HETATM    3  C   UNL     1      43.263 -11.531   6.247  1.00  0.00     0.019 A 
HETATM    4  C   UNL     1      43.959 -12.028   7.490  1.00  0.00     0.069 C 
HETATM    5  N   UNL     1      43.432 -12.330   5.130  1.00  0.00    -0.353 N 
HETATM    6  C   UNL     1      42.963 -12.050   3.857  1.00  0.00     0.087 A 
HETATM    7  C   UNL     1      42.341 -10.858   3.646  1.00  0.00     0.055 A 
HETATM    8  C   UNL     1      41.939 -10.418   2.247  1.00  0.00     0.019 C 
HETATM    9  N   UNL     1      41.606 -10.053   1.087  1.00  0.00    -0.096 N 
HETATM   10  H   UNL     1      43.741 -13.281   5.320  1.00  0.00     0.166 HD
ENDROOT
BRANCH   1  11
HETATM   11  C   UNL     1      40.583  -9.440   4.836  1.00  0.00    -0.011 A 
HETATM   12  C   UNL     1      39.503 -10.342   4.890  1.00  0.00     0.076 A 
HETATM   13  C   UNL     1      38.192  -9.854   4.957  1.00  0.00     0.037 A 
HETATM   14  C   UNL     1      37.944  -8.480   4.955  1.00  0.00     0.003 A 
HETATM   15  C   UNL     1      38.999  -7.582   4.898  1.00  0.00     0.001 A 
HETATM   16  C   UNL     1      40.307  -8.057   4.840  1.00  0.00     0.011 A 
BRANCH  12  17
HETATM   17  O   UNL     1      39.822 -11.672   4.909  1.00  0.00    -0.351 OA
BRANCH  17  18
HETATM   18  C   UNL     1      39.454 -12.443   6.052  1.00  0.00     0.171 C 
HETATM   19  C   UNL     1      40.263 -13.726   6.148  1.00  0.00     0.034 C 
ENDBRANCH  17  18
ENDBRANCH  12  17
ENDBRANCH   1  11
BRANCH   6  20
HETATM   20  S   UNL     1      43.162 -13.159   2.493  1.00  0.00    -0.102 SA
BRANCH  20  21
HETATM   21  C   UNL     1      41.578 -14.012   2.325  1.00  0.00     0.184 C 
BRANCH  21  22
HETATM   22  C   UNL     1      41.588 -15.366   3.011  1.00  0.00     0.231 C 
HETATM   23  N   UNL     1      42.850 -15.916   3.136  1.00  0.00    -0.327 N 
HETATM   24  H   UNL     1      43.617 -15.379   2.743  1.00  0.00     0.169 HD
HETATM   25  O   UNL     1      40.522 -15.865   3.372  1.00  0.00    -0.272 OA
BRANCH  23  26
HETATM   26  C   UNL     1      43.182 -17.207   3.602  1.00  0.00     0.034 A 
HETATM   27  C   UNL     1      43.441 -18.295   2.769  1.00  0.00     0.030 A 
HETATM   28  C   UNL     1      43.870 -19.516   3.305  1.00  0.00     0.009 A 
HETATM   29  C   UNL     1      44.037 -19.670   4.684  1.00  0.00    -0.062 A 
HETATM   30  C   UNL     1      44.532 -20.961   5.265  1.00  0.00     0.048 C 
HETATM   31  C   UNL     1      43.737 -18.591   5.523  1.00  0.00     0.009 A 
HETATM   32  C   UNL     1      43.311 -17.372   4.986  1.00  0.00     0.030 A 
ENDBRANCH  23  26
ENDBRANCH  21  22
ENDBRANCH  20  21
ENDBRANCH   6  20
BRANCH   2  33
HETATM   33  C   UNL     1      42.277  -9.475   7.302  1.00  0.00     0.255 C 
HETATM   34  N   UNL     1      41.190  -9.873   8.054  1.00  0.00    -0.323 N 
HETATM   35  H   UNL     1      40.786 -10.777   7.846  1.00  0.00     0.169 HD
HETATM   36  O   UNL     1      42.975  -8.486   7.482  1.00  0.00    -0.268 OA
BRANCH  34  37
HETATM   37  C   UNL     1      40.602  -9.172   9.122  1.00  0.00     0.035 A 
HETATM   38  C   UNL     1      41.030  -9.300  10.444  1.00  0.00     0.029 A 
HETATM   39  C   UNL     1      40.440  -8.532  11.450  1.00  0.00     0.002 A 
HETATM   40  C   UNL     1      39.399  -7.655  11.147  1.00  0.00     0.000 A 
HETATM   41  C   UNL     1      38.959  -7.533   9.831  1.00  0.00     0.002 A 
HETATM   42  C   UNL     1      39.572  -8.274   8.819  1.00  0.00     0.029 A 
ENDBRANCH  34  37
ENDBRANCH   2  33
TORSDOF 9
ENDMDL
MODEL 10
REMARK VINA RESULT:      -8.3      2.671      3.785
REMARK  9 active torsions:
REMARK  status: ('A' for Active; 'I' for Inactive)
REMARK    1  A    between atoms: C_2  and  O_3 
REMARK    2  A    between atoms: O_3  and  C_4 
REMARK    3  A    between atoms: C_5  and  C_6 
REMARK    4  A    between atoms: C_7  and  C_8 
REMARK       I    between atoms: C_8  and  N_9 
REMARK    5  A    between atoms: N_9  and  C_10 
REMARK    6  A    between atoms: C_20  and  S_21 
REMARK    7  A    between atoms: S_21  and  C_22 
REMARK    8  A    between atoms: C_22  and  C_23 
REMARK       I    between atoms: C_23  and  N_24 
REMARK    9  A    between atoms: N_24  and  C_25 
ROOT
HETATM    1  C   UNL     1      40.708 -12.467   2.136  1.00  0.00     0.107 A 
HETATM    2  C   UNL     1      42.155 -12.582   2.614  1.00  0.00     0.046 A 
HETATM    3  C   UNL     1      42.754 -11.557   3.264  1.00  0.00     0.019 A 
HETATM    4  C   UNL     1      44.106 -11.615   3.931  1.00  0.00     0.069 C 
HETATM    5  N   UNL     1      42.091 -10.351   3.401  1.00  0.00    -0.353 N 
HETATM    6  C   UNL     1      40.810 -10.076   2.951  1.00  0.00     0.087 A 
HETATM    7  C   UNL     1      40.095 -11.086   2.385  1.00  0.00     0.055 A 
HETATM    8  C   UNL     1      38.633 -10.899   2.009  1.00  0.00     0.019 C 
HETATM    9  N   UNL     1      37.421 -10.744   1.698  1.00  0.00    -0.096 N 
HETATM   10  H   UNL     1      42.677  -9.562   3.666  1.00  0.00     0.166 HD
ENDROOT
BRANCH   1  11
HETATM   11  C   UNL     1      40.523 -12.945   0.687  1.00  0.00    -0.011 A 
HETATM   12  C   UNL     1      40.943 -12.201  -0.432  1.00  0.00     0.076 A 
HETATM   13  C   UNL     1      40.763 -12.722  -1.720  1.00  0.00     0.037 A 
HETATM   14  C   UNL     1      40.156 -13.965  -1.906  1.00  0.00     0.003 A 
HETATM   15  C   UNL     1      39.733 -14.704  -0.812  1.00  0.00     0.001 A 
HETATM   16  C   UNL     1      39.916 -14.201   0.474  1.00  0.00     0.011 A 
BRANCH  12  17
HETATM   17  O   UNL     1      41.548 -11.002  -0.174  1.00  0.00    -0.351 OA
BRANCH  17  18
HETATM   18  C   UNL     1      41.100  -9.848  -0.884  1.00  0.00     0.171 C 
HETATM   19  C   UNL     1      42.263  -8.988  -1.349  1.00  0.00     0.034 C 
ENDBRANCH  17  18
ENDBRANCH  12  17
ENDBRANCH   1  11
BRANCH   6  20
HETATM   20  S   UNL     1      40.057  -8.483   3.105  1.00  0.00    -0.102 SA
BRANCH  20  21
HETATM   21  C   UNL     1      39.709  -8.279   4.867  1.00  0.00     0.184 C 
BRANCH  21  22
HETATM   22  C   UNL     1      40.981  -8.116   5.680  1.00  0.00     0.231 C 
HETATM   23  N   UNL     1      41.221  -9.161   6.553  1.00  0.00    -0.327 N 
HETATM   24  H   UNL     1      40.525  -9.899   6.574  1.00  0.00     0.169 HD
HETATM   25  O   UNL     1      41.666  -7.104   5.527  1.00  0.00    -0.272 OA
BRANCH  23  26
HETATM   26  C   UNL     1      42.236  -9.247   7.530  1.00  0.00     0.034 A 
HETATM   27  C   UNL     1      42.163  -8.643   8.786  1.00  0.00     0.030 A 
HETATM   28  C   UNL     1      43.164  -8.866   9.741  1.00  0.00     0.009 A 
HETATM   29  C   UNL     1      44.257  -9.687   9.452  1.00  0.00    -0.062 A 
HETATM   30  C   UNL     1      45.313  -9.962  10.481  1.00  0.00     0.048 C 
HETATM   31  C   UNL     1      44.350 -10.259   8.179  1.00  0.00     0.009 A 
HETATM   32  C   UNL     1      43.350 -10.038   7.227  1.00  0.00     0.030 A 
ENDBRANCH  23  26
ENDBRANCH  21  22
ENDBRANCH  20  21
ENDBRANCH   6  20
BRANCH   2  33
HETATM   33  C   UNL     1      42.804 -13.904   2.367  1.00  0.00     0.255 C 
HETATM   34  N   UNL     1      42.297 -14.917   3.155  1.00  0.00    -0.323 N 
HETATM   35  H   UNL     1      41.473 -14.711   3.706  1.00  0.00     0.169 HD
HETATM   36  O   UNL     1      43.706 -13.992   1.545  1.00  0.00    -0.268 OA
BRANCH  34  37
HETATM   37  C   UNL     1      42.778 -16.236   3.245  1.00  0.00     0.035 A 
HETATM   38  C   UNL     1      42.516 -17.208   2.279  1.00  0.00     0.029 A 
HETATM   39  C   UNL     1      43.070 -18.485   2.400  1.00  0.00     0.002 A 
HETATM   40  C   UNL     1      43.863 -18.806   3.502  1.00  0.00     0.000 A 
HETATM   41  C   UNL     1      44.116 -17.843   4.476  1.00  0.00     0.002 A 
HETATM   42  C   UNL     1      43.592 -16.557   4.338  1.00  0.00     0.029 A 
ENDBRANCH  34  37
ENDBRANCH   2  33
TORSDOF 9
ENDMDL
