MODEL 1
REMARK VINA RESULT:      -8.9      0.000      0.000
REMARK  5 active torsions:
REMARK  status: ('A' for Active; 'I' for Inactive)
REMARK    1  A    between atoms: C_3  and  N_4 
REMARK       I    between atoms: N_4  and  C_5 
REMARK       I    between atoms: C_5  and  N_6 
REMARK    2  A    between atoms: N_6  and  C_7 
REMARK    3  A    between atoms: C_7  and  C_8 
REMARK    4  A    between atoms: C_10  and  N_11 
REMARK       I    between atoms: N_11  and  C_12 
REMARK    5  A    between atoms: C_12  and  C_13 
ROOT
HETATM    1  C   UNL     1      42.252 -13.718   5.137  1.00  0.00    -0.038 A 
HETATM    2  C   UNL     1      42.141 -13.708   3.735  1.00  0.00     0.038 A 
HETATM    3  C   UNL     1      40.941 -13.362   3.109  1.00  0.00     0.035 A 
HETATM    4  C   UNL     1      39.836 -13.033   3.902  1.00  0.00     0.029 A 
HETATM    5  C   UNL     1      39.928 -13.050   5.295  1.00  0.00     0.003 A 
HETATM    6  C   UNL     1      41.129 -13.395   5.910  1.00  0.00     0.009 A 
ENDROOT
BRANCH   1   7
HETATM    7  C   UNL     1      43.552 -14.112   5.791  1.00  0.00     0.163 C 
BRANCH   7   8
HETATM    8  N   UNL     1      43.407 -15.329   6.566  1.00  0.00    -0.339 N 
HETATM    9  C   UNL     1      43.398 -16.635   6.185  1.00  0.00     0.321 C 
HETATM   10  N   UNL     1      43.802 -16.895   4.907  1.00  0.00    -0.307 N 
HETATM   11  O   UNL     1      43.029 -17.465   7.009  1.00  0.00    -0.247 OA
HETATM   12  H   UNL     1      44.296 -16.153   4.444  1.00  0.00     0.170 HD
HETATM   13  H   UNL     1      43.088 -15.214   7.520  1.00  0.00     0.164 HD
BRANCH  10  14
HETATM   14  C   UNL     1      43.774 -18.140   4.235  1.00  0.00     0.059 A 
HETATM   15  C   UNL     1      43.389 -18.182   2.881  1.00  0.00    -0.032 A 
HETATM   16  C   UNL     1      43.007 -16.949   2.108  1.00  0.00     0.050 C 
HETATM   17  C   UNL     1      43.364 -19.419   2.222  1.00  0.00     0.028 A 
HETATM   18  C   UNL     1      43.706 -20.564   2.921  1.00  0.00     0.117 A 
HETATM   19  N   UNL     1      44.066 -20.562   4.218  1.00  0.00    -0.271 NA
HETATM   20  C   UNL     1      44.093 -19.356   4.842  1.00  0.00     0.146 A 
ENDBRANCH  10  14
ENDBRANCH   7   8
ENDBRANCH   1   7
BRANCH   3  21
HETATM   21  N   UNL     1      40.761 -13.334   1.709  1.00  0.00    -0.323 N 
HETATM   22  C   UNL     1      40.201 -14.318   0.915  1.00  0.00     0.256 C 
HETATM   23  O   UNL     1      39.817 -15.425   1.276  1.00  0.00    -0.267 OA
HETATM   24  H   UNL     1      41.144 -12.523   1.242  1.00  0.00     0.169 HD
BRANCH  22  25
HETATM   25  C   UNL     1      40.095 -13.983  -0.532  1.00  0.00     0.035 A 
HETATM   26  C   UNL     1      40.680 -12.836  -1.071  1.00  0.00     0.036 A 
HETATM   27  C   UNL     1      40.516 -12.604  -2.425  1.00  0.00     0.117 A 
HETATM   28  N   UNL     1      39.824 -13.420  -3.248  1.00  0.00    -0.273 NA
HETATM   29  C   UNL     1      39.250 -14.510  -2.695  1.00  0.00     0.117 A 
HETATM   30  C   UNL     1      39.352 -14.830  -1.354  1.00  0.00     0.036 A 
ENDBRANCH  22  25
ENDBRANCH   3  21
TORSDOF 5
ENDMDL
MODEL 2
REMARK VINA RESULT:      -8.7      5.215      8.909
REMARK  5 active torsions:
REMARK  status: ('A' for Active; 'I' for Inactive)
REMARK    1  A    between atoms: C_3  and  N_4 
REMARK       I    between atoms: N_4  and  C_5 
REMARK       I    between atoms: C_5  and  N_6 
REMARK    2  A    between atoms: N_6  and  C_7 
REMARK    3  A    between atoms: C_7  and  C_8 
REMARK    4  A    between atoms: C_10  and  N_11 
REMARK       I    between atoms: N_11  and  C_12 
REMARK    5  A    between atoms: C_12  and  C_13 
ROOT
HETATM    1  C   UNL     1      44.094 -11.722   6.532  1.00  0.00    -0.038 A 
HETATM    2  C   UNL     1      43.476 -11.172   7.671  1.00  0.00     0.038 A 
HETATM    3  C   UNL     1      44.212 -10.449   8.612  1.00  0.00     0.035 A 
HETATM    4  C   UNL     1      45.587 -10.283   8.413  1.00  0.00     0.029 A 
HETATM    5  C   UNL     1      46.216 -10.833   7.294  1.00  0.00     0.003 A 
HETATM    6  C   UNL     1      45.474 -11.553   6.360  1.00  0.00     0.009 A 
ENDROOT
BRANCH   1   7
HETATM    7  C   UNL     1      43.283 -12.514   5.539  1.00  0.00     0.163 C 
BRANCH   7   8
HETATM    8  N   UNL     1      42.604 -13.624   6.178  1.00  0.00    -0.339 N 
HETATM    9  C   UNL     1      42.593 -14.953   5.885  1.00  0.00     0.321 C 
HETATM   10  N   UNL     1      43.526 -15.381   4.986  1.00  0.00    -0.307 N 
HETATM   11  O   UNL     1      41.754 -15.652   6.444  1.00  0.00    -0.247 OA
HETATM   12  H   UNL     1      44.284 -14.748   4.806  1.00  0.00     0.170 HD
HETATM   13  H   UNL     1      41.880 -13.381   6.844  1.00  0.00     0.164 HD
BRANCH  10  14
HETATM   14  C   UNL     1      43.651 -16.677   4.429  1.00  0.00     0.059 A 
HETATM   15  C   UNL     1      43.218 -16.901   3.107  1.00  0.00    -0.032 A 
HETATM   16  C   UNL     1      42.631 -15.813   2.251  1.00  0.00     0.050 C 
HETATM   17  C   UNL     1      43.345 -18.187   2.562  1.00  0.00     0.028 A 
HETATM   18  C   UNL     1      43.878 -19.200   3.341  1.00  0.00     0.117 A 
HETATM   19  N   UNL     1      44.287 -19.024   4.610  1.00  0.00    -0.271 NA
HETATM   20  C   UNL     1      44.167 -17.772   5.122  1.00  0.00     0.146 A 
ENDBRANCH  10  14
ENDBRANCH   7   8
ENDBRANCH   1   7
BRANCH   3  21
HETATM   21  N   UNL     1      43.655  -9.874   9.775  1.00  0.00    -0.323 N 
HETATM   22  C   UNL     1      43.624 -10.416  11.048  1.00  0.00     0.256 C 
HETATM   23  O   UNL     1      44.019 -11.527  11.383  1.00  0.00    -0.267 OA
HETATM   24  H   UNL     1      43.176  -8.994   9.634  1.00  0.00     0.169 HD
BRANCH  22  25
HETATM   25  C   UNL     1      43.014  -9.549  12.093  1.00  0.00     0.035 A 
HETATM   26  C   UNL     1      43.527  -8.288  12.401  1.00  0.00     0.036 A 
HETATM   27  C   UNL     1      42.897  -7.562  13.397  1.00  0.00     0.117 A 
HETATM   28  N   UNL     1      41.822  -8.005  14.083  1.00  0.00    -0.273 NA
HETATM   29  C   UNL     1      41.362  -9.238  13.779  1.00  0.00     0.117 A 
HETATM   30  C   UNL     1      41.920 -10.043  12.804  1.00  0.00     0.036 A 
ENDBRANCH  22  25
ENDBRANCH   3  21
TORSDOF 5
ENDMDL
MODEL 3
REMARK VINA RESULT:      -8.5      5.668      9.671
REMARK  5 active torsions:
REMARK  status: ('A' for Active; 'I' for Inactive)
REMARK    1  A    between atoms: C_3  and  N_4 
REMARK       I    between atoms: N_4  and  C_5 
REMARK       I    between atoms: C_5  and  N_6 
REMARK    2  A    between atoms: N_6  and  C_7 
REMARK    3  A    between atoms: C_7  and  C_8 
REMARK    4  A    between atoms: C_10  and  N_11 
REMARK       I    between atoms: N_11  and  C_12 
REMARK    5  A    between atoms: C_12  and  C_13 
ROOT
HETATM    1  C   UNL     1      44.860 -11.373   7.318  1.00  0.00    -0.038 A 
HETATM    2  C   UNL     1      44.056 -10.999   8.410  1.00  0.00     0.038 A 
HETATM    3  C   UNL     1      44.432  -9.954   9.257  1.00  0.00     0.035 A 
HETATM    4  C   UNL     1      45.635  -9.283   9.011  1.00  0.00     0.029 A 
HETATM    5  C   UNL     1      46.448  -9.651   7.938  1.00  0.00     0.003 A 
HETATM    6  C   UNL     1      46.066 -10.694   7.098  1.00  0.00     0.009 A 
ENDROOT
BRANCH   1   7
HETATM    7  C   UNL     1      44.443 -12.516   6.427  1.00  0.00     0.163 C 
BRANCH   7   8
HETATM    8  N   UNL     1      43.138 -13.026   6.799  1.00  0.00    -0.339 N 
HETATM    9  C   UNL     1      42.179 -13.648   6.062  1.00  0.00     0.321 C 
HETATM   10  N   UNL     1      42.552 -14.071   4.819  1.00  0.00    -0.307 N 
HETATM   11  O   UNL     1      41.068 -13.775   6.565  1.00  0.00    -0.247 OA
HETATM   12  H   UNL     1      43.540 -14.112   4.648  1.00  0.00     0.170 HD
HETATM   13  H   UNL     1      42.786 -12.734   7.703  1.00  0.00     0.164 HD
BRANCH  10  14
HETATM   14  C   UNL     1      41.723 -14.634   3.819  1.00  0.00     0.059 A 
HETATM   15  C   UNL     1      42.006 -15.928   3.340  1.00  0.00    -0.032 A 
HETATM   16  C   UNL     1      43.158 -16.749   3.853  1.00  0.00     0.050 C 
HETATM   17  C   UNL     1      41.181 -16.479   2.349  1.00  0.00     0.028 A 
HETATM   18  C   UNL     1      40.121 -15.734   1.863  1.00  0.00     0.117 A 
HETATM   19  N   UNL     1      39.830 -14.491   2.287  1.00  0.00    -0.271 NA
HETATM   20  C   UNL     1      40.633 -13.972   3.252  1.00  0.00     0.146 A 
ENDBRANCH  10  14
ENDBRANCH   7   8
ENDBRANCH   1   7
BRANCH   3  21
HETATM   21  N   UNL     1      43.673  -9.530  10.370  1.00  0.00    -0.323 N 
HETATM   22  C   UNL     1      43.496 -10.198  11.569  1.00  0.00     0.256 C 
HETATM   23  O   UNL     1      43.915 -11.313  11.858  1.00  0.00    -0.267 OA
HETATM   24  H   UNL     1      43.159  -8.669  10.239  1.00  0.00     0.169 HD
BRANCH  22  25
HETATM   25  C   UNL     1      42.681  -9.476  12.584  1.00  0.00     0.035 A 
HETATM   26  C   UNL     1      41.421  -9.929  12.980  1.00  0.00     0.036 A 
HETATM   27  C   UNL     1      40.734  -9.183  13.922  1.00  0.00     0.117 A 
HETATM   28  N   UNL     1      41.211  -8.046  14.472  1.00  0.00    -0.273 NA
HETATM   29  C   UNL     1      42.422  -7.619  14.052  1.00  0.00     0.117 A 
HETATM   30  C   UNL     1      43.187  -8.290  13.117  1.00  0.00     0.036 A 
ENDBRANCH  22  25
ENDBRANCH   3  21
TORSDOF 5
ENDMDL
MODEL 4
REMARK VINA RESULT:      -8.5      1.750      6.961
REMARK  5 active torsions:
REMARK  status: ('A' for Active; 'I' for Inactive)
REMARK    1  A    between atoms: C_3  and  N_4 
REMARK       I    between atoms: N_4  and  C_5 
REMARK       I    between atoms: C_5  and  N_6 
REMARK    2  A    between atoms: N_6  and  C_7 
REMARK    3  A    between atoms: C_7  and  C_8 
REMARK    4  A    between atoms: C_10  and  N_11 
REMARK       I    between atoms: N_11  and  C_12 
REMARK    5  A    between atoms: C_12  and  C_13 
ROOT
HETATM    1  C   UNL     1      41.885 -13.029   5.255  1.00  0.00    -0.038 A 
HETATM    2  C   UNL     1      42.003 -14.346   4.773  1.00  0.00     0.038 A 
HETATM    3  C   UNL     1      42.972 -15.215   5.280  1.00  0.00     0.035 A 
HETATM    4  C   UNL     1      43.840 -14.753   6.276  1.00  0.00     0.029 A 
HETATM    5  C   UNL     1      43.741 -13.446   6.755  1.00  0.00     0.003 A 
HETATM    6  C   UNL     1      42.772 -12.586   6.245  1.00  0.00     0.009 A 
ENDROOT
BRANCH   1   7
HETATM    7  C   UNL     1      40.843 -12.104   4.681  1.00  0.00     0.163 C 
BRANCH   7   8
HETATM    8  N   UNL     1      41.338 -11.416   3.505  1.00  0.00    -0.339 N 
HETATM    9  C   UNL     1      41.086 -11.611   2.183  1.00  0.00     0.321 C 
HETATM   10  N   UNL     1      40.041 -12.436   1.883  1.00  0.00    -0.307 N 
HETATM   11  O   UNL     1      41.811 -11.040   1.374  1.00  0.00    -0.247 OA
HETATM   12  H   UNL     1      39.404 -12.629   2.635  1.00  0.00     0.170 HD
HETATM   13  H   UNL     1      42.131 -10.801   3.649  1.00  0.00     0.164 HD
BRANCH  10  14
HETATM   14  C   UNL     1      39.647 -12.892   0.601  1.00  0.00     0.059 A 
HETATM   15  C   UNL     1      39.920 -14.223   0.231  1.00  0.00    -0.032 A 
HETATM   16  C   UNL     1      40.612 -15.194   1.148  1.00  0.00     0.050 C 
HETATM   17  C   UNL     1      39.527 -14.667  -1.040  1.00  0.00     0.028 A 
HETATM   18  C   UNL     1      38.895 -13.783  -1.897  1.00  0.00     0.117 A 
HETATM   19  N   UNL     1      38.631 -12.502  -1.582  1.00  0.00    -0.271 NA
HETATM   20  C   UNL     1      39.010 -12.088  -0.345  1.00  0.00     0.146 A 
ENDBRANCH  10  14
ENDBRANCH   7   8
ENDBRANCH   1   7
BRANCH   3  21
HETATM   21  N   UNL     1      43.146 -16.545   4.839  1.00  0.00    -0.323 N 
HETATM   22  C   UNL     1      43.408 -16.975   3.551  1.00  0.00     0.256 C 
HETATM   23  O   UNL     1      43.472 -16.281   2.543  1.00  0.00    -0.267 OA
HETATM   24  H   UNL     1      43.000 -17.255   5.544  1.00  0.00     0.169 HD
BRANCH  22  25
HETATM   25  C   UNL     1      43.595 -18.444   3.397  1.00  0.00     0.035 A 
HETATM   26  C   UNL     1      43.325 -19.103   2.196  1.00  0.00     0.036 A 
HETATM   27  C   UNL     1      43.518 -20.473   2.155  1.00  0.00     0.117 A 
HETATM   28  N   UNL     1      43.949 -21.202   3.207  1.00  0.00    -0.273 NA
HETATM   29  C   UNL     1      44.180 -20.541   4.361  1.00  0.00     0.117 A 
HETATM   30  C   UNL     1      44.017 -19.177   4.507  1.00  0.00     0.036 A 
ENDBRANCH  22  25
ENDBRANCH   3  21
TORSDOF 5
ENDMDL
MODEL 5
REMARK VINA RESULT:      -8.3      4.070      8.182
REMARK  5 active torsions:
REMARK  status: ('A' for Active; 'I' for Inactive)
REMARK    1  A    between atoms: C_3  and  N_4 
REMARK       I    between atoms: N_4  and  C_5 
REMARK       I    between atoms: C_5  and  N_6 
REMARK    2  A    between atoms: N_6  and  C_7 
REMARK    3  A    between atoms: C_7  and  C_8 
REMARK    4  A    between atoms: C_10  and  N_11 
REMARK       I    between atoms: N_11  and  C_12 
REMARK    5  A    between atoms: C_12  and  C_13 
ROOT
HETATM    1  C   UNL     1      42.463 -12.868   5.246  1.00  0.00    -0.038 A 
HETATM    2  C   UNL     1      42.902 -14.107   4.746  1.00  0.00     0.038 A 
HETATM    3  C   UNL     1      42.109 -15.252   4.860  1.00  0.00     0.035 A 
HETATM    4  C   UNL     1      40.865 -15.152   5.493  1.00  0.00     0.029 A 
HETATM    5  C   UNL     1      40.422 -13.931   6.004  1.00  0.00     0.003 A 
HETATM    6  C   UNL     1      41.219 -12.795   5.885  1.00  0.00     0.009 A 
ENDROOT
BRANCH   1   7
HETATM    7  C   UNL     1      43.344 -11.650   5.127  1.00  0.00     0.163 C 
BRANCH   7   8
HETATM    8  N   UNL     1      44.459 -11.712   6.052  1.00  0.00    -0.339 N 
HETATM    9  C   UNL     1      44.621 -11.179   7.293  1.00  0.00     0.321 C 
HETATM   10  N   UNL     1      43.499 -10.680   7.887  1.00  0.00    -0.307 N 
HETATM   11  O   UNL     1      45.750 -11.188   7.772  1.00  0.00    -0.247 OA
HETATM   12  H   UNL     1      42.625 -10.961   7.481  1.00  0.00     0.170 HD
HETATM   13  H   UNL     1      45.334 -12.054   5.672  1.00  0.00     0.164 HD
BRANCH  10  14
HETATM   14  C   UNL     1      43.417  -9.975   9.113  1.00  0.00     0.059 A 
HETATM   15  C   UNL     1      43.047  -8.616   9.100  1.00  0.00    -0.032 A 
HETATM   16  C   UNL     1      42.724  -7.875   7.831  1.00  0.00     0.050 C 
HETATM   17  C   UNL     1      42.969  -7.924  10.317  1.00  0.00     0.028 A 
HETATM   18  C   UNL     1      43.269  -8.591  11.493  1.00  0.00     0.117 A 
HETATM   19  N   UNL     1      43.639  -9.884  11.540  1.00  0.00    -0.271 NA
HETATM   20  C   UNL     1      43.703 -10.544  10.354  1.00  0.00     0.146 A 
ENDBRANCH  10  14
ENDBRANCH   7   8
ENDBRANCH   1   7
BRANCH   3  21
HETATM   21  N   UNL     1      42.490 -16.525   4.383  1.00  0.00    -0.323 N 
HETATM   22  C   UNL     1      43.632 -17.236   4.705  1.00  0.00     0.256 C 
HETATM   23  O   UNL     1      44.556 -16.858   5.417  1.00  0.00    -0.267 OA
HETATM   24  H   UNL     1      41.879 -16.923   3.682  1.00  0.00     0.169 HD
BRANCH  22  25
HETATM   25  C   UNL     1      43.738 -18.584   4.084  1.00  0.00     0.035 A 
HETATM   26  C   UNL     1      43.575 -18.781   2.711  1.00  0.00     0.036 A 
HETATM   27  C   UNL     1      43.680 -20.074   2.229  1.00  0.00     0.117 A 
HETATM   28  N   UNL     1      43.927 -21.148   3.008  1.00  0.00    -0.273 NA
HETATM   29  C   UNL     1      44.058 -20.930   4.334  1.00  0.00     0.117 A 
HETATM   30  C   UNL     1      43.969 -19.680   4.916  1.00  0.00     0.036 A 
ENDBRANCH  22  25
ENDBRANCH   3  21
TORSDOF 5
ENDMDL
MODEL 6
REMARK VINA RESULT:      -8.1      1.959      2.321
REMARK  5 active torsions:
REMARK  status: ('A' for Active; 'I' for Inactive)
REMARK    1  A    between atoms: C_3  and  N_4 
REMARK       I    between atoms: N_4  and  C_5 
REMARK       I    between atoms: C_5  and  N_6 
REMARK    2  A    between atoms: N_6  and  C_7 
REMARK    3  A    between atoms: C_7  and  C_8 
REMARK    4  A    between atoms: C_10  and  N_11 
REMARK       I    between atoms: N_11  and  C_12 
REMARK    5  A    between atoms: C_12  and  C_13 
ROOT
HETATM    1  C   UNL     1      40.429 -12.170   4.621  1.00  0.00    -0.038 A 
HETATM    2  C   UNL     1      40.127 -12.726   3.364  1.00  0.00     0.038 A 
HETATM    3  C   UNL     1      39.190 -12.129   2.518  1.00  0.00     0.035 A 
HETATM    4  C   UNL     1      38.540 -10.965   2.943  1.00  0.00     0.029 A 
HETATM    5  C   UNL     1      38.821 -10.409   4.192  1.00  0.00     0.003 A 
HETATM    6  C   UNL     1      39.758 -11.010   5.029  1.00  0.00     0.009 A 
ENDROOT
BRANCH   1   7
HETATM    7  C   UNL     1      41.431 -12.842   5.524  1.00  0.00     0.163 C 
BRANCH   7   8
HETATM    8  N   UNL     1      40.957 -14.139   5.966  1.00  0.00    -0.339 N 
HETATM    9  C   UNL     1      41.321 -15.397   5.596  1.00  0.00     0.321 C 
HETATM   10  N   UNL     1      42.459 -15.502   4.851  1.00  0.00    -0.307 N 
HETATM   11  O   UNL     1      40.605 -16.325   5.956  1.00  0.00    -0.247 OA
HETATM   12  H   UNL     1      43.056 -14.694   4.844  1.00  0.00     0.170 HD
HETATM   13  H   UNL     1      40.101 -14.140   6.508  1.00  0.00     0.164 HD
BRANCH  10  14
HETATM   14  C   UNL     1      42.985 -16.669   4.247  1.00  0.00     0.059 A 
HETATM   15  C   UNL     1      42.548 -17.034   2.958  1.00  0.00    -0.032 A 
HETATM   16  C   UNL     1      41.541 -16.226   2.185  1.00  0.00     0.050 C 
HETATM   17  C   UNL     1      43.073 -18.192   2.367  1.00  0.00     0.028 A 
HETATM   18  C   UNL     1      43.996 -18.949   3.069  1.00  0.00     0.117 A 
HETATM   19  N   UNL     1      44.424 -18.638   4.306  1.00  0.00    -0.271 NA
HETATM   20  C   UNL     1      43.913 -17.509   4.864  1.00  0.00     0.146 A 
ENDBRANCH  10  14
ENDBRANCH   7   8
ENDBRANCH   1   7
BRANCH   3  21
HETATM   21  N   UNL     1      38.839 -12.635   1.247  1.00  0.00    -0.323 N 
HETATM   22  C   UNL     1      39.501 -12.430   0.050  1.00  0.00     0.256 C 
HETATM   23  O   UNL     1      40.478 -11.713  -0.136  1.00  0.00    -0.267 OA
HETATM   24  H   UNL     1      37.973 -13.156   1.214  1.00  0.00     0.169 HD
BRANCH  22  25
HETATM   25  C   UNL     1      38.924 -13.139  -1.125  1.00  0.00     0.035 A 
HETATM   26  C   UNL     1      37.791 -12.668  -1.791  1.00  0.00     0.036 A 
HETATM   27  C   UNL     1      37.323 -13.404  -2.865  1.00  0.00     0.117 A 
HETATM   28  N   UNL     1      37.897 -14.546  -3.300  1.00  0.00    -0.273 NA
HETATM   29  C   UNL     1      38.977 -14.990  -2.622  1.00  0.00     0.117 A 
HETATM   30  C   UNL     1      39.522 -14.331  -1.536  1.00  0.00     0.036 A 
ENDBRANCH  22  25
ENDBRANCH   3  21
TORSDOF 5
ENDMDL
MODEL 7
REMARK VINA RESULT:      -8.1      4.753      8.462
REMARK  5 active torsions:
REMARK  status: ('A' for Active; 'I' for Inactive)
REMARK    1  A    between atoms: C_3  and  N_4 
REMARK       I    between atoms: N_4  and  C_5 
REMARK       I    between atoms: C_5  and  N_6 
REMARK    2  A    between atoms: N_6  and  C_7 
REMARK    3  A    between atoms: C_7  and  C_8 
REMARK    4  A    between atoms: C_10  and  N_11 
REMARK       I    between atoms: N_11  and  C_12 
REMARK    5  A    between atoms: C_12  and  C_13 
ROOT
HETATM    1  C   UNL     1      42.114 -11.648   6.096  1.00  0.00    -0.038 A 
HETATM    2  C   UNL     1      42.633 -12.900   5.720  1.00  0.00     0.038 A 
HETATM    3  C   UNL     1      41.786 -13.956   5.374  1.00  0.00     0.035 A 
HETATM    4  C   UNL     1      40.402 -13.756   5.416  1.00  0.00     0.029 A 
HETATM    5  C   UNL     1      39.873 -12.522   5.799  1.00  0.00     0.003 A 
HETATM    6  C   UNL     1      40.725 -11.473   6.141  1.00  0.00     0.009 A 
ENDROOT
BRANCH   1   7
HETATM    7  C   UNL     1      43.046 -10.528   6.482  1.00  0.00     0.163 C 
BRANCH   7   8
HETATM    8  N   UNL     1      43.986 -10.951   7.501  1.00  0.00    -0.339 N 
HETATM    9  C   UNL     1      44.069 -10.643   8.823  1.00  0.00     0.321 C 
HETATM   10  N   UNL     1      42.990 -10.008   9.365  1.00  0.00    -0.307 N 
HETATM   11  O   UNL     1      45.097 -10.955   9.417  1.00  0.00    -0.247 OA
HETATM   12  H   UNL     1      42.145 -10.040   8.823  1.00  0.00     0.170 HD
HETATM   13  H   UNL     1      44.825 -11.412   7.169  1.00  0.00     0.164 HD
BRANCH  10  14
HETATM   14  C   UNL     1      42.871  -9.480  10.673  1.00  0.00     0.059 A 
HETATM   15  C   UNL     1      42.967  -8.087  10.864  1.00  0.00    -0.032 A 
HETATM   16  C   UNL     1      43.186  -7.127   9.727  1.00  0.00     0.050 C 
HETATM   17  C   UNL     1      42.849  -7.572  12.163  1.00  0.00     0.028 A 
HETATM   18  C   UNL     1      42.653  -8.445  13.220  1.00  0.00     0.117 A 
HETATM   19  N   UNL     1      42.571  -9.780  13.075  1.00  0.00    -0.271 NA
HETATM   20  C   UNL     1      42.680 -10.265  11.811  1.00  0.00     0.146 A 
ENDBRANCH  10  14
ENDBRANCH   7   8
ENDBRANCH   1   7
BRANCH   3  21
HETATM   21  N   UNL     1      42.241 -15.237   4.990  1.00  0.00    -0.323 N 
HETATM   22  C   UNL     1      42.733 -15.618   3.755  1.00  0.00     0.256 C 
HETATM   23  O   UNL     1      42.803 -14.924   2.746  1.00  0.00    -0.267 OA
HETATM   24  H   UNL     1      42.132 -15.960   5.689  1.00  0.00     0.169 HD
BRANCH  22  25
HETATM   25  C   UNL     1      43.189 -17.032   3.661  1.00  0.00     0.035 A 
HETATM   26  C   UNL     1      43.874 -17.660   4.703  1.00  0.00     0.036 A 
HETATM   27  C   UNL     1      44.267 -18.973   4.516  1.00  0.00     0.117 A 
HETATM   28  N   UNL     1      44.028 -19.675   3.388  1.00  0.00    -0.273 NA
HETATM   29  C   UNL     1      43.384 -19.035   2.388  1.00  0.00     0.117 A 
HETATM   30  C   UNL     1      42.951 -17.725   2.474  1.00  0.00     0.036 A 
ENDBRANCH  22  25
ENDBRANCH   3  21
TORSDOF 5
ENDMDL
MODEL 8
REMARK VINA RESULT:      -7.9      3.490      6.068
REMARK  5 active torsions:
REMARK  status: ('A' for Active; 'I' for Inactive)
REMARK    1  A    between atoms: C_3  and  N_4 
REMARK       I    between atoms: N_4  and  C_5 
REMARK       I    between atoms: C_5  and  N_6 
REMARK    2  A    between atoms: N_6  and  C_7 
REMARK    3  A    between atoms: C_7  and  C_8 
REMARK    4  A    between atoms: C_10  and  N_11 
REMARK       I    between atoms: N_11  and  C_12 
REMARK    5  A    between atoms: C_12  and  C_13 
ROOT
HETATM    1  C   UNL     1      40.809 -14.264   4.889  1.00  0.00    -0.038 A 
HETATM    2  C   UNL     1      40.182 -13.954   3.668  1.00  0.00     0.038 A 
HETATM    3  C   UNL     1      40.216 -14.847   2.594  1.00  0.00     0.035 A 
HETATM    4  C   UNL     1      40.897 -16.060   2.744  1.00  0.00     0.029 A 
HETATM    5  C   UNL     1      41.534 -16.375   3.946  1.00  0.00     0.003 A 
HETATM    6  C   UNL     1      41.494 -15.479   5.012  1.00  0.00     0.009 A 
ENDROOT
BRANCH   1   7
HETATM    7  C   UNL     1      40.775 -13.277   6.028  1.00  0.00     0.163 C 
BRANCH   7   8
HETATM    8  N   UNL     1      41.117 -11.941   5.581  1.00  0.00    -0.339 N 
HETATM    9  C   UNL     1      41.995 -11.029   6.080  1.00  0.00     0.321 C 
HETATM   10  N   UNL     1      42.867 -11.485   7.025  1.00  0.00    -0.307 N 
HETATM   11  O   UNL     1      41.931  -9.883   5.648  1.00  0.00    -0.247 OA
HETATM   12  H   UNL     1      42.957 -12.483   7.095  1.00  0.00     0.170 HD
HETATM   13  H   UNL     1      40.499 -11.529   4.892  1.00  0.00     0.164 HD
BRANCH  10  14
HETATM   14  C   UNL     1      43.792 -10.723   7.779  1.00  0.00     0.059 A 
HETATM   15  C   UNL     1      45.139 -10.675   7.369  1.00  0.00    -0.032 A 
HETATM   16  C   UNL     1      45.642 -11.400   6.151  1.00  0.00     0.050 C 
HETATM   17  C   UNL     1      46.049  -9.918   8.122  1.00  0.00     0.028 A 
HETATM   18  C   UNL     1      45.602  -9.251   9.249  1.00  0.00     0.117 A 
HETATM   19  N   UNL     1      44.326  -9.286   9.676  1.00  0.00    -0.271 NA
HETATM   20  C   UNL     1      43.454 -10.016   8.934  1.00  0.00     0.146 A 
ENDBRANCH  10  14
ENDBRANCH   7   8
ENDBRANCH   1   7
BRANCH   3  21
HETATM   21  N   UNL     1      39.611 -14.599   1.343  1.00  0.00    -0.323 N 
HETATM   22  C   UNL     1      40.107 -13.826   0.308  1.00  0.00     0.256 C 
HETATM   23  O   UNL     1      41.138 -13.162   0.316  1.00  0.00    -0.267 OA
HETATM   24  H   UNL     1      38.683 -14.986   1.228  1.00  0.00     0.169 HD
BRANCH  22  25
HETATM   25  C   UNL     1      39.266 -13.791  -0.919  1.00  0.00     0.035 A 
HETATM   26  C   UNL     1      38.427 -12.713  -1.211  1.00  0.00     0.036 A 
HETATM   27  C   UNL     1      37.674 -12.778  -2.370  1.00  0.00     0.117 A 
HETATM   28  N   UNL     1      37.703 -13.821  -3.227  1.00  0.00    -0.273 NA
HETATM   29  C   UNL     1      38.506 -14.859  -2.907  1.00  0.00     0.117 A 
HETATM   30  C   UNL     1      39.296 -14.893  -1.774  1.00  0.00     0.036 A 
ENDBRANCH  22  25
ENDBRANCH   3  21
TORSDOF 5
ENDMDL
MODEL 9
REMARK VINA RESULT:      -7.7      4.941      8.707
REMARK  5 active torsions:
REMARK  status: ('A' for Active; 'I' for Inactive)
REMARK    1  A    between atoms: C_3  and  N_4 
REMARK       I    between atoms: N_4  and  C_5 
REMARK       I    between atoms: C_5  and  N_6 
REMARK    2  A    between atoms: N_6  and  C_7 
REMARK    3  A    between atoms: C_7  and  C_8 
REMARK    4  A    between atoms: C_10  and  N_11 
REMARK       I    between atoms: N_11  and  C_12 
REMARK    5  A    between atoms: C_12  and  C_13 
ROOT
HETATM    1  C   UNL     1      42.247 -11.693   5.236  1.00  0.00    -0.038 A 
HETATM    2  C   UNL     1      42.483 -13.079   5.167  1.00  0.00     0.038 A 
HETATM    3  C   UNL     1      42.975 -13.669   4.001  1.00  0.00     0.035 A 
HETATM    4  C   UNL     1      43.224 -12.861   2.887  1.00  0.00     0.029 A 
HETATM    5  C   UNL     1      42.984 -11.486   2.937  1.00  0.00     0.003 A 
HETATM    6  C   UNL     1      42.494 -10.905   4.104  1.00  0.00     0.009 A 
ENDROOT
BRANCH   1   7
HETATM    7  C   UNL     1      41.699 -11.081   6.499  1.00  0.00     0.163 C 
BRANCH   7   8
HETATM    8  N   UNL     1      42.159  -9.716   6.667  1.00  0.00    -0.339 N 
HETATM    9  C   UNL     1      42.321  -8.960   7.786  1.00  0.00     0.321 C 
HETATM   10  N   UNL     1      42.258  -9.623   8.978  1.00  0.00    -0.307 N 
HETATM   11  O   UNL     1      42.508  -7.757   7.638  1.00  0.00    -0.247 OA
HETATM   12  H   UNL     1      42.342 -10.622   8.929  1.00  0.00     0.170 HD
HETATM   13  H   UNL     1      42.210  -9.156   5.825  1.00  0.00     0.164 HD
BRANCH  10  14
HETATM   14  C   UNL     1      42.278  -9.058  10.276  1.00  0.00     0.059 A 
HETATM   15  C   UNL     1      43.488  -9.040  10.998  1.00  0.00    -0.032 A 
HETATM   16  C   UNL     1      44.772  -9.592  10.444  1.00  0.00     0.050 C 
HETATM   17  C   UNL     1      43.500  -8.480  12.284  1.00  0.00     0.028 A 
HETATM   18  C   UNL     1      42.324  -7.973  12.811  1.00  0.00     0.117 A 
HETATM   19  N   UNL     1      41.150  -7.987  12.155  1.00  0.00    -0.271 NA
HETATM   20  C   UNL     1      41.154  -8.526  10.908  1.00  0.00     0.146 A 
ENDBRANCH  10  14
ENDBRANCH   7   8
ENDBRANCH   1   7
BRANCH   3  21
HETATM   21  N   UNL     1      43.231 -15.051   3.865  1.00  0.00    -0.323 N 
HETATM   22  C   UNL     1      42.337 -16.038   3.488  1.00  0.00     0.256 C 
HETATM   23  O   UNL     1      41.140 -15.898   3.267  1.00  0.00    -0.267 OA
HETATM   24  H   UNL     1      44.161 -15.346   4.134  1.00  0.00     0.169 HD
BRANCH  22  25
HETATM   25  C   UNL     1      42.911 -17.407   3.380  1.00  0.00     0.035 A 
HETATM   26  C   UNL     1      42.720 -18.202   2.247  1.00  0.00     0.036 A 
HETATM   27  C   UNL     1      43.283 -19.466   2.245  1.00  0.00     0.117 A 
HETATM   28  N   UNL     1      43.999 -19.970   3.272  1.00  0.00    -0.273 NA
HETATM   29  C   UNL     1      44.147 -19.188   4.363  1.00  0.00     0.117 A 
HETATM   30  C   UNL     1      43.625 -17.913   4.466  1.00  0.00     0.036 A 
ENDBRANCH  22  25
ENDBRANCH   3  21
TORSDOF 5
ENDMDL
MODEL 10
REMARK VINA RESULT:      -7.5     10.860     14.389
REMARK  5 active torsions:
REMARK  status: ('A' for Active; 'I' for Inactive)
REMARK    1  A    between atoms: C_3  and  N_4 
REMARK       I    between atoms: N_4  and  C_5 
REMARK       I    between atoms: C_5  and  N_6 
REMARK    2  A    between atoms: N_6  and  C_7 
REMARK    3  A    between atoms: C_7  and  C_8 
REMARK    4  A    between atoms: C_10  and  N_11 
REMARK       I    between atoms: N_11  and  C_12 
REMARK    5  A    between atoms: C_12  and  C_13 
ROOT
HETATM    1  C   UNL     1      42.562  -8.167  13.506  1.00  0.00    -0.038 A 
HETATM    2  C   UNL     1      43.042  -8.439  12.211  1.00  0.00     0.038 A 
HETATM    3  C   UNL     1      42.466  -9.440  11.425  1.00  0.00     0.035 A 
HETATM    4  C   UNL     1      41.402 -10.183  11.949  1.00  0.00     0.029 A 
HETATM    5  C   UNL     1      40.924  -9.932  13.236  1.00  0.00     0.003 A 
HETATM    6  C   UNL     1      41.504  -8.931  14.013  1.00  0.00     0.009 A 
ENDROOT
BRANCH   1   7
HETATM    7  C   UNL     1      43.212  -7.094  14.342  1.00  0.00     0.163 C 
BRANCH   7   8
HETATM    8  N   UNL     1      42.309  -5.982  14.568  1.00  0.00    -0.339 N 
HETATM    9  C   UNL     1      41.742  -5.509  15.710  1.00  0.00     0.321 C 
HETATM   10  N   UNL     1      42.245  -5.998  16.881  1.00  0.00    -0.307 N 
HETATM   11  O   UNL     1      40.833  -4.693  15.599  1.00  0.00    -0.247 OA
HETATM   12  H   UNL     1      43.132  -6.464  16.818  1.00  0.00     0.170 HD
HETATM   13  H   UNL     1      41.880  -5.582  13.742  1.00  0.00     0.164 HD
BRANCH  10  14
HETATM   14  C   UNL     1      41.759  -5.760  18.190  1.00  0.00     0.059 A 
HETATM   15  C   UNL     1      40.868  -6.684  18.771  1.00  0.00    -0.032 A 
HETATM   16  C   UNL     1      40.410  -7.927  18.058  1.00  0.00     0.050 C 
HETATM   17  C   UNL     1      40.391  -6.440  20.067  1.00  0.00     0.028 A 
HETATM   18  C   UNL     1      40.799  -5.298  20.733  1.00  0.00     0.117 A 
HETATM   19  N   UNL     1      41.637  -4.388  20.203  1.00  0.00    -0.271 NA
HETATM   20  C   UNL     1      42.097  -4.640  18.950  1.00  0.00     0.146 A 
ENDBRANCH  10  14
ENDBRANCH   7   8
ENDBRANCH   1   7
BRANCH   3  21
HETATM   21  N   UNL     1      42.899  -9.766  10.121  1.00  0.00    -0.323 N 
HETATM   22  C   UNL     1      44.099 -10.349   9.757  1.00  0.00     0.256 C 
HETATM   23  O   UNL     1      45.035 -10.630  10.497  1.00  0.00    -0.267 OA
HETATM   24  H   UNL     1      42.277  -9.480   9.376  1.00  0.00     0.169 HD
BRANCH  22  25
HETATM   25  C   UNL     1      44.256 -10.624   8.302  1.00  0.00     0.035 A 
HETATM   26  C   UNL     1      43.180 -10.556   7.416  1.00  0.00     0.036 A 
HETATM   27  C   UNL     1      43.423 -10.840   6.083  1.00  0.00     0.117 A 
HETATM   28  N   UNL     1      44.636 -11.180   5.598  1.00  0.00    -0.273 NA
HETATM   29  C   UNL     1      45.653 -11.260   6.482  1.00  0.00     0.117 A 
HETATM   30  C   UNL     1      45.515 -10.997   7.832  1.00  0.00     0.036 A 
ENDBRANCH  22  25
ENDBRANCH   3  21
TORSDOF 5
ENDMDL
