MODEL 1
REMARK VINA RESULT:      -7.6      0.000      0.000
REMARK  4 active torsions:
REMARK  status: ('A' for Active; 'I' for Inactive)
REMARK    1  A    between atoms: C_8  and  C_9 
REMARK    2  A    between atoms: C_9  and  N_10 
REMARK    3  A    between atoms: N_10  and  C_13 
REMARK    4  A    between atoms: C_13  and  C_14 
ROOT
HETATM    1  N   UNL     1      42.761 -16.645   7.416  1.00  0.00    -0.067 N 
HETATM    2  H   UNL     1      42.890 -16.626   8.435  1.00  0.00     0.277 HD
HETATM    3  H   UNL     1      42.111 -17.424   7.248  1.00  0.00     0.277 HD
ENDROOT
BRANCH   1   4
HETATM    4  C   UNL     1      42.100 -15.382   7.003  1.00  0.00     0.273 C 
BRANCH   4   5
HETATM    5  C   UNL     1      41.382 -15.600   5.723  1.00  0.00    -0.005 A 
HETATM    6  C   UNL     1      41.807 -15.168   4.424  1.00  0.00    -0.000 A 
HETATM    7  C   UNL     1      42.918 -14.445   3.939  1.00  0.00     0.014 A 
HETATM    8  C   UNL     1      40.853 -15.610   3.508  1.00  0.00     0.043 A 
HETATM    9  C   UNL     1      43.031 -14.197   2.566  1.00  0.00     0.001 A 
HETATM   10  C   UNL     1      42.062 -14.654   1.679  1.00  0.00     0.002 A 
HETATM   11  C   UNL     1      40.951 -15.369   2.133  1.00  0.00     0.030 A 
HETATM   12  N   UNL     1      39.875 -16.268   4.217  1.00  0.00    -0.365 N 
HETATM   13  H   UNL     1      39.047 -16.678   3.801  1.00  0.00     0.165 HD
HETATM   14  C   UNL     1      40.192 -16.282   5.551  1.00  0.00     0.098 A 
ENDBRANCH   4   5
ENDBRANCH   1   4
BRANCH   1  15
HETATM   15  C   UNL     1      44.057 -16.922   6.753  1.00  0.00     0.271 C 
BRANCH  15  16
HETATM   16  C   UNL     1      43.943 -18.102   5.832  1.00  0.00    -0.030 A 
HETATM   17  C   UNL     1      44.018 -17.919   4.440  1.00  0.00     0.048 A 
HETATM   18  C   UNL     1      43.947 -19.036   3.633  1.00  0.00     0.105 A 
HETATM   19  C   UNL     1      43.813 -20.300   4.151  1.00  0.00     0.105 A 
HETATM   20  O   UNL     1      44.004 -19.035   2.276  1.00  0.00    -0.323 OA
HETATM   21  O   UNL     1      43.765 -21.254   3.186  1.00  0.00    -0.323 OA
HETATM   22  C   UNL     1      43.743 -20.521   5.509  1.00  0.00     0.040 A 
HETATM   23  C   UNL     1      43.863 -20.446   1.994  1.00  0.00     0.352 A 
HETATM   24  C   UNL     1      43.812 -19.409   6.357  1.00  0.00     0.012 A 
ENDBRANCH  15  16
ENDBRANCH   1  15
TORSDOF 4
ENDMDL
MODEL 2
REMARK VINA RESULT:      -7.6      3.749      7.202
REMARK  4 active torsions:
REMARK  status: ('A' for Active; 'I' for Inactive)
REMARK    1  A    between atoms: C_8  and  C_9 
REMARK    2  A    between atoms: C_9  and  N_10 
REMARK    3  A    between atoms: N_10  and  C_13 
REMARK    4  A    between atoms: C_13  and  C_14 
ROOT
HETATM    1  N   UNL     1      42.452 -14.564   2.046  1.00  0.00    -0.067 N 
HETATM    2  H   UNL     1      42.790 -14.395   3.001  1.00  0.00     0.277 HD
HETATM    3  H   UNL     1      42.991 -13.916   1.458  1.00  0.00     0.277 HD
ENDROOT
BRANCH   1   4
HETATM    4  C   UNL     1      42.805 -15.954   1.662  1.00  0.00     0.273 C 
BRANCH   4   5
HETATM    5  C   UNL     1      43.223 -16.706   2.871  1.00  0.00    -0.005 A 
HETATM    6  C   UNL     1      43.406 -18.123   2.971  1.00  0.00    -0.000 A 
HETATM    7  C   UNL     1      43.255 -19.203   2.075  1.00  0.00     0.014 A 
HETATM    8  C   UNL     1      43.830 -18.395   4.272  1.00  0.00     0.043 A 
HETATM    9  C   UNL     1      43.535 -20.504   2.512  1.00  0.00     0.001 A 
HETATM   10  C   UNL     1      43.959 -20.740   3.816  1.00  0.00     0.002 A 
HETATM   11  C   UNL     1      44.113 -19.689   4.723  1.00  0.00     0.030 A 
HETATM   12  N   UNL     1      43.886 -17.198   4.946  1.00  0.00    -0.365 N 
HETATM   13  H   UNL     1      44.149 -17.103   5.920  1.00  0.00     0.165 HD
HETATM   14  C   UNL     1      43.537 -16.171   4.107  1.00  0.00     0.098 A 
ENDBRANCH   4   5
ENDBRANCH   1   4
BRANCH   1  15
HETATM   15  C   UNL     1      41.009 -14.237   1.961  1.00  0.00     0.271 C 
BRANCH  15  16
HETATM   16  C   UNL     1      40.606 -13.974   0.539  1.00  0.00    -0.030 A 
HETATM   17  C   UNL     1      39.809 -14.904  -0.151  1.00  0.00     0.048 A 
HETATM   18  C   UNL     1      39.430 -14.602  -1.443  1.00  0.00     0.105 A 
HETATM   19  C   UNL     1      39.803 -13.432  -2.056  1.00  0.00     0.105 A 
HETATM   20  O   UNL     1      38.664 -15.387  -2.245  1.00  0.00    -0.323 OA
HETATM   21  O   UNL     1      39.323 -13.334  -3.323  1.00  0.00    -0.323 OA
HETATM   22  C   UNL     1      40.578 -12.493  -1.411  1.00  0.00     0.040 A 
HETATM   23  C   UNL     1      38.619 -14.587  -3.450  1.00  0.00     0.352 A 
HETATM   24  C   UNL     1      40.980 -12.767  -0.099  1.00  0.00     0.012 A 
ENDBRANCH  15  16
ENDBRANCH   1  15
TORSDOF 4
ENDMDL
MODEL 3
REMARK VINA RESULT:      -7.6      3.609      6.515
REMARK  4 active torsions:
REMARK  status: ('A' for Active; 'I' for Inactive)
REMARK    1  A    between atoms: C_8  and  C_9 
REMARK    2  A    between atoms: C_9  and  N_10 
REMARK    3  A    between atoms: N_10  and  C_13 
REMARK    4  A    between atoms: C_13  and  C_14 
ROOT
HETATM    1  N   UNL     1      41.879 -14.999   3.464  1.00  0.00    -0.067 N 
HETATM    2  H   UNL     1      41.091 -15.287   2.872  1.00  0.00     0.277 HD
HETATM    3  H   UNL     1      41.681 -15.412   4.384  1.00  0.00     0.277 HD
ENDROOT
BRANCH   1   4
HETATM    4  C   UNL     1      43.119 -15.616   2.928  1.00  0.00     0.273 C 
BRANCH   4   5
HETATM    5  C   UNL     1      43.507 -16.763   3.784  1.00  0.00    -0.005 A 
HETATM    6  C   UNL     1      43.529 -18.143   3.400  1.00  0.00    -0.000 A 
HETATM    7  C   UNL     1      43.209 -18.843   2.217  1.00  0.00     0.014 A 
HETATM    8  C   UNL     1      43.983 -18.872   4.499  1.00  0.00     0.043 A 
HETATM    9  C   UNL     1      43.358 -20.235   2.179  1.00  0.00     0.001 A 
HETATM   10  C   UNL     1      43.816 -20.931   3.294  1.00  0.00     0.002 A 
HETATM   11  C   UNL     1      44.136 -20.263   4.477  1.00  0.00     0.030 A 
HETATM   12  N   UNL     1      44.211 -17.979   5.519  1.00  0.00    -0.365 N 
HETATM   13  H   UNL     1      44.531 -18.240   6.445  1.00  0.00     0.165 HD
HETATM   14  C   UNL     1      43.943 -16.703   5.095  1.00  0.00     0.098 A 
ENDBRANCH   4   5
ENDBRANCH   1   4
BRANCH   1  15
HETATM   15  C   UNL     1      41.910 -13.522   3.573  1.00  0.00     0.271 C 
BRANCH  15  16
HETATM   16  C   UNL     1      42.741 -13.092   4.747  1.00  0.00    -0.030 A 
HETATM   17  C   UNL     1      43.744 -12.119   4.583  1.00  0.00     0.048 A 
HETATM   18  C   UNL     1      44.456 -11.726   5.698  1.00  0.00     0.105 A 
HETATM   19  C   UNL     1      44.207 -12.251   6.942  1.00  0.00     0.105 A 
HETATM   20  O   UNL     1      45.452 -10.803   5.713  1.00  0.00    -0.323 OA
HETATM   21  O   UNL     1      45.018 -11.727   7.897  1.00  0.00    -0.323 OA
HETATM   22  C   UNL     1      43.230 -13.200   7.144  1.00  0.00     0.040 A 
HETATM   23  C   UNL     1      45.824 -10.824   7.111  1.00  0.00     0.352 A 
HETATM   24  C   UNL     1      42.488 -13.621   6.035  1.00  0.00     0.012 A 
ENDBRANCH  15  16
ENDBRANCH   1  15
TORSDOF 4
ENDMDL
MODEL 4
REMARK VINA RESULT:      -7.4      1.367      2.042
REMARK  4 active torsions:
REMARK  status: ('A' for Active; 'I' for Inactive)
REMARK    1  A    between atoms: C_8  and  C_9 
REMARK    2  A    between atoms: C_9  and  N_10 
REMARK    3  A    between atoms: N_10  and  C_13 
REMARK    4  A    between atoms: C_13  and  C_14 
ROOT
HETATM    1  N   UNL     1      43.771 -15.743   5.871  1.00  0.00    -0.067 N 
HETATM    2  H   UNL     1      44.037 -15.955   4.902  1.00  0.00     0.277 HD
HETATM    3  H   UNL     1      44.594 -15.276   6.273  1.00  0.00     0.277 HD
ENDROOT
BRANCH   1   4
HETATM    4  C   UNL     1      42.644 -14.777   5.848  1.00  0.00     0.273 C 
BRANCH   4   5
HETATM    5  C   UNL     1      42.528 -14.190   4.491  1.00  0.00    -0.005 A 
HETATM    6  C   UNL     1      41.716 -14.680   3.418  1.00  0.00    -0.000 A 
HETATM    7  C   UNL     1      40.848 -15.782   3.261  1.00  0.00     0.014 A 
HETATM    8  C   UNL     1      41.885 -13.811   2.340  1.00  0.00     0.043 A 
HETATM    9  C   UNL     1      40.185 -15.968   2.042  1.00  0.00     0.001 A 
HETATM   10  C   UNL     1      40.375 -15.080   0.987  1.00  0.00     0.002 A 
HETATM   11  C   UNL     1      41.231 -13.984   1.115  1.00  0.00     0.030 A 
HETATM   12  N   UNL     1      42.777 -12.840   2.730  1.00  0.00    -0.365 N 
HETATM   13  H   UNL     1      43.097 -12.086   2.133  1.00  0.00     0.165 HD
HETATM   14  C   UNL     1      43.160 -13.049   4.030  1.00  0.00     0.098 A 
ENDBRANCH   4   5
ENDBRANCH   1   4
BRANCH   1  15
HETATM   15  C   UNL     1      43.502 -17.004   6.602  1.00  0.00     0.271 C 
BRANCH  15  16
HETATM   16  C   UNL     1      43.592 -18.184   5.679  1.00  0.00    -0.030 A 
HETATM   17  C   UNL     1      43.593 -17.991   4.286  1.00  0.00     0.048 A 
HETATM   18  C   UNL     1      43.718 -19.102   3.477  1.00  0.00     0.105 A 
HETATM   19  C   UNL     1      43.844 -20.368   3.992  1.00  0.00     0.105 A 
HETATM   20  O   UNL     1      43.736 -19.091   2.118  1.00  0.00    -0.323 OA
HETATM   21  O   UNL     1      43.954 -21.313   3.025  1.00  0.00    -0.323 OA
HETATM   22  C   UNL     1      43.854 -20.597   5.351  1.00  0.00     0.040 A 
HETATM   23  C   UNL     1      43.863 -20.503   1.834  1.00  0.00     0.352 A 
HETATM   24  C   UNL     1      43.730 -19.493   6.201  1.00  0.00     0.012 A 
ENDBRANCH  15  16
ENDBRANCH   1  15
TORSDOF 4
ENDMDL
MODEL 5
REMARK VINA RESULT:      -7.3      2.872      6.156
REMARK  4 active torsions:
REMARK  status: ('A' for Active; 'I' for Inactive)
REMARK    1  A    between atoms: C_8  and  C_9 
REMARK    2  A    between atoms: C_9  and  N_10 
REMARK    3  A    between atoms: N_10  and  C_13 
REMARK    4  A    between atoms: C_13  and  C_14 
ROOT
HETATM    1  N   UNL     1      41.817 -15.412   4.788  1.00  0.00    -0.067 N 
HETATM    2  H   UNL     1      41.627 -15.671   5.764  1.00  0.00     0.277 HD
HETATM    3  H   UNL     1      41.731 -14.388   4.767  1.00  0.00     0.277 HD
ENDROOT
BRANCH   1   4
HETATM    4  C   UNL     1      43.221 -15.774   4.471  1.00  0.00     0.273 C 
BRANCH   4   5
HETATM    5  C   UNL     1      43.459 -17.190   4.847  1.00  0.00    -0.005 A 
HETATM    6  C   UNL     1      43.534 -18.307   3.953  1.00  0.00    -0.000 A 
HETATM    7  C   UNL     1      43.403 -18.464   2.557  1.00  0.00     0.014 A 
HETATM    8  C   UNL     1      43.801 -19.438   4.724  1.00  0.00     0.043 A 
HETATM    9  C   UNL     1      43.547 -19.736   1.990  1.00  0.00     0.001 A 
HETATM   10  C   UNL     1      43.816 -20.843   2.789  1.00  0.00     0.002 A 
HETATM   11  C   UNL     1      43.947 -20.716   4.174  1.00  0.00     0.030 A 
HETATM   12  N   UNL     1      43.869 -19.034   6.037  1.00  0.00    -0.365 N 
HETATM   13  H   UNL     1      44.035 -19.658   6.818  1.00  0.00     0.165 HD
HETATM   14  C   UNL     1      43.680 -17.678   6.122  1.00  0.00     0.098 A 
ENDBRANCH   4   5
ENDBRANCH   1   4
BRANCH   1  15
HETATM   15  C   UNL     1      40.797 -16.019   3.901  1.00  0.00     0.271 C 
BRANCH  15  16
HETATM   16  C   UNL     1      40.521 -15.132   2.723  1.00  0.00    -0.030 A 
HETATM   17  C   UNL     1      40.145 -15.694   1.490  1.00  0.00     0.048 A 
HETATM   18  C   UNL     1      39.862 -14.839   0.444  1.00  0.00     0.105 A 
HETATM   19  C   UNL     1      39.933 -13.475   0.581  1.00  0.00     0.105 A 
HETATM   20  O   UNL     1      39.487 -15.216  -0.805  1.00  0.00    -0.323 OA
HETATM   21  O   UNL     1      39.615 -12.822  -0.566  1.00  0.00    -0.323 OA
HETATM   22  C   UNL     1      40.290 -12.886   1.774  1.00  0.00     0.040 A 
HETATM   23  C   UNL     1      39.354 -13.930  -1.453  1.00  0.00     0.352 A 
HETATM   24  C   UNL     1      40.583 -13.724   2.856  1.00  0.00     0.012 A 
ENDBRANCH  15  16
ENDBRANCH   1  15
TORSDOF 4
ENDMDL
MODEL 6
REMARK VINA RESULT:      -7.2      5.806      8.018
REMARK  4 active torsions:
REMARK  status: ('A' for Active; 'I' for Inactive)
REMARK    1  A    between atoms: C_8  and  C_9 
REMARK    2  A    between atoms: C_9  and  N_10 
REMARK    3  A    between atoms: N_10  and  C_13 
REMARK    4  A    between atoms: C_13  and  C_14 
ROOT
HETATM    1  N   UNL     1      43.307 -13.063   6.909  1.00  0.00    -0.067 N 
HETATM    2  H   UNL     1      42.715 -12.637   6.187  1.00  0.00     0.277 HD
HETATM    3  H   UNL     1      42.903 -12.748   7.800  1.00  0.00     0.277 HD
ENDROOT
BRANCH   1   4
HETATM    4  C   UNL     1      43.165 -14.538   6.822  1.00  0.00     0.273 C 
BRANCH   4   5
HETATM    5  C   UNL     1      43.005 -14.933   5.401  1.00  0.00    -0.005 A 
HETATM    6  C   UNL     1      43.406 -16.176   4.812  1.00  0.00    -0.000 A 
HETATM    7  C   UNL     1      44.046 -17.336   5.297  1.00  0.00     0.014 A 
HETATM    8  C   UNL     1      43.039 -16.134   3.467  1.00  0.00     0.043 A 
HETATM    9  C   UNL     1      44.288 -18.404   4.425  1.00  0.00     0.001 A 
HETATM   10  C   UNL     1      43.907 -18.331   3.088  1.00  0.00     0.002 A 
HETATM   11  C   UNL     1      43.275 -17.193   2.582  1.00  0.00     0.030 A 
HETATM   12  N   UNL     1      42.454 -14.911   3.237  1.00  0.00    -0.365 N 
HETATM   13  H   UNL     1      42.108 -14.605   2.335  1.00  0.00     0.165 HD
HETATM   14  C   UNL     1      42.413 -14.185   4.399  1.00  0.00     0.098 A 
ENDBRANCH   4   5
ENDBRANCH   1   4
BRANCH   1  15
HETATM   15  C   UNL     1      44.695 -12.559   6.780  1.00  0.00     0.271 C 
BRANCH  15  16
HETATM   16  C   UNL     1      44.800 -11.153   7.297  1.00  0.00    -0.030 A 
HETATM   17  C   UNL     1      43.636 -10.433   7.623  1.00  0.00     0.048 A 
HETATM   18  C   UNL     1      43.782  -9.159   8.131  1.00  0.00     0.105 A 
HETATM   19  C   UNL     1      45.016  -8.591   8.328  1.00  0.00     0.105 A 
HETATM   20  O   UNL     1      42.767  -8.333   8.495  1.00  0.00    -0.323 OA
HETATM   21  O   UNL     1      44.934  -7.335   8.836  1.00  0.00    -0.323 OA
HETATM   22  C   UNL     1      46.179  -9.266   8.027  1.00  0.00     0.040 A 
HETATM   23  C   UNL     1      43.503  -7.163   8.921  1.00  0.00     0.352 A 
HETATM   24  C   UNL     1      46.068 -10.561   7.510  1.00  0.00     0.012 A 
ENDBRANCH  15  16
ENDBRANCH   1  15
TORSDOF 4
ENDMDL
MODEL 7
REMARK VINA RESULT:      -7.1      2.106      3.061
REMARK  4 active torsions:
REMARK  status: ('A' for Active; 'I' for Inactive)
REMARK    1  A    between atoms: C_8  and  C_9 
REMARK    2  A    between atoms: C_9  and  N_10 
REMARK    3  A    between atoms: N_10  and  C_13 
REMARK    4  A    between atoms: C_13  and  C_14 
ROOT
HETATM    1  N   UNL     1      42.208 -15.295   4.965  1.00  0.00    -0.067 N 
HETATM    2  H   UNL     1      42.337 -14.353   5.353  1.00  0.00     0.277 HD
HETATM    3  H   UNL     1      42.391 -15.931   5.752  1.00  0.00     0.277 HD
ENDROOT
BRANCH   1   4
HETATM    4  C   UNL     1      40.788 -15.444   4.559  1.00  0.00     0.273 C 
BRANCH   4   5
HETATM    5  C   UNL     1      40.394 -14.287   3.718  1.00  0.00    -0.005 A 
HETATM    6  C   UNL     1      40.177 -14.298   2.302  1.00  0.00    -0.000 A 
HETATM    7  C   UNL     1      40.267 -15.285   1.298  1.00  0.00     0.014 A 
HETATM    8  C   UNL     1      39.792 -13.009   1.932  1.00  0.00     0.043 A 
HETATM    9  C   UNL     1      39.969 -14.947  -0.028  1.00  0.00     0.001 A 
HETATM   10  C   UNL     1      39.586 -13.652  -0.362  1.00  0.00     0.002 A 
HETATM   11  C   UNL     1      39.491 -12.656   0.612  1.00  0.00     0.030 A 
HETATM   12  N   UNL     1      39.792 -12.237   3.070  1.00  0.00    -0.365 N 
HETATM   13  H   UNL     1      39.566 -11.249   3.089  1.00  0.00     0.165 HD
HETATM   14  C   UNL     1      40.137 -13.000   4.156  1.00  0.00     0.098 A 
ENDBRANCH   4   5
ENDBRANCH   1   4
BRANCH   1  15
HETATM   15  C   UNL     1      43.197 -15.533   3.887  1.00  0.00     0.271 C 
BRANCH  15  16
HETATM   16  C   UNL     1      43.377 -17.003   3.644  1.00  0.00    -0.030 A 
HETATM   17  C   UNL     1      43.776 -17.847   4.696  1.00  0.00     0.048 A 
HETATM   18  C   UNL     1      43.891 -19.198   4.438  1.00  0.00     0.105 A 
HETATM   19  C   UNL     1      43.624 -19.727   3.200  1.00  0.00     0.105 A 
HETATM   20  O   UNL     1      44.263 -20.145   5.337  1.00  0.00    -0.323 OA
HETATM   21  O   UNL     1      43.798 -21.072   3.162  1.00  0.00    -0.323 OA
HETATM   22  C   UNL     1      43.224 -18.934   2.146  1.00  0.00     0.040 A 
HETATM   23  C   UNL     1      44.226 -21.334   4.515  1.00  0.00     0.352 A 
HETATM   24  C   UNL     1      43.097 -17.559   2.373  1.00  0.00     0.012 A 
ENDBRANCH  15  16
ENDBRANCH   1  15
TORSDOF 4
ENDMDL
MODEL 8
REMARK VINA RESULT:      -7.0      4.733      7.074
REMARK  4 active torsions:
REMARK  status: ('A' for Active; 'I' for Inactive)
REMARK    1  A    between atoms: C_8  and  C_9 
REMARK    2  A    between atoms: C_9  and  N_10 
REMARK    3  A    between atoms: N_10  and  C_13 
REMARK    4  A    between atoms: C_13  and  C_14 
ROOT
HETATM    1  N   UNL     1      41.070 -13.498   6.465  1.00  0.00    -0.067 N 
HETATM    2  H   UNL     1      40.200 -13.431   7.007  1.00  0.00     0.277 HD
HETATM    3  H   UNL     1      41.789 -13.757   7.152  1.00  0.00     0.277 HD
ENDROOT
BRANCH   1   4
HETATM    4  C   UNL     1      40.930 -14.607   5.488  1.00  0.00     0.273 C 
BRANCH   4   5
HETATM    5  C   UNL     1      41.807 -15.733   5.894  1.00  0.00    -0.005 A 
HETATM    6  C   UNL     1      42.490 -16.638   5.019  1.00  0.00    -0.000 A 
HETATM    7  C   UNL     1      42.559 -16.793   3.618  1.00  0.00     0.014 A 
HETATM    8  C   UNL     1      43.222 -17.515   5.820  1.00  0.00     0.043 A 
HETATM    9  C   UNL     1      43.354 -17.810   3.077  1.00  0.00     0.001 A 
HETATM   10  C   UNL     1      44.074 -18.667   3.905  1.00  0.00     0.002 A 
HETATM   11  C   UNL     1      44.021 -18.536   5.294  1.00  0.00     0.030 A 
HETATM   12  N   UNL     1      42.983 -17.173   7.130  1.00  0.00    -0.365 N 
HETATM   13  H   UNL     1      43.376 -17.659   7.928  1.00  0.00     0.165 HD
HETATM   14  C   UNL     1      42.143 -16.090   7.187  1.00  0.00     0.098 A 
ENDBRANCH   4   5
ENDBRANCH   1   4
BRANCH   1  15
HETATM   15  C   UNL     1      41.393 -12.178   5.873  1.00  0.00     0.271 C 
BRANCH  15  16
HETATM   16  C   UNL     1      42.729 -11.692   6.357  1.00  0.00    -0.030 A 
HETATM   17  C   UNL     1      42.826 -10.471   7.048  1.00  0.00     0.048 A 
HETATM   18  C   UNL     1      44.067 -10.081   7.508  1.00  0.00     0.105 A 
HETATM   19  C   UNL     1      45.188 -10.850   7.315  1.00  0.00     0.105 A 
HETATM   20  O   UNL     1      44.333  -8.937   8.190  1.00  0.00    -0.323 OA
HETATM   21  O   UNL     1      46.302 -10.284   7.847  1.00  0.00    -0.323 OA
HETATM   22  C   UNL     1      45.133 -12.054   6.649  1.00  0.00     0.040 A 
HETATM   23  C   UNL     1      45.762  -9.058   8.383  1.00  0.00     0.352 A 
HETATM   24  C   UNL     1      43.889 -12.480   6.169  1.00  0.00     0.012 A 
ENDBRANCH  15  16
ENDBRANCH   1  15
TORSDOF 4
ENDMDL
MODEL 9
REMARK VINA RESULT:      -6.9      3.290      4.702
REMARK  4 active torsions:
REMARK  status: ('A' for Active; 'I' for Inactive)
REMARK    1  A    between atoms: C_8  and  C_9 
REMARK    2  A    between atoms: C_9  and  N_10 
REMARK    3  A    between atoms: N_10  and  C_13 
REMARK    4  A    between atoms: C_13  and  C_14 
ROOT
HETATM    1  N   UNL     1      41.517 -15.029   2.314  1.00  0.00    -0.067 N 
HETATM    2  H   UNL     1      41.210 -14.094   2.607  1.00  0.00     0.277 HD
HETATM    3  H   UNL     1      41.001 -15.677   2.923  1.00  0.00     0.277 HD
ENDROOT
BRANCH   1   4
HETATM    4  C   UNL     1      41.082 -15.250   0.913  1.00  0.00     0.273 C 
BRANCH   4   5
HETATM    5  C   UNL     1      40.296 -14.078   0.453  1.00  0.00    -0.005 A 
HETATM    6  C   UNL     1      39.505 -13.999  -0.739  1.00  0.00    -0.000 A 
HETATM    7  C   UNL     1      39.228 -14.886  -1.801  1.00  0.00     0.014 A 
HETATM    8  C   UNL     1      38.918 -12.734  -0.763  1.00  0.00     0.043 A 
HETATM    9  C   UNL     1      38.378 -14.478  -2.835  1.00  0.00     0.001 A 
HETATM   10  C   UNL     1      37.807 -13.208  -2.827  1.00  0.00     0.002 A 
HETATM   11  C   UNL     1      38.067 -12.310  -1.790  1.00  0.00     0.030 A 
HETATM   12  N   UNL     1      39.346 -12.060   0.357  1.00  0.00    -0.365 N 
HETATM   13  H   UNL     1      39.086 -11.107   0.584  1.00  0.00     0.165 HD
HETATM   14  C   UNL     1      40.165 -12.866   1.105  1.00  0.00     0.098 A 
ENDBRANCH   4   5
ENDBRANCH   1   4
BRANCH   1  15
HETATM   15  C   UNL     1      42.974 -15.174   2.548  1.00  0.00     0.271 C 
BRANCH  15  16
HETATM   16  C   UNL     1      43.283 -16.503   3.174  1.00  0.00    -0.030 A 
HETATM   17  C   UNL     1      43.246 -17.674   2.396  1.00  0.00     0.048 A 
HETATM   18  C   UNL     1      43.575 -18.868   3.003  1.00  0.00     0.105 A 
HETATM   19  C   UNL     1      43.938 -18.936   4.326  1.00  0.00     0.105 A 
HETATM   20  O   UNL     1      43.590 -20.084   2.399  1.00  0.00    -0.323 OA
HETATM   21  O   UNL     1      44.222 -20.203   4.721  1.00  0.00    -0.323 OA
HETATM   22  C   UNL     1      43.992 -17.811   5.119  1.00  0.00     0.040 A 
HETATM   23  C   UNL     1      43.979 -20.935   3.501  1.00  0.00     0.352 A 
HETATM   24  C   UNL     1      43.664 -16.582   4.535  1.00  0.00     0.012 A 
ENDBRANCH  15  16
ENDBRANCH   1  15
TORSDOF 4
ENDMDL
MODEL 10
REMARK VINA RESULT:      -6.7      5.150      8.370
REMARK  4 active torsions:
REMARK  status: ('A' for Active; 'I' for Inactive)
REMARK    1  A    between atoms: C_8  and  C_9 
REMARK    2  A    between atoms: C_9  and  N_10 
REMARK    3  A    between atoms: N_10  and  C_13 
REMARK    4  A    between atoms: C_13  and  C_14 
ROOT
HETATM    1  N   UNL     1      39.846 -14.584   1.204  1.00  0.00    -0.067 N 
HETATM    2  H   UNL     1      38.836 -14.409   1.269  1.00  0.00     0.277 HD
HETATM    3  H   UNL     1      40.264 -13.984   1.926  1.00  0.00     0.277 HD
ENDROOT
BRANCH   1   4
HETATM    4  C   UNL     1      40.100 -16.002   1.564  1.00  0.00     0.273 C 
BRANCH   4   5
HETATM    5  C   UNL     1      40.904 -16.055   2.809  1.00  0.00    -0.005 A 
HETATM    6  C   UNL     1      42.024 -16.912   3.063  1.00  0.00    -0.000 A 
HETATM    7  C   UNL     1      42.686 -17.916   2.325  1.00  0.00     0.014 A 
HETATM    8  C   UNL     1      42.496 -16.609   4.341  1.00  0.00     0.043 A 
HETATM    9  C   UNL     1      43.788 -18.571   2.888  1.00  0.00     0.001 A 
HETATM   10  C   UNL     1      44.234 -18.242   4.165  1.00  0.00     0.002 A 
HETATM   11  C   UNL     1      43.595 -17.255   4.917  1.00  0.00     0.030 A 
HETATM   12  N   UNL     1      41.688 -15.622   4.855  1.00  0.00    -0.365 N 
HETATM   13  H   UNL     1      41.793 -15.223   5.780  1.00  0.00     0.165 HD
HETATM   14  C   UNL     1      40.734 -15.269   3.934  1.00  0.00     0.098 A 
ENDBRANCH   4   5
ENDBRANCH   1   4
BRANCH   1  15
HETATM   15  C   UNL     1      40.339 -14.179  -0.134  1.00  0.00     0.271 C 
BRANCH  15  16
HETATM   16  C   UNL     1      39.242 -13.537  -0.933  1.00  0.00    -0.030 A 
HETATM   17  C   UNL     1      38.786 -12.250  -0.596  1.00  0.00     0.048 A 
HETATM   18  C   UNL     1      37.803 -11.683  -1.382  1.00  0.00     0.105 A 
HETATM   19  C   UNL     1      37.276 -12.334  -2.470  1.00  0.00     0.105 A 
HETATM   20  O   UNL     1      37.254 -10.454  -1.196  1.00  0.00    -0.323 OA
HETATM   21  O   UNL     1      36.326 -11.599  -3.103  1.00  0.00    -0.323 OA
HETATM   22  C   UNL     1      37.701 -13.592  -2.836  1.00  0.00     0.040 A 
HETATM   23  C   UNL     1      36.297 -10.414  -2.279  1.00  0.00     0.352 A 
HETATM   24  C   UNL     1      38.697 -14.197  -2.060  1.00  0.00     0.012 A 
ENDBRANCH  15  16
ENDBRANCH   1  15
TORSDOF 4
ENDMDL
