MODEL 1
REMARK VINA RESULT:      -9.9      0.000      0.000
REMARK  7 active torsions:
REMARK  status: ('A' for Active; 'I' for Inactive)
REMARK    1  A    between atoms: C_2  and  C_3 
REMARK    2  A    between atoms: C_3  and  N_4 
REMARK       I    between atoms: N_4  and  C_5 
REMARK    3  A    between atoms: C_5  and  C_6 
REMARK    4  A    between atoms: C_6  and  C_7 
REMARK    5  A    between atoms: C_7  and  C_8 
REMARK       I    between atoms: C_8  and  N_9 
REMARK    6  A    between atoms: N_9  and  N_10 
REMARK       I    between atoms: N_10  and  C_11 
REMARK    7  A    between atoms: C_11  and  C_12 
ROOT
HETATM    1  C   UNL     1      44.892 -11.356   7.208  1.00  0.00     0.236 C 
HETATM    2  N   UNL     1      43.888 -12.280   7.364  1.00  0.00    -0.267 N 
HETATM    3  O   UNL     1      45.697 -11.388   6.276  1.00  0.00    -0.272 OA
HETATM    4  H   UNL     1      43.332 -12.378   8.214  1.00  0.00     0.190 HD
ENDROOT
BRANCH   1   5
HETATM    5  C   UNL     1      45.005 -10.336   8.314  1.00  0.00     0.114 C 
BRANCH   5   6
HETATM    6  C   UNL     1      43.651 -10.158   8.982  1.00  0.00     0.112 C 
BRANCH   6   7
HETATM    7  C   UNL     1      43.645 -10.509  10.460  1.00  0.00     0.218 C 
HETATM    8  N   UNL     1      42.495 -10.196  11.139  1.00  0.00    -0.357 N 
HETATM    9  H   UNL     1      41.623 -10.070  10.627  1.00  0.00     0.162 HD
HETATM   10  O   UNL     1      44.644 -10.965  11.010  1.00  0.00    -0.274 OA
BRANCH   8  11
HETATM   11  C   UNL     1      42.387 -10.441  12.560  1.00  0.00     0.161 C 
BRANCH  11  12
HETATM   12  C   UNL     1      42.325  -9.172  13.379  1.00  0.00    -0.038 A 
HETATM   13  C   UNL     1      43.229  -8.102  13.171  1.00  0.00     0.012 A 
HETATM   14  C   UNL     1      43.184  -6.947  13.959  1.00  0.00     0.040 A 
HETATM   15  C   UNL     1      42.244  -6.895  14.964  1.00  0.00     0.105 A 
HETATM   16  C   UNL     1      41.376  -7.934  15.195  1.00  0.00     0.105 A 
HETATM   17  O   UNL     1      42.064  -5.864  15.833  1.00  0.00    -0.323 OA
HETATM   18  C   UNL     1      41.391  -9.081  14.427  1.00  0.00     0.048 A 
HETATM   19  O   UNL     1      40.543  -7.691  16.242  1.00  0.00    -0.323 OA
HETATM   20  C   UNL     1      40.994  -6.383  16.649  1.00  0.00     0.352 A 
ENDBRANCH  11  12
ENDBRANCH   8  11
ENDBRANCH   6   7
ENDBRANCH   5   6
ENDBRANCH   1   5
BRANCH   2  21
HETATM   21  N   UNL     1      43.844 -13.351   6.464  1.00  0.00    -0.262 N 
HETATM   22  C   UNL     1      43.547 -14.613   6.932  1.00  0.00     0.286 C 
HETATM   23  O   UNL     1      43.305 -14.821   8.121  1.00  0.00    -0.264 OA
HETATM   24  H   UNL     1      44.085 -13.151   5.497  1.00  0.00     0.190 HD
BRANCH  22  25
HETATM   25  C   UNL     1      43.533 -15.661   5.937  1.00  0.00     0.103 A 
HETATM   26  N   UNL     1      42.798 -15.539   4.777  1.00  0.00    -0.351 N 
HETATM   27  H   UNL     1      42.230 -14.731   4.556  1.00  0.00     0.166 HD
HETATM   28  C   UNL     1      42.960 -16.640   3.969  1.00  0.00     0.043 A 
HETATM   29  C   UNL     1      43.814 -17.513   4.639  1.00  0.00    -0.005 A 
HETATM   30  C   UNL     1      42.423 -16.923   2.709  1.00  0.00     0.032 A 
HETATM   31  C   UNL     1      44.163 -16.893   5.873  1.00  0.00     0.049 A 
HETATM   32  C   UNL     1      44.153 -18.736   4.031  1.00  0.00     0.037 A 
HETATM   33  C   UNL     1      43.624 -19.031   2.771  1.00  0.00     0.035 A 
HETATM   34  C   UNL     1      42.774 -18.142   2.118  1.00  0.00     0.026 A 
HETATM   35 CL   UNL     1      44.036 -20.523   2.011  1.00  0.00    -0.084 Cl
ENDBRANCH  22  25
ENDBRANCH   2  21
TORSDOF 7
ENDMDL
MODEL 2
REMARK VINA RESULT:      -9.9      1.073      1.469
REMARK  7 active torsions:
REMARK  status: ('A' for Active; 'I' for Inactive)
REMARK    1  A    between atoms: C_2  and  C_3 
REMARK    2  A    between atoms: C_3  and  N_4 
REMARK       I    between atoms: N_4  and  C_5 
REMARK    3  A    between atoms: C_5  and  C_6 
REMARK    4  A    between atoms: C_6  and  C_7 
REMARK    5  A    between atoms: C_7  and  C_8 
REMARK       I    between atoms: C_8  and  N_9 
REMARK    6  A    between atoms: N_9  and  N_10 
REMARK       I    between atoms: N_10  and  C_11 
REMARK    7  A    between atoms: C_11  and  C_12 
ROOT
HETATM    1  C   UNL     1      44.493 -11.249   7.459  1.00  0.00     0.236 C 
HETATM    2  N   UNL     1      43.443 -12.134   7.510  1.00  0.00    -0.267 N 
HETATM    3  O   UNL     1      45.509 -11.449   6.793  1.00  0.00    -0.272 OA
HETATM    4  H   UNL     1      42.683 -12.075   8.187  1.00  0.00     0.190 HD
ENDROOT
BRANCH   1   5
HETATM    5  C   UNL     1      44.359 -10.041   8.353  1.00  0.00     0.114 C 
BRANCH   5   6
HETATM    6  C   UNL     1      44.958 -10.347   9.717  1.00  0.00     0.112 C 
BRANCH   6   7
HETATM    7  C   UNL     1      43.922 -10.604  10.797  1.00  0.00     0.218 C 
HETATM    8  N   UNL     1      42.863  -9.732  10.824  1.00  0.00    -0.357 N 
HETATM    9  H   UNL     1      42.628  -9.196   9.990  1.00  0.00     0.162 HD
HETATM   10  O   UNL     1      44.082 -11.488  11.635  1.00  0.00    -0.274 OA
BRANCH   8  11
HETATM   11  C   UNL     1      41.837  -9.847  11.836  1.00  0.00     0.161 C 
BRANCH  11  12
HETATM   12  C   UNL     1      42.041  -8.904  13.000  1.00  0.00    -0.038 A 
HETATM   13  C   UNL     1      43.082  -7.944  13.012  1.00  0.00     0.012 A 
HETATM   14  C   UNL     1      43.280  -7.100  14.110  1.00  0.00     0.040 A 
HETATM   15  C   UNL     1      42.444  -7.252  15.193  1.00  0.00     0.105 A 
HETATM   16  C   UNL     1      41.445  -8.194  15.207  1.00  0.00     0.105 A 
HETATM   17  O   UNL     1      42.497  -6.533  16.347  1.00  0.00    -0.323 OA
HETATM   18  C   UNL     1      41.219  -9.032  14.134  1.00  0.00     0.048 A 
HETATM   19  O   UNL     1      40.746  -8.193  16.373  1.00  0.00    -0.323 OA
HETATM   20  C   UNL     1      41.428  -7.146  17.095  1.00  0.00     0.352 A 
ENDBRANCH  11  12
ENDBRANCH   8  11
ENDBRANCH   6   7
ENDBRANCH   5   6
ENDBRANCH   1   5
BRANCH   2  21
HETATM   21  N   UNL     1      43.587 -13.353   6.839  1.00  0.00    -0.262 N 
HETATM   22  C   UNL     1      42.942 -13.541   5.636  1.00  0.00     0.286 C 
HETATM   23  O   UNL     1      42.254 -12.658   5.126  1.00  0.00    -0.264 OA
HETATM   24  H   UNL     1      44.131 -14.074   7.306  1.00  0.00     0.190 HD
BRANCH  22  25
HETATM   25  C   UNL     1      43.137 -14.834   5.019  1.00  0.00     0.103 A 
HETATM   26  N   UNL     1      43.685 -15.888   5.718  1.00  0.00    -0.351 N 
HETATM   27  H   UNL     1      43.984 -15.826   6.683  1.00  0.00     0.166 HD
HETATM   28  C   UNL     1      43.745 -17.020   4.940  1.00  0.00     0.043 A 
HETATM   29  C   UNL     1      43.238 -16.680   3.688  1.00  0.00    -0.005 A 
HETATM   30  C   UNL     1      44.204 -18.305   5.249  1.00  0.00     0.032 A 
HETATM   31  C   UNL     1      42.865 -15.307   3.746  1.00  0.00     0.049 A 
HETATM   32  C   UNL     1      43.184 -17.666   2.684  1.00  0.00     0.037 A 
HETATM   33  C   UNL     1      43.638 -18.955   2.980  1.00  0.00     0.035 A 
HETATM   34  C   UNL     1      44.139 -19.272   4.240  1.00  0.00     0.026 A 
HETATM   35 CL   UNL     1      43.572 -20.173   1.762  1.00  0.00    -0.084 Cl
ENDBRANCH  22  25
ENDBRANCH   2  21
TORSDOF 7
ENDMDL
MODEL 3
REMARK VINA RESULT:      -9.6      4.517     12.075
REMARK  7 active torsions:
REMARK  status: ('A' for Active; 'I' for Inactive)
REMARK    1  A    between atoms: C_2  and  C_3 
REMARK    2  A    between atoms: C_3  and  N_4 
REMARK       I    between atoms: N_4  and  C_5 
REMARK    3  A    between atoms: C_5  and  C_6 
REMARK    4  A    between atoms: C_6  and  C_7 
REMARK    5  A    between atoms: C_7  and  C_8 
REMARK       I    between atoms: C_8  and  N_9 
REMARK    6  A    between atoms: N_9  and  N_10 
REMARK       I    between atoms: N_10  and  C_11 
REMARK    7  A    between atoms: C_11  and  C_12 
ROOT
HETATM    1  C   UNL     1      43.472 -11.296   5.882  1.00  0.00     0.236 C 
HETATM    2  N   UNL     1      43.850 -11.839   7.086  1.00  0.00    -0.267 N 
HETATM    3  O   UNL     1      42.857 -10.233   5.788  1.00  0.00    -0.272 OA
HETATM    4  H   UNL     1      44.194 -12.794   7.195  1.00  0.00     0.190 HD
ENDROOT
BRANCH   1   5
HETATM    5  C   UNL     1      43.781 -12.139   4.670  1.00  0.00     0.114 C 
BRANCH   5   6
HETATM    6  C   UNL     1      42.701 -11.936   3.619  1.00  0.00     0.112 C 
BRANCH   6   7
HETATM    7  C   UNL     1      42.203 -13.227   2.993  1.00  0.00     0.218 C 
HETATM    8  N   UNL     1      43.178 -14.087   2.553  1.00  0.00    -0.357 N 
HETATM    9  H   UNL     1      44.122 -14.017   2.929  1.00  0.00     0.162 HD
HETATM   10  O   UNL     1      41.004 -13.433   2.824  1.00  0.00    -0.274 OA
BRANCH   8  11
HETATM   11  C   UNL     1      42.827 -15.328   1.897  1.00  0.00     0.161 C 
BRANCH  11  12
HETATM   12  C   UNL     1      43.168 -16.551   2.716  1.00  0.00    -0.038 A 
HETATM   13  C   UNL     1      43.603 -16.454   4.061  1.00  0.00     0.012 A 
HETATM   14  C   UNL     1      43.948 -17.593   4.797  1.00  0.00     0.040 A 
HETATM   15  C   UNL     1      43.876 -18.812   4.162  1.00  0.00     0.105 A 
HETATM   16  C   UNL     1      43.480 -18.920   2.852  1.00  0.00     0.105 A 
HETATM   17  O   UNL     1      44.185 -20.016   4.714  1.00  0.00    -0.323 OA
HETATM   18  C   UNL     1      43.123 -17.816   2.104  1.00  0.00     0.048 A 
HETATM   19  O   UNL     1      43.494 -20.207   2.410  1.00  0.00    -0.323 OA
HETATM   20  C   UNL     1      43.955 -20.893   3.592  1.00  0.00     0.352 A 
ENDBRANCH  11  12
ENDBRANCH   8  11
ENDBRANCH   6   7
ENDBRANCH   5   6
ENDBRANCH   1   5
BRANCH   2  21
HETATM   21  N   UNL     1      43.436 -11.189   8.253  1.00  0.00    -0.262 N 
HETATM   22  C   UNL     1      44.384 -10.722   9.137  1.00  0.00     0.286 C 
HETATM   23  O   UNL     1      45.589 -10.847   8.920  1.00  0.00    -0.264 OA
HETATM   24  H   UNL     1      42.434 -11.135   8.419  1.00  0.00     0.190 HD
BRANCH  22  25
HETATM   25  C   UNL     1      43.867 -10.072  10.321  1.00  0.00     0.103 A 
HETATM   26  N   UNL     1      42.761 -10.560  10.982  1.00  0.00    -0.351 N 
HETATM   27  H   UNL     1      42.247 -11.381  10.686  1.00  0.00     0.166 HD
HETATM   28  C   UNL     1      42.472  -9.802  12.092  1.00  0.00     0.043 A 
HETATM   29  C   UNL     1      43.413  -8.776  12.139  1.00  0.00    -0.005 A 
HETATM   30  C   UNL     1      41.461  -9.948  13.048  1.00  0.00     0.032 A 
HETATM   31  C   UNL     1      44.279  -8.950  11.022  1.00  0.00     0.049 A 
HETATM   32  C   UNL     1      43.349  -7.840  13.187  1.00  0.00     0.037 A 
HETATM   33  C   UNL     1      42.345  -7.974  14.151  1.00  0.00     0.035 A 
HETATM   34  C   UNL     1      41.416  -9.010  14.086  1.00  0.00     0.026 A 
HETATM   35 CL   UNL     1      42.259  -6.838  15.445  1.00  0.00    -0.084 Cl
ENDBRANCH  22  25
ENDBRANCH   2  21
TORSDOF 7
ENDMDL
MODEL 4
REMARK VINA RESULT:      -9.1      4.455     11.962
REMARK  7 active torsions:
REMARK  status: ('A' for Active; 'I' for Inactive)
REMARK    1  A    between atoms: C_2  and  C_3 
REMARK    2  A    between atoms: C_3  and  N_4 
REMARK       I    between atoms: N_4  and  C_5 
REMARK    3  A    between atoms: C_5  and  C_6 
REMARK    4  A    between atoms: C_6  and  C_7 
REMARK    5  A    between atoms: C_7  and  C_8 
REMARK       I    between atoms: C_8  and  N_9 
REMARK    6  A    between atoms: N_9  and  N_10 
REMARK       I    between atoms: N_10  and  C_11 
REMARK    7  A    between atoms: C_11  and  C_12 
ROOT
HETATM    1  C   UNL     1      45.806 -10.006   8.176  1.00  0.00     0.236 C 
HETATM    2  N   UNL     1      45.172 -10.583   9.249  1.00  0.00    -0.267 N 
HETATM    3  O   UNL     1      45.946  -8.789   8.053  1.00  0.00    -0.272 OA
HETATM    4  H   UNL     1      44.887 -11.563   9.282  1.00  0.00     0.190 HD
ENDROOT
BRANCH   1   5
HETATM    5  C   UNL     1      46.246 -10.965   7.097  1.00  0.00     0.114 C 
BRANCH   5   6
HETATM    6  C   UNL     1      45.126 -11.142   6.084  1.00  0.00     0.112 C 
BRANCH   6   7
HETATM    7  C   UNL     1      44.210 -12.316   6.380  1.00  0.00     0.218 C 
HETATM    8  N   UNL     1      43.463 -12.768   5.321  1.00  0.00    -0.357 N 
HETATM    9  H   UNL     1      43.759 -12.561   4.369  1.00  0.00     0.162 HD
HETATM   10  O   UNL     1      44.096 -12.765   7.518  1.00  0.00    -0.274 OA
BRANCH   8  11
HETATM   11  C   UNL     1      42.520 -13.851   5.491  1.00  0.00     0.161 C 
BRANCH  11  12
HETATM   12  C   UNL     1      42.923 -15.111   4.760  1.00  0.00    -0.038 A 
HETATM   13  C   UNL     1      42.842 -15.217   3.350  1.00  0.00     0.012 A 
HETATM   14  C   UNL     1      43.186 -16.401   2.688  1.00  0.00     0.040 A 
HETATM   15  C   UNL     1      43.583 -17.471   3.457  1.00  0.00     0.105 A 
HETATM   16  C   UNL     1      43.644 -17.393   4.827  1.00  0.00     0.105 A 
HETATM   17  O   UNL     1      43.939 -18.698   2.990  1.00  0.00    -0.323 OA
HETATM   18  C   UNL     1      43.321 -16.235   5.505  1.00  0.00     0.048 A 
HETATM   19  O   UNL     1      44.041 -18.562   5.397  1.00  0.00    -0.323 OA
HETATM   20  C   UNL     1      44.213 -19.388   4.227  1.00  0.00     0.352 A 
ENDBRANCH  11  12
ENDBRANCH   8  11
ENDBRANCH   6   7
ENDBRANCH   5   6
ENDBRANCH   1   5
BRANCH   2  21
HETATM   21  N   UNL     1      44.588  -9.733  10.195  1.00  0.00    -0.262 N 
HETATM   22  C   UNL     1      43.893 -10.277  11.253  1.00  0.00     0.286 C 
HETATM   23  O   UNL     1      43.785 -11.495  11.398  1.00  0.00    -0.264 OA
HETATM   24  H   UNL     1      44.665  -8.734  10.025  1.00  0.00     0.190 HD
BRANCH  22  25
HETATM   25  C   UNL     1      43.315  -9.326  12.175  1.00  0.00     0.103 A 
HETATM   26  N   UNL     1      42.453  -9.727  13.174  1.00  0.00    -0.351 N 
HETATM   27  H   UNL     1      42.172 -10.689  13.318  1.00  0.00     0.166 HD
HETATM   28  C   UNL     1      42.055  -8.660  13.944  1.00  0.00     0.043 A 
HETATM   29  C   UNL     1      42.665  -7.526  13.412  1.00  0.00    -0.005 A 
HETATM   30  C   UNL     1      41.213  -8.615  15.060  1.00  0.00     0.032 A 
HETATM   31  C   UNL     1      43.447  -7.953  12.301  1.00  0.00     0.049 A 
HETATM   32  C   UNL     1      42.426  -6.277  14.015  1.00  0.00     0.037 A 
HETATM   33  C   UNL     1      41.587  -6.218  15.132  1.00  0.00     0.035 A 
HETATM   34  C   UNL     1      40.990  -7.366  15.648  1.00  0.00     0.026 A 
HETATM   35 CL   UNL     1      41.291  -4.695  15.885  1.00  0.00    -0.084 Cl
ENDBRANCH  22  25
ENDBRANCH   2  21
TORSDOF 7
ENDMDL
MODEL 5
REMARK VINA RESULT:      -8.8      4.469     12.070
REMARK  7 active torsions:
REMARK  status: ('A' for Active; 'I' for Inactive)
REMARK    1  A    between atoms: C_2  and  C_3 
REMARK    2  A    between atoms: C_3  and  N_4 
REMARK       I    between atoms: N_4  and  C_5 
REMARK    3  A    between atoms: C_5  and  C_6 
REMARK    4  A    between atoms: C_6  and  C_7 
REMARK    5  A    between atoms: C_7  and  C_8 
REMARK       I    between atoms: C_8  and  N_9 
REMARK    6  A    between atoms: N_9  and  N_10 
REMARK       I    between atoms: N_10  and  C_11 
REMARK    7  A    between atoms: C_11  and  C_12 
ROOT
HETATM    1  C   UNL     1      41.323 -10.126   6.895  1.00  0.00     0.236 C 
HETATM    2  N   UNL     1      42.317 -10.309   7.826  1.00  0.00    -0.267 N 
HETATM    3  O   UNL     1      40.296  -9.487   7.126  1.00  0.00    -0.272 OA
HETATM    4  H   UNL     1      43.081 -10.977   7.718  1.00  0.00     0.190 HD
ENDROOT
BRANCH   1   5
HETATM    5  C   UNL     1      41.530 -10.843   5.584  1.00  0.00     0.114 C 
BRANCH   5   6
HETATM    6  C   UNL     1      42.889 -11.525   5.585  1.00  0.00     0.112 C 
BRANCH   6   7
HETATM    7  C   UNL     1      43.244 -12.188   4.266  1.00  0.00     0.218 C 
HETATM    8  N   UNL     1      42.547 -13.332   3.970  1.00  0.00    -0.357 N 
HETATM    9  H   UNL     1      41.651 -13.510   4.421  1.00  0.00     0.162 HD
HETATM   10  O   UNL     1      44.156 -11.760   3.563  1.00  0.00    -0.274 OA
BRANCH   8  11
HETATM   11  C   UNL     1      42.829 -14.078   2.764  1.00  0.00     0.161 C 
BRANCH  11  12
HETATM   12  C   UNL     1      43.151 -15.532   3.024  1.00  0.00    -0.038 A 
HETATM   13  C   UNL     1      43.224 -16.482   1.977  1.00  0.00     0.012 A 
HETATM   14  C   UNL     1      43.489 -17.831   2.235  1.00  0.00     0.040 A 
HETATM   15  C   UNL     1      43.652 -18.211   3.548  1.00  0.00     0.105 A 
HETATM   16  C   UNL     1      43.561 -17.306   4.578  1.00  0.00     0.105 A 
HETATM   17  O   UNL     1      43.901 -19.474   3.986  1.00  0.00    -0.323 OA
HETATM   18  C   UNL     1      43.310 -15.968   4.351  1.00  0.00     0.048 A 
HETATM   19  O   UNL     1      43.734 -17.887   5.795  1.00  0.00    -0.323 OA
HETATM   20  C   UNL     1      43.936 -19.263   5.412  1.00  0.00     0.352 A 
ENDBRANCH  11  12
ENDBRANCH   8  11
ENDBRANCH   6   7
ENDBRANCH   5   6
ENDBRANCH   1   5
BRANCH   2  21
HETATM   21  N   UNL     1      42.100  -9.815   9.117  1.00  0.00    -0.262 N 
HETATM   22  C   UNL     1      43.008 -10.104  10.111  1.00  0.00     0.286 C 
HETATM   23  O   UNL     1      44.017 -10.774   9.891  1.00  0.00    -0.264 OA
HETATM   24  H   UNL     1      41.238  -9.298   9.272  1.00  0.00     0.190 HD
BRANCH  22  25
HETATM   25  C   UNL     1      42.699  -9.562  11.416  1.00  0.00     0.103 A 
HETATM   26  N   UNL     1      43.421  -8.515  11.948  1.00  0.00    -0.351 N 
HETATM   27  H   UNL     1      44.199  -8.073  11.474  1.00  0.00     0.166 HD
HETATM   28  C   UNL     1      42.931  -8.150  13.179  1.00  0.00     0.043 A 
HETATM   29  C   UNL     1      41.868  -9.004  13.462  1.00  0.00    -0.005 A 
HETATM   30  C   UNL     1      43.343  -7.138  14.052  1.00  0.00     0.032 A 
HETATM   31  C   UNL     1      41.734  -9.889  12.354  1.00  0.00     0.049 A 
HETATM   32  C   UNL     1      41.176  -8.851  14.678  1.00  0.00     0.037 A 
HETATM   33  C   UNL     1      41.576  -7.842  15.559  1.00  0.00     0.035 A 
HETATM   34  C   UNL     1      42.641  -6.997  15.253  1.00  0.00     0.026 A 
HETATM   35 CL   UNL     1      40.733  -7.639  17.049  1.00  0.00    -0.084 Cl
ENDBRANCH  22  25
ENDBRANCH   2  21
TORSDOF 7
ENDMDL
MODEL 6
REMARK VINA RESULT:      -8.6      2.539      2.942
REMARK  7 active torsions:
REMARK  status: ('A' for Active; 'I' for Inactive)
REMARK    1  A    between atoms: C_2  and  C_3 
REMARK    2  A    between atoms: C_3  and  N_4 
REMARK       I    between atoms: N_4  and  C_5 
REMARK    3  A    between atoms: C_5  and  C_6 
REMARK    4  A    between atoms: C_6  and  C_7 
REMARK    5  A    between atoms: C_7  and  C_8 
REMARK       I    between atoms: C_8  and  N_9 
REMARK    6  A    between atoms: N_9  and  N_10 
REMARK       I    between atoms: N_10  and  C_11 
REMARK    7  A    between atoms: C_11  and  C_12 
ROOT
HETATM    1  C   UNL     1      44.409 -10.817   8.269  1.00  0.00     0.236 C 
HETATM    2  N   UNL     1      43.276 -11.485   7.872  1.00  0.00    -0.267 N 
HETATM    3  O   UNL     1      45.547 -11.208   8.007  1.00  0.00    -0.272 OA
HETATM    4  H   UNL     1      42.342 -11.281   8.228  1.00  0.00     0.190 HD
ENDROOT
BRANCH   1   5
HETATM    5  C   UNL     1      44.170  -9.605   9.135  1.00  0.00     0.114 C 
BRANCH   5   6
HETATM    6  C   UNL     1      44.621  -9.898  10.557  1.00  0.00     0.112 C 
BRANCH   6   7
HETATM    7  C   UNL     1      43.572  -9.589  11.611  1.00  0.00     0.218 C 
HETATM    8  N   UNL     1      42.509 -10.455  11.662  1.00  0.00    -0.357 N 
HETATM    9  H   UNL     1      42.601 -11.392  11.273  1.00  0.00     0.162 HD
HETATM   10  O   UNL     1      43.645  -8.579  12.306  1.00  0.00    -0.274 OA
BRANCH   8  11
HETATM   11  C   UNL     1      41.424 -10.239  12.593  1.00  0.00     0.161 C 
BRANCH  11  12
HETATM   12  C   UNL     1      40.458  -9.168  12.142  1.00  0.00    -0.038 A 
HETATM   13  C   UNL     1      39.943  -9.131  10.824  1.00  0.00     0.012 A 
HETATM   14  C   UNL     1      39.076  -8.114  10.409  1.00  0.00     0.040 A 
HETATM   15  C   UNL     1      38.759  -7.132  11.321  1.00  0.00     0.105 A 
HETATM   16  C   UNL     1      39.270  -7.139  12.595  1.00  0.00     0.105 A 
HETATM   17  O   UNL     1      37.949  -6.065  11.091  1.00  0.00    -0.323 OA
HETATM   18  C   UNL     1      40.119  -8.136  13.035  1.00  0.00     0.048 A 
HETATM   19  O   UNL     1      38.851  -6.074  13.329  1.00  0.00    -0.323 OA
HETATM   20  C   UNL     1      38.024  -5.391  12.364  1.00  0.00     0.352 A 
ENDBRANCH  11  12
ENDBRANCH   8  11
ENDBRANCH   6   7
ENDBRANCH   5   6
ENDBRANCH   1   5
BRANCH   2  21
HETATM   21  N   UNL     1      43.439 -12.710   7.216  1.00  0.00    -0.262 N 
HETATM   22  C   UNL     1      42.776 -12.932   6.029  1.00  0.00     0.286 C 
HETATM   23  O   UNL     1      42.054 -12.075   5.520  1.00  0.00    -0.264 OA
HETATM   24  H   UNL     1      44.012 -13.409   7.681  1.00  0.00     0.190 HD
BRANCH  22  25
HETATM   25  C   UNL     1      42.994 -14.228   5.425  1.00  0.00     0.103 A 
HETATM   26  N   UNL     1      43.462 -15.294   6.163  1.00  0.00    -0.351 N 
HETATM   27  H   UNL     1      43.683 -15.239   7.150  1.00  0.00     0.166 HD
HETATM   28  C   UNL     1      43.562 -16.427   5.391  1.00  0.00     0.043 A 
HETATM   29  C   UNL     1      43.164 -16.075   4.102  1.00  0.00    -0.005 A 
HETATM   30  C   UNL     1      43.968 -17.721   5.732  1.00  0.00     0.032 A 
HETATM   31  C   UNL     1      42.816 -14.695   4.133  1.00  0.00     0.049 A 
HETATM   32  C   UNL     1      43.171 -17.058   3.095  1.00  0.00     0.037 A 
HETATM   33  C   UNL     1      43.572 -18.357   3.423  1.00  0.00     0.035 A 
HETATM   34  C   UNL     1      43.964 -18.686   4.719  1.00  0.00     0.026 A 
HETATM   35 CL   UNL     1      43.580 -19.572   2.200  1.00  0.00    -0.084 Cl
ENDBRANCH  22  25
ENDBRANCH   2  21
TORSDOF 7
ENDMDL
MODEL 7
REMARK VINA RESULT:      -8.5      3.698      5.400
REMARK  7 active torsions:
REMARK  status: ('A' for Active; 'I' for Inactive)
REMARK    1  A    between atoms: C_2  and  C_3 
REMARK    2  A    between atoms: C_3  and  N_4 
REMARK       I    between atoms: N_4  and  C_5 
REMARK    3  A    between atoms: C_5  and  C_6 
REMARK    4  A    between atoms: C_6  and  C_7 
REMARK    5  A    between atoms: C_7  and  C_8 
REMARK       I    between atoms: C_8  and  N_9 
REMARK    6  A    between atoms: N_9  and  N_10 
REMARK       I    between atoms: N_10  and  C_11 
REMARK    7  A    between atoms: C_11  and  C_12 
ROOT
HETATM    1  C   UNL     1      40.053 -11.143   4.717  1.00  0.00     0.236 C 
HETATM    2  N   UNL     1      41.378 -11.400   4.464  1.00  0.00    -0.267 N 
HETATM    3  O   UNL     1      39.179 -12.010   4.676  1.00  0.00    -0.272 OA
HETATM    4  H   UNL     1      42.080 -10.675   4.315  1.00  0.00     0.190 HD
ENDROOT
BRANCH   1   5
HETATM    5  C   UNL     1      39.715  -9.693   4.965  1.00  0.00     0.114 C 
BRANCH   5   6
HETATM    6  C   UNL     1      38.653  -9.595   6.048  1.00  0.00     0.112 C 
BRANCH   6   7
HETATM    7  C   UNL     1      39.213  -9.594   7.460  1.00  0.00     0.218 C 
HETATM    8  N   UNL     1      40.230  -8.703   7.694  1.00  0.00    -0.357 N 
HETATM    9  H   UNL     1      40.347  -7.896   7.083  1.00  0.00     0.162 HD
HETATM   10  O   UNL     1      38.825 -10.402   8.300  1.00  0.00    -0.274 OA
BRANCH   8  11
HETATM   11  C   UNL     1      40.876  -8.642   8.986  1.00  0.00     0.161 C 
BRANCH  11  12
HETATM   12  C   UNL     1      42.267  -9.230   8.986  1.00  0.00    -0.038 A 
HETATM   13  C   UNL     1      43.080  -9.231  10.145  1.00  0.00     0.012 A 
HETATM   14  C   UNL     1      44.380  -9.748  10.122  1.00  0.00     0.040 A 
HETATM   15  C   UNL     1      44.853 -10.236   8.925  1.00  0.00     0.105 A 
HETATM   16  C   UNL     1      44.086 -10.221   7.785  1.00  0.00     0.105 A 
HETATM   17  O   UNL     1      46.090 -10.761   8.712  1.00  0.00    -0.323 OA
HETATM   18  C   UNL     1      42.798  -9.726   7.781  1.00  0.00     0.048 A 
HETATM   19  O   UNL     1      44.745 -10.729   6.709  1.00  0.00    -0.323 OA
HETATM   20  C   UNL     1      46.018 -11.057   7.303  1.00  0.00     0.352 A 
ENDBRANCH  11  12
ENDBRANCH   8  11
ENDBRANCH   6   7
ENDBRANCH   5   6
ENDBRANCH   1   5
BRANCH   2  21
HETATM   21  N   UNL     1      41.724 -12.694   4.056  1.00  0.00    -0.262 N 
HETATM   22  C   UNL     1      42.351 -13.536   4.947  1.00  0.00     0.286 C 
HETATM   23  O   UNL     1      42.603 -13.188   6.100  1.00  0.00    -0.264 OA
HETATM   24  H   UNL     1      41.535 -12.936   3.087  1.00  0.00     0.190 HD
BRANCH  22  25
HETATM   25  C   UNL     1      42.680 -14.849   4.439  1.00  0.00     0.103 A 
HETATM   26  N   UNL     1      43.364 -15.766   5.208  1.00  0.00    -0.351 N 
HETATM   27  H   UNL     1      43.677 -15.582   6.153  1.00  0.00     0.166 HD
HETATM   28  C   UNL     1      43.538 -16.950   4.531  1.00  0.00     0.043 A 
HETATM   29  C   UNL     1      42.964 -16.786   3.272  1.00  0.00    -0.005 A 
HETATM   30  C   UNL     1      44.151 -18.141   4.936  1.00  0.00     0.032 A 
HETATM   31  C   UNL     1      42.435 -15.465   3.222  1.00  0.00     0.049 A 
HETATM   32  C   UNL     1      43.002 -17.858   2.361  1.00  0.00     0.037 A 
HETATM   33  C   UNL     1      43.609 -19.054   2.753  1.00  0.00     0.035 A 
HETATM   34  C   UNL     1      44.175 -19.197   4.018  1.00  0.00     0.026 A 
HETATM   35 CL   UNL     1      43.657 -20.378   1.649  1.00  0.00    -0.084 Cl
ENDBRANCH  22  25
ENDBRANCH   2  21
TORSDOF 7
ENDMDL
MODEL 8
REMARK VINA RESULT:      -8.5      1.503      1.582
REMARK  7 active torsions:
REMARK  status: ('A' for Active; 'I' for Inactive)
REMARK    1  A    between atoms: C_2  and  C_3 
REMARK    2  A    between atoms: C_3  and  N_4 
REMARK       I    between atoms: N_4  and  C_5 
REMARK    3  A    between atoms: C_5  and  C_6 
REMARK    4  A    between atoms: C_6  and  C_7 
REMARK    5  A    between atoms: C_7  and  C_8 
REMARK       I    between atoms: C_8  and  N_9 
REMARK    6  A    between atoms: N_9  and  N_10 
REMARK       I    between atoms: N_10  and  C_11 
REMARK    7  A    between atoms: C_11  and  C_12 
ROOT
HETATM    1  C   UNL     1      44.226 -10.699   7.951  1.00  0.00     0.236 C 
HETATM    2  N   UNL     1      43.802 -10.790   6.647  1.00  0.00    -0.267 N 
HETATM    3  O   UNL     1      44.737 -11.641   8.559  1.00  0.00    -0.272 OA
HETATM    4  H   UNL     1      43.219 -10.089   6.189  1.00  0.00     0.190 HD
ENDROOT
BRANCH   1   5
HETATM    5  C   UNL     1      43.942  -9.383   8.630  1.00  0.00     0.114 C 
BRANCH   5   6
HETATM    6  C   UNL     1      42.442  -9.134   8.652  1.00  0.00     0.112 C 
BRANCH   6   7
HETATM    7  C   UNL     1      41.781  -9.482   9.974  1.00  0.00     0.218 C 
HETATM    8  N   UNL     1      42.633  -9.658  11.035  1.00  0.00    -0.357 N 
HETATM    9  H   UNL     1      43.567  -9.253  11.007  1.00  0.00     0.162 HD
HETATM   10  O   UNL     1      40.570  -9.671  10.050  1.00  0.00    -0.274 OA
BRANCH   8  11
HETATM   11  C   UNL     1      42.126 -10.037  12.335  1.00  0.00     0.161 C 
BRANCH  11  12
HETATM   12  C   UNL     1      42.246  -8.938  13.364  1.00  0.00    -0.038 A 
HETATM   13  C   UNL     1      43.221  -7.917  13.259  1.00  0.00     0.012 A 
HETATM   14  C   UNL     1      43.344  -6.924  14.237  1.00  0.00     0.040 A 
HETATM   15  C   UNL     1      42.500  -6.987  15.322  1.00  0.00     0.105 A 
HETATM   16  C   UNL     1      41.565  -7.985  15.452  1.00  0.00     0.105 A 
HETATM   17  O   UNL     1      42.485  -6.121  16.371  1.00  0.00    -0.323 OA
HETATM   18  C   UNL     1      41.414  -8.971  14.498  1.00  0.00     0.048 A 
HETATM   19  O   UNL     1      40.846  -7.877  16.602  1.00  0.00    -0.323 OA
HETATM   20  C   UNL     1      41.445  -6.701  17.184  1.00  0.00     0.352 A 
ENDBRANCH  11  12
ENDBRANCH   8  11
ENDBRANCH   6   7
ENDBRANCH   5   6
ENDBRANCH   1   5
BRANCH   2  21
HETATM   21  N   UNL     1      43.880 -12.040   6.022  1.00  0.00    -0.262 N 
HETATM   22  C   UNL     1      42.743 -12.809   5.910  1.00  0.00     0.286 C 
HETATM   23  O   UNL     1      41.654 -12.420   6.331  1.00  0.00    -0.264 OA
HETATM   24  H   UNL     1      44.801 -12.346   5.719  1.00  0.00     0.190 HD
BRANCH  22  25
HETATM   25  C   UNL     1      42.917 -14.089   5.260  1.00  0.00     0.103 A 
HETATM   26  N   UNL     1      42.563 -14.279   3.941  1.00  0.00    -0.351 N 
HETATM   27  H   UNL     1      42.161 -13.554   3.359  1.00  0.00     0.166 HD
HETATM   28  C   UNL     1      42.845 -15.560   3.531  1.00  0.00     0.043 A 
HETATM   29  C   UNL     1      43.383 -16.228   4.629  1.00  0.00    -0.005 A 
HETATM   30  C   UNL     1      42.669 -16.170   2.285  1.00  0.00     0.032 A 
HETATM   31  C   UNL     1      43.418 -15.300   5.709  1.00  0.00     0.049 A 
HETATM   32  C   UNL     1      43.765 -17.575   4.487  1.00  0.00     0.037 A 
HETATM   33  C   UNL     1      43.597 -18.196   3.246  1.00  0.00     0.035 A 
HETATM   34  C   UNL     1      43.059 -17.508   2.161  1.00  0.00     0.026 A 
HETATM   35 CL   UNL     1      44.066 -19.844   3.056  1.00  0.00    -0.084 Cl
ENDBRANCH  22  25
ENDBRANCH   2  21
TORSDOF 7
ENDMDL
MODEL 9
REMARK VINA RESULT:      -8.5      5.313      8.744
REMARK  7 active torsions:
REMARK  status: ('A' for Active; 'I' for Inactive)
REMARK    1  A    between atoms: C_2  and  C_3 
REMARK    2  A    between atoms: C_3  and  N_4 
REMARK       I    between atoms: N_4  and  C_5 
REMARK    3  A    between atoms: C_5  and  C_6 
REMARK    4  A    between atoms: C_6  and  C_7 
REMARK    5  A    between atoms: C_7  and  C_8 
REMARK       I    between atoms: C_8  and  N_9 
REMARK    6  A    between atoms: N_9  and  N_10 
REMARK       I    between atoms: N_10  and  C_11 
REMARK    7  A    between atoms: C_11  and  C_12 
ROOT
HETATM    1  C   UNL     1      42.176 -11.171   5.888  1.00  0.00     0.236 C 
HETATM    2  N   UNL     1      41.657 -12.335   6.402  1.00  0.00    -0.267 N 
HETATM    3  O   UNL     1      42.799 -11.125   4.826  1.00  0.00    -0.272 OA
HETATM    4  H   UNL     1      41.301 -12.426   7.354  1.00  0.00     0.190 HD
ENDROOT
BRANCH   1   5
HETATM    5  C   UNL     1      42.011  -9.952   6.761  1.00  0.00     0.114 C 
BRANCH   5   6
HETATM    6  C   UNL     1      41.041  -8.983   6.104  1.00  0.00     0.112 C 
BRANCH   6   7
HETATM    7  C   UNL     1      39.842  -9.656   5.459  1.00  0.00     0.218 C 
HETATM    8  N   UNL     1      39.914  -9.822   4.099  1.00  0.00    -0.357 N 
HETATM    9  H   UNL     1      40.822  -9.812   3.636  1.00  0.00     0.162 HD
HETATM   10  O   UNL     1      38.847  -9.951   6.116  1.00  0.00    -0.274 OA
BRANCH   8  11
HETATM   11  C   UNL     1      38.814 -10.409   3.367  1.00  0.00     0.161 C 
BRANCH  11  12
HETATM   12  C   UNL     1      39.227 -11.587   2.516  1.00  0.00    -0.038 A 
HETATM   13  C   UNL     1      39.414 -11.472   1.117  1.00  0.00     0.012 A 
HETATM   14  C   UNL     1      39.763 -12.579   0.335  1.00  0.00     0.040 A 
HETATM   15  C   UNL     1      39.895 -13.793   0.969  1.00  0.00     0.105 A 
HETATM   16  C   UNL     1      39.694 -13.927   2.321  1.00  0.00     0.105 A 
HETATM   17  O   UNL     1      40.213 -14.973   0.371  1.00  0.00    -0.323 OA
HETATM   18  C   UNL     1      39.359 -12.851   3.118  1.00  0.00     0.048 A 
HETATM   19  O   UNL     1      39.854 -15.209   2.746  1.00  0.00    -0.323 OA
HETATM   20  C   UNL     1      40.171 -15.868   1.501  1.00  0.00     0.352 A 
ENDBRANCH  11  12
ENDBRANCH   8  11
ENDBRANCH   6   7
ENDBRANCH   5   6
ENDBRANCH   1   5
BRANCH   2  21
HETATM   21  N   UNL     1      41.931 -13.527   5.723  1.00  0.00    -0.262 N 
HETATM   22  C   UNL     1      42.879 -14.388   6.229  1.00  0.00     0.286 C 
HETATM   23  O   UNL     1      43.483 -14.145   7.273  1.00  0.00    -0.264 OA
HETATM   24  H   UNL     1      41.442 -13.679   4.844  1.00  0.00     0.190 HD
BRANCH  22  25
HETATM   25  C   UNL     1      43.106 -15.590   5.458  1.00  0.00     0.103 A 
HETATM   26  N   UNL     1      43.513 -16.762   6.058  1.00  0.00    -0.351 N 
HETATM   27  H   UNL     1      43.682 -16.854   7.052  1.00  0.00     0.166 HD
HETATM   28  C   UNL     1      43.635 -17.775   5.137  1.00  0.00     0.043 A 
HETATM   29  C   UNL     1      43.314 -17.234   3.893  1.00  0.00    -0.005 A 
HETATM   30  C   UNL     1      43.998 -19.115   5.309  1.00  0.00     0.032 A 
HETATM   31  C   UNL     1      42.990 -15.863   4.104  1.00  0.00     0.049 A 
HETATM   32  C   UNL     1      43.358 -18.063   2.757  1.00  0.00     0.037 A 
HETATM   33  C   UNL     1      43.718 -19.405   2.915  1.00  0.00     0.035 A 
HETATM   34  C   UNL     1      44.032 -19.925   4.169  1.00  0.00     0.026 A 
HETATM   35 CL   UNL     1      43.769 -20.433   1.533  1.00  0.00    -0.084 Cl
ENDBRANCH  22  25
ENDBRANCH   2  21
TORSDOF 7
ENDMDL
MODEL 10
REMARK VINA RESULT:      -8.4      4.388     12.123
REMARK  7 active torsions:
REMARK  status: ('A' for Active; 'I' for Inactive)
REMARK    1  A    between atoms: C_2  and  C_3 
REMARK    2  A    between atoms: C_3  and  N_4 
REMARK       I    between atoms: N_4  and  C_5 
REMARK    3  A    between atoms: C_5  and  C_6 
REMARK    4  A    between atoms: C_6  and  C_7 
REMARK    5  A    between atoms: C_7  and  C_8 
REMARK       I    between atoms: C_8  and  N_9 
REMARK    6  A    between atoms: N_9  and  N_10 
REMARK       I    between atoms: N_10  and  C_11 
REMARK    7  A    between atoms: C_11  and  C_12 
ROOT
HETATM    1  C   UNL     1      44.447 -10.857   8.583  1.00  0.00     0.236 C 
HETATM    2  N   UNL     1      43.137 -10.587   8.896  1.00  0.00    -0.267 N 
HETATM    3  O   UNL     1      45.367 -10.755   9.396  1.00  0.00    -0.272 OA
HETATM    4  H   UNL     1      42.395 -10.490   8.202  1.00  0.00     0.190 HD
ENDROOT
BRANCH   1   5
HETATM    5  C   UNL     1      44.705 -11.204   7.138  1.00  0.00     0.114 C 
BRANCH   5   6
HETATM    6  C   UNL     1      43.434 -11.756   6.512  1.00  0.00     0.112 C 
BRANCH   6   7
HETATM    7  C   UNL     1      43.311 -13.267   6.603  1.00  0.00     0.218 C 
HETATM    8  N   UNL     1      42.032 -13.763   6.549  1.00  0.00    -0.357 N 
HETATM    9  H   UNL     1      41.288 -13.200   6.140  1.00  0.00     0.162 HD
HETATM   10  O   UNL     1      44.295 -13.976   6.796  1.00  0.00    -0.274 OA
BRANCH   8  11
HETATM   11  C   UNL     1      41.784 -15.182   6.673  1.00  0.00     0.161 C 
BRANCH  11  12
HETATM   12  C   UNL     1      42.096 -15.952   5.411  1.00  0.00    -0.038 A 
HETATM   13  C   UNL     1      41.335 -15.791   4.228  1.00  0.00     0.012 A 
HETATM   14  C   UNL     1      41.613 -16.536   3.077  1.00  0.00     0.040 A 
HETATM   15  C   UNL     1      42.638 -17.453   3.140  1.00  0.00     0.105 A 
HETATM   16  C   UNL     1      43.370 -17.639   4.287  1.00  0.00     0.105 A 
HETATM   17  O   UNL     1      43.039 -18.270   2.129  1.00  0.00    -0.323 OA
HETATM   18  C   UNL     1      43.125 -16.911   5.434  1.00  0.00     0.048 A 
HETATM   19  O   UNL     1      44.321 -18.601   4.146  1.00  0.00    -0.323 OA
HETATM   20  C   UNL     1      44.095 -19.005   2.779  1.00  0.00     0.352 A 
ENDBRANCH  11  12
ENDBRANCH   8  11
ENDBRANCH   6   7
ENDBRANCH   5   6
ENDBRANCH   1   5
BRANCH   2  21
HETATM   21  N   UNL     1      42.861 -10.091  10.175  1.00  0.00    -0.262 N 
HETATM   22  C   UNL     1      41.722  -9.343  10.377  1.00  0.00     0.286 C 
HETATM   23  O   UNL     1      40.930  -9.111   9.464  1.00  0.00    -0.264 OA
HETATM   24  H   UNL     1      43.555 -10.269  10.897  1.00  0.00     0.190 HD
BRANCH  22  25
HETATM   25  C   UNL     1      41.522  -8.862  11.725  1.00  0.00     0.103 A 
HETATM   26  N   UNL     1      40.650  -7.830  11.998  1.00  0.00    -0.351 N 
HETATM   27  H   UNL     1      40.111  -7.350  11.288  1.00  0.00     0.166 HD
HETATM   28  C   UNL     1      40.600  -7.565  13.345  1.00  0.00     0.043 A 
HETATM   29  C   UNL     1      41.486  -8.443  13.965  1.00  0.00    -0.005 A 
HETATM   30  C   UNL     1      39.843  -6.626  14.055  1.00  0.00     0.032 A 
HETATM   31  C   UNL     1      42.063  -9.247  12.941  1.00  0.00     0.049 A 
HETATM   32  C   UNL     1      41.636  -8.388  15.363  1.00  0.00     0.037 A 
HETATM   33  C   UNL     1      40.884  -7.456  16.085  1.00  0.00     0.035 A 
HETATM   34  C   UNL     1      40.001  -6.589  15.444  1.00  0.00     0.026 A 
HETATM   35 CL   UNL     1      41.052  -7.381  17.799  1.00  0.00    -0.084 Cl
ENDBRANCH  22  25
ENDBRANCH   2  21
TORSDOF 7
ENDMDL
