MODEL 1
REMARK VINA RESULT:      -8.7      0.000      0.000
REMARK  7 active torsions:
REMARK  status: ('A' for Active; 'I' for Inactive)
REMARK    1  A    between atoms: O_2  and  C_3 
REMARK    2  A    between atoms: N_9  and  N_10 
REMARK       I    between atoms: N_10  and  C_11 
REMARK    3  A    between atoms: C_11  and  C_12 
REMARK    4  A    between atoms: C_12  and  C_13 
REMARK    5  A    between atoms: C_13  and  C_14 
REMARK    6  A    between atoms: C_14  and  N_15 
REMARK       I    between atoms: N_15  and  C_16 
REMARK    7  A    between atoms: C_16  and  C_17 
ROOT
HETATM    1  N   UNL     1      42.185 -11.589   3.037  1.00  0.00    -0.246 N 
HETATM    2  C   UNL     1      43.319 -11.829   3.800  1.00  0.00     0.237 C 
HETATM    3  O   UNL     1      44.452 -11.421   3.561  1.00  0.00    -0.272 OA
HETATM    4  H   UNL     1      41.272 -11.779   3.433  1.00  0.00     0.192 HD
ENDROOT
BRANCH   1   5
HETATM    5  N   UNL     1      42.262 -10.771   1.953  1.00  0.00    -0.166 NA
HETATM    6  C   UNL     1      41.685 -11.121   0.848  1.00  0.00     0.157 A 
HETATM    7  C   UNL     1      41.001 -12.346   0.407  1.00  0.00     0.029 A 
HETATM    8  C   UNL     1      41.642 -10.164  -0.363  1.00  0.00     0.277 A 
HETATM    9  C   UNL     1      40.782 -13.573   1.005  1.00  0.00     0.053 A 
HETATM   10  C   UNL     1      40.581 -12.107  -0.903  1.00  0.00     0.048 A 
HETATM   11  C   UNL     1      40.078 -14.548   0.285  1.00  0.00     0.069 A 
HETATM   12  C   UNL     1      39.647 -14.291  -1.030  1.00  0.00     0.039 A 
HETATM   13  C   UNL     1      39.906 -13.058  -1.640  1.00  0.00     0.033 A 
HETATM   14  N   UNL     1      40.951 -10.843  -1.341  1.00  0.00    -0.321 N 
HETATM   15  H   UNL     1      40.778 -10.449  -2.253  1.00  0.00     0.169 HD
HETATM   16  O   UNL     1      42.107  -9.048  -0.428  1.00  0.00    -0.266 OA
BRANCH  11  17
HETATM   17  O   UNL     1      39.887 -15.719   0.968  1.00  0.00    -0.356 OA
HETATM   18  C   UNL     1      39.981 -15.660   2.386  1.00  0.00     0.210 C 
ENDBRANCH  11  17
ENDBRANCH   1   5
BRANCH   2  19
HETATM   19  C   UNL     1      43.041 -12.705   5.002  1.00  0.00     0.106 C 
BRANCH  19  20
HETATM   20  C   UNL     1      42.039 -13.803   4.670  1.00  0.00     0.029 C 
BRANCH  20  21
HETATM   21  C   UNL     1      42.125 -14.929   5.697  1.00  0.00     0.123 C 
BRANCH  21  22
HETATM   22  N   UNL     1      42.352 -16.216   5.079  1.00  0.00    -0.357 N 
HETATM   23  C   UNL     1      43.560 -16.870   5.155  1.00  0.00     0.253 C 
HETATM   24  O   UNL     1      44.517 -16.392   5.761  1.00  0.00    -0.268 OA
HETATM   25  H   UNL     1      41.607 -16.612   4.518  1.00  0.00     0.162 HD
BRANCH  23  26
HETATM   26  C   UNL     1      43.680 -18.220   4.514  1.00  0.00     0.053 A 
HETATM   27  C   UNL     1      43.578 -18.500   3.142  1.00  0.00     0.049 A 
HETATM   28 CL   UNL     1      43.347 -17.304   1.914  1.00  0.00    -0.083 Cl
HETATM   29  C   UNL     1      43.689 -19.823   2.684  1.00  0.00     0.025 A 
HETATM   30  C   UNL     1      43.909 -20.872   3.576  1.00  0.00     0.002 A 
HETATM   31  C   UNL     1      44.025 -20.606   4.935  1.00  0.00     0.001 A 
HETATM   32  C   UNL     1      43.912 -19.293   5.398  1.00  0.00     0.019 A 
ENDBRANCH  23  26
ENDBRANCH  21  22
ENDBRANCH  20  21
ENDBRANCH  19  20
ENDBRANCH   2  19
TORSDOF 7
ENDMDL
MODEL 2
REMARK VINA RESULT:      -8.3      4.928      7.974
REMARK  7 active torsions:
REMARK  status: ('A' for Active; 'I' for Inactive)
REMARK    1  A    between atoms: O_2  and  C_3 
REMARK    2  A    between atoms: N_9  and  N_10 
REMARK       I    between atoms: N_10  and  C_11 
REMARK    3  A    between atoms: C_11  and  C_12 
REMARK    4  A    between atoms: C_12  and  C_13 
REMARK    5  A    between atoms: C_13  and  C_14 
REMARK    6  A    between atoms: C_14  and  N_15 
REMARK       I    between atoms: N_15  and  C_16 
REMARK    7  A    between atoms: C_16  and  C_17 
ROOT
HETATM    1  N   UNL     1      42.320 -12.263   4.441  1.00  0.00    -0.246 N 
HETATM    2  C   UNL     1      43.520 -11.671   4.808  1.00  0.00     0.237 C 
HETATM    3  O   UNL     1      44.409 -11.303   4.046  1.00  0.00    -0.272 OA
HETATM    4  H   UNL     1      41.570 -12.325   5.119  1.00  0.00     0.192 HD
ENDROOT
BRANCH   1   5
HETATM    5  N   UNL     1      42.015 -12.406   3.123  1.00  0.00    -0.166 NA
HETATM    6  C   UNL     1      42.103 -13.574   2.571  1.00  0.00     0.157 A 
HETATM    7  C   UNL     1      42.605 -14.877   3.033  1.00  0.00     0.029 A 
HETATM    8  C   UNL     1      41.644 -13.801   1.114  1.00  0.00     0.277 A 
HETATM    9  C   UNL     1      43.206 -15.296   4.206  1.00  0.00     0.053 A 
HETATM   10  C   UNL     1      42.423 -15.764   1.970  1.00  0.00     0.048 A 
HETATM   11  C   UNL     1      43.574 -16.644   4.320  1.00  0.00     0.069 A 
HETATM   12  C   UNL     1      43.373 -17.531   3.247  1.00  0.00     0.039 A 
HETATM   13  C   UNL     1      42.796 -17.090   2.051  1.00  0.00     0.033 A 
HETATM   14  N   UNL     1      41.864 -15.137   0.865  1.00  0.00    -0.321 N 
HETATM   15  H   UNL     1      41.655 -15.562  -0.025  1.00  0.00     0.169 HD
HETATM   16  O   UNL     1      41.177 -12.977   0.359  1.00  0.00    -0.266 OA
BRANCH  11  17
HETATM   17  O   UNL     1      44.137 -16.970   5.525  1.00  0.00    -0.356 OA
HETATM   18  C   UNL     1      44.197 -15.942   6.507  1.00  0.00     0.210 C 
ENDBRANCH  11  17
ENDBRANCH   1   5
BRANCH   2  19
HETATM   19  C   UNL     1      43.669 -11.533   6.307  1.00  0.00     0.106 C 
BRANCH  19  20
HETATM   20  C   UNL     1      45.040 -11.999   6.776  1.00  0.00     0.029 C 
BRANCH  20  21
HETATM   21  C   UNL     1      45.752 -10.882   7.535  1.00  0.00     0.123 C 
BRANCH  21  22
HETATM   22  N   UNL     1      44.915 -10.297   8.559  1.00  0.00    -0.357 N 
HETATM   23  C   UNL     1      44.935  -8.953   8.850  1.00  0.00     0.253 C 
HETATM   24  O   UNL     1      45.668  -8.171   8.248  1.00  0.00    -0.268 OA
HETATM   25  H   UNL     1      44.345 -10.920   9.119  1.00  0.00     0.162 HD
BRANCH  23  26
HETATM   26  C   UNL     1      44.000  -8.440   9.903  1.00  0.00     0.053 A 
HETATM   27  C   UNL     1      43.000  -7.469   9.726  1.00  0.00     0.049 A 
HETATM   28 CL   UNL     1      42.626  -6.717   8.213  1.00  0.00    -0.083 Cl
HETATM   29  C   UNL     1      42.210  -7.066  10.814  1.00  0.00     0.025 A 
HETATM   30  C   UNL     1      42.396  -7.624  12.078  1.00  0.00     0.002 A 
HETATM   31  C   UNL     1      43.372  -8.595  12.264  1.00  0.00     0.001 A 
HETATM   32  C   UNL     1      44.165  -8.999  11.187  1.00  0.00     0.019 A 
ENDBRANCH  23  26
ENDBRANCH  21  22
ENDBRANCH  20  21
ENDBRANCH  19  20
ENDBRANCH   2  19
TORSDOF 7
ENDMDL
MODEL 3
REMARK VINA RESULT:      -8.2      3.994      7.065
REMARK  7 active torsions:
REMARK  status: ('A' for Active; 'I' for Inactive)
REMARK    1  A    between atoms: O_2  and  C_3 
REMARK    2  A    between atoms: N_9  and  N_10 
REMARK       I    between atoms: N_10  and  C_11 
REMARK    3  A    between atoms: C_11  and  C_12 
REMARK    4  A    between atoms: C_12  and  C_13 
REMARK    5  A    between atoms: C_13  and  C_14 
REMARK    6  A    between atoms: C_14  and  N_15 
REMARK       I    between atoms: N_15  and  C_16 
REMARK    7  A    between atoms: C_16  and  C_17 
ROOT
HETATM    1  N   UNL     1      42.708 -12.364   6.244  1.00  0.00    -0.246 N 
HETATM    2  C   UNL     1      41.667 -11.652   5.667  1.00  0.00     0.237 C 
HETATM    3  O   UNL     1      41.778 -10.681   4.924  1.00  0.00    -0.272 OA
HETATM    4  H   UNL     1      42.521 -13.271   6.654  1.00  0.00     0.192 HD
ENDROOT
BRANCH   1   5
HETATM    5  N   UNL     1      43.995 -12.046   5.936  1.00  0.00    -0.166 NA
HETATM    6  C   UNL     1      44.704 -11.368   6.781  1.00  0.00     0.157 A 
HETATM    7  C   UNL     1      44.397 -10.703   8.057  1.00  0.00     0.029 A 
HETATM    8  C   UNL     1      46.203 -11.098   6.523  1.00  0.00     0.277 A 
HETATM    9  C   UNL     1      43.228 -10.527   8.773  1.00  0.00     0.053 A 
HETATM   10  C   UNL     1      45.596 -10.141   8.501  1.00  0.00     0.048 A 
HETATM   11  C   UNL     1      43.288  -9.821   9.983  1.00  0.00     0.069 A 
HETATM   12  C   UNL     1      44.505  -9.271  10.427  1.00  0.00     0.039 A 
HETATM   13  C   UNL     1      45.677  -9.424   9.677  1.00  0.00     0.033 A 
HETATM   14  N   UNL     1      46.636 -10.376   7.612  1.00  0.00    -0.321 N 
HETATM   15  H   UNL     1      47.588 -10.056   7.704  1.00  0.00     0.169 HD
HETATM   16  O   UNL     1      46.856 -11.460   5.571  1.00  0.00    -0.266 OA
BRANCH  11  17
HETATM   17  O   UNL     1      42.087  -9.721  10.633  1.00  0.00    -0.356 OA
HETATM   18  C   UNL     1      42.104  -9.891  12.045  1.00  0.00     0.210 C 
ENDBRANCH  11  17
ENDBRANCH   1   5
BRANCH   2  19
HETATM   19  C   UNL     1      40.306 -12.178   6.067  1.00  0.00     0.106 C 
BRANCH  19  20
HETATM   20  C   UNL     1      40.210 -13.685   5.864  1.00  0.00     0.029 C 
BRANCH  20  21
HETATM   21  C   UNL     1      40.311 -14.029   4.380  1.00  0.00     0.123 C 
BRANCH  21  22
HETATM   22  N   UNL     1      40.987 -15.287   4.155  1.00  0.00    -0.357 N 
HETATM   23  C   UNL     1      42.325 -15.362   3.847  1.00  0.00     0.253 C 
HETATM   24  O   UNL     1      43.025 -14.356   3.751  1.00  0.00    -0.268 OA
HETATM   25  H   UNL     1      40.429 -16.133   4.162  1.00  0.00     0.162 HD
BRANCH  23  26
HETATM   26  C   UNL     1      42.939 -16.718   3.671  1.00  0.00     0.053 A 
HETATM   27  C   UNL     1      43.875 -17.325   4.526  1.00  0.00     0.049 A 
HETATM   28 CL   UNL     1      44.455 -16.622   5.996  1.00  0.00    -0.083 Cl
HETATM   29  C   UNL     1      44.385 -18.597   4.221  1.00  0.00     0.025 A 
HETATM   30  C   UNL     1      43.968 -19.279   3.079  1.00  0.00     0.002 A 
HETATM   31  C   UNL     1      43.034 -18.696   2.232  1.00  0.00     0.001 A 
HETATM   32  C   UNL     1      42.525 -17.429   2.527  1.00  0.00     0.019 A 
ENDBRANCH  23  26
ENDBRANCH  21  22
ENDBRANCH  20  21
ENDBRANCH  19  20
ENDBRANCH   2  19
TORSDOF 7
ENDMDL
MODEL 4
REMARK VINA RESULT:      -8.1      3.796      7.676
REMARK  7 active torsions:
REMARK  status: ('A' for Active; 'I' for Inactive)
REMARK    1  A    between atoms: O_2  and  C_3 
REMARK    2  A    between atoms: N_9  and  N_10 
REMARK       I    between atoms: N_10  and  C_11 
REMARK    3  A    between atoms: C_11  and  C_12 
REMARK    4  A    between atoms: C_12  and  C_13 
REMARK    5  A    between atoms: C_13  and  C_14 
REMARK    6  A    between atoms: C_14  and  N_15 
REMARK       I    between atoms: N_15  and  C_16 
REMARK    7  A    between atoms: C_16  and  C_17 
ROOT
HETATM    1  N   UNL     1      41.718 -13.735   6.185  1.00  0.00    -0.246 N 
HETATM    2  C   UNL     1      40.331 -13.726   6.210  1.00  0.00     0.237 C 
HETATM    3  O   UNL     1      39.610 -14.596   6.691  1.00  0.00    -0.272 OA
HETATM    4  H   UNL     1      42.215 -12.880   5.968  1.00  0.00     0.192 HD
ENDROOT
BRANCH   1   5
HETATM    5  N   UNL     1      42.398 -14.740   6.801  1.00  0.00    -0.166 NA
HETATM    6  C   UNL     1      42.881 -15.710   6.093  1.00  0.00     0.157 A 
HETATM    7  C   UNL     1      42.768 -16.084   4.675  1.00  0.00     0.029 A 
HETATM    8  C   UNL     1      43.764 -16.800   6.739  1.00  0.00     0.277 A 
HETATM    9  C   UNL     1      42.063 -15.552   3.612  1.00  0.00     0.053 A 
HETATM   10  C   UNL     1      43.532 -17.242   4.516  1.00  0.00     0.048 A 
HETATM   11  C   UNL     1      42.179 -16.172   2.360  1.00  0.00     0.069 A 
HETATM   12  C   UNL     1      42.963 -17.330   2.208  1.00  0.00     0.039 A 
HETATM   13  C   UNL     1      43.645 -17.882   3.299  1.00  0.00     0.033 A 
HETATM   14  N   UNL     1      44.108 -17.648   5.711  1.00  0.00    -0.321 N 
HETATM   15  H   UNL     1      44.685 -18.463   5.853  1.00  0.00     0.169 HD
HETATM   16  O   UNL     1      44.095 -16.878   7.902  1.00  0.00    -0.266 OA
BRANCH  11  17
HETATM   17  O   UNL     1      41.466 -15.559   1.364  1.00  0.00    -0.356 OA
HETATM   18  C   UNL     1      40.049 -15.575   1.484  1.00  0.00     0.210 C 
ENDBRANCH  11  17
ENDBRANCH   1   5
BRANCH   2  19
HETATM   19  C   UNL     1      39.742 -12.508   5.535  1.00  0.00     0.106 C 
BRANCH  19  20
HETATM   20  C   UNL     1      39.332 -11.451   6.553  1.00  0.00     0.029 C 
BRANCH  20  21
HETATM   21  C   UNL     1      40.143 -10.175   6.351  1.00  0.00     0.123 C 
BRANCH  21  22
HETATM   22  N   UNL     1      41.211 -10.046   7.317  1.00  0.00    -0.357 N 
HETATM   23  C   UNL     1      42.512 -10.389   7.031  1.00  0.00     0.253 C 
HETATM   24  O   UNL     1      42.839 -10.824   5.929  1.00  0.00    -0.268 OA
HETATM   25  H   UNL     1      40.969  -9.752   8.256  1.00  0.00     0.162 HD
BRANCH  23  26
HETATM   26  C   UNL     1      43.552 -10.180   8.090  1.00  0.00     0.053 A 
HETATM   27  C   UNL     1      44.917 -10.494   7.988  1.00  0.00     0.049 A 
HETATM   28 CL   UNL     1      45.668 -11.140   6.570  1.00  0.00    -0.083 Cl
HETATM   29  C   UNL     1      45.775 -10.263   9.075  1.00  0.00     0.025 A 
HETATM   30  C   UNL     1      45.293  -9.715  10.263  1.00  0.00     0.002 A 
HETATM   31  C   UNL     1      43.947  -9.388  10.372  1.00  0.00     0.001 A 
HETATM   32  C   UNL     1      43.087  -9.618   9.296  1.00  0.00     0.019 A 
ENDBRANCH  23  26
ENDBRANCH  21  22
ENDBRANCH  20  21
ENDBRANCH  19  20
ENDBRANCH   2  19
TORSDOF 7
ENDMDL
MODEL 5
REMARK VINA RESULT:      -8.0      4.890      7.919
REMARK  7 active torsions:
REMARK  status: ('A' for Active; 'I' for Inactive)
REMARK    1  A    between atoms: O_2  and  C_3 
REMARK    2  A    between atoms: N_9  and  N_10 
REMARK       I    between atoms: N_10  and  C_11 
REMARK    3  A    between atoms: C_11  and  C_12 
REMARK    4  A    between atoms: C_12  and  C_13 
REMARK    5  A    between atoms: C_13  and  C_14 
REMARK    6  A    between atoms: C_14  and  N_15 
REMARK       I    between atoms: N_15  and  C_16 
REMARK    7  A    between atoms: C_16  and  C_17 
ROOT
HETATM    1  N   UNL     1      44.157 -11.144   7.335  1.00  0.00    -0.246 N 
HETATM    2  C   UNL     1      43.821 -12.249   6.566  1.00  0.00     0.237 C 
HETATM    3  O   UNL     1      43.713 -13.404   6.967  1.00  0.00    -0.272 OA
HETATM    4  H   UNL     1      44.004 -10.215   6.961  1.00  0.00     0.192 HD
ENDROOT
BRANCH   1   5
HETATM    5  N   UNL     1      44.322 -11.281   8.678  1.00  0.00    -0.166 NA
HETATM    6  C   UNL     1      43.938 -10.330   9.469  1.00  0.00     0.157 A 
HETATM    7  C   UNL     1      43.425  -8.971   9.242  1.00  0.00     0.029 A 
HETATM    8  C   UNL     1      43.992 -10.502  11.002  1.00  0.00     0.277 A 
HETATM    9  C   UNL     1      43.222  -8.215   8.102  1.00  0.00     0.053 A 
HETATM   10  C   UNL     1      43.178  -8.432  10.506  1.00  0.00     0.048 A 
HETATM   11  C   UNL     1      42.709  -6.919   8.245  1.00  0.00     0.069 A 
HETATM   12  C   UNL     1      42.451  -6.392   9.524  1.00  0.00     0.039 A 
HETATM   13  C   UNL     1      42.693  -7.152  10.675  1.00  0.00     0.033 A 
HETATM   14  N   UNL     1      43.504  -9.324  11.519  1.00  0.00    -0.321 N 
HETATM   15  H   UNL     1      43.431  -9.158  12.511  1.00  0.00     0.169 HD
HETATM   16  O   UNL     1      44.369 -11.476  11.615  1.00  0.00    -0.266 OA
BRANCH  11  17
HETATM   17  O   UNL     1      42.517  -6.259   7.061  1.00  0.00    -0.356 OA
HETATM   18  C   UNL     1      41.171  -6.028   6.663  1.00  0.00     0.210 C 
ENDBRANCH  11  17
ENDBRANCH   1   5
BRANCH   2  19
HETATM   19  C   UNL     1      43.614 -11.905   5.108  1.00  0.00     0.106 C 
BRANCH  19  20
HETATM   20  C   UNL     1      42.373 -12.587   4.546  1.00  0.00     0.029 C 
BRANCH  20  21
HETATM   21  C   UNL     1      42.669 -13.180   3.171  1.00  0.00     0.123 C 
BRANCH  21  22
HETATM   22  N   UNL     1      43.166 -14.536   3.255  1.00  0.00    -0.357 N 
HETATM   23  C   UNL     1      42.331 -15.626   3.320  1.00  0.00     0.253 C 
HETATM   24  O   UNL     1      41.108 -15.506   3.306  1.00  0.00    -0.268 OA
HETATM   25  H   UNL     1      44.168 -14.670   3.333  1.00  0.00     0.162 HD
BRANCH  23  26
HETATM   26  C   UNL     1      42.947 -16.992   3.365  1.00  0.00     0.053 A 
HETATM   27  C   UNL     1      43.806 -17.485   4.361  1.00  0.00     0.049 A 
HETATM   28 CL   UNL     1      44.272 -16.603   5.774  1.00  0.00    -0.083 Cl
HETATM   29  C   UNL     1      44.329 -18.784   4.259  1.00  0.00     0.025 A 
HETATM   30  C   UNL     1      44.000 -19.604   3.181  1.00  0.00     0.002 A 
HETATM   31  C   UNL     1      43.141 -19.134   2.196  1.00  0.00     0.001 A 
HETATM   32  C   UNL     1      42.620 -17.842   2.288  1.00  0.00     0.019 A 
ENDBRANCH  23  26
ENDBRANCH  21  22
ENDBRANCH  20  21
ENDBRANCH  19  20
ENDBRANCH   2  19
TORSDOF 7
ENDMDL
MODEL 6
REMARK VINA RESULT:      -7.9      4.805      7.664
REMARK  7 active torsions:
REMARK  status: ('A' for Active; 'I' for Inactive)
REMARK    1  A    between atoms: O_2  and  C_3 
REMARK    2  A    between atoms: N_9  and  N_10 
REMARK       I    between atoms: N_10  and  C_11 
REMARK    3  A    between atoms: C_11  and  C_12 
REMARK    4  A    between atoms: C_12  and  C_13 
REMARK    5  A    between atoms: C_13  and  C_14 
REMARK    6  A    between atoms: C_14  and  N_15 
REMARK       I    between atoms: N_15  and  C_16 
REMARK    7  A    between atoms: C_16  and  C_17 
ROOT
HETATM    1  N   UNL     1      40.480  -9.987   7.363  1.00  0.00    -0.246 N 
HETATM    2  C   UNL     1      39.495 -10.803   6.827  1.00  0.00     0.237 C 
HETATM    3  O   UNL     1      38.443 -11.122   7.375  1.00  0.00    -0.272 OA
HETATM    4  H   UNL     1      41.196  -9.609   6.753  1.00  0.00     0.192 HD
ENDROOT
BRANCH   1   5
HETATM    5  N   UNL     1      40.284  -9.398   8.573  1.00  0.00    -0.166 NA
HETATM    6  C   UNL     1      41.297  -9.190   9.353  1.00  0.00     0.157 A 
HETATM    7  C   UNL     1      42.716  -9.572   9.293  1.00  0.00     0.029 A 
HETATM    8  C   UNL     1      41.133  -8.412  10.677  1.00  0.00     0.277 A 
HETATM    9  C   UNL     1      43.453 -10.331   8.403  1.00  0.00     0.053 A 
HETATM   10  C   UNL     1      43.310  -9.041  10.440  1.00  0.00     0.048 A 
HETATM   11  C   UNL     1      44.822 -10.504   8.651  1.00  0.00     0.069 A 
HETATM   12  C   UNL     1      45.413  -9.952   9.803  1.00  0.00     0.039 A 
HETATM   13  C   UNL     1      44.651  -9.216  10.717  1.00  0.00     0.033 A 
HETATM   14  N   UNL     1      42.392  -8.368  11.233  1.00  0.00    -0.321 N 
HETATM   15  H   UNL     1      42.577  -7.918  12.117  1.00  0.00     0.169 HD
HETATM   16  O   UNL     1      40.114  -7.930  11.119  1.00  0.00    -0.266 OA
BRANCH  11  17
HETATM   17  O   UNL     1      45.473 -11.247   7.703  1.00  0.00    -0.356 OA
HETATM   18  C   UNL     1      44.714 -11.652   6.570  1.00  0.00     0.210 C 
ENDBRANCH  11  17
ENDBRANCH   1   5
BRANCH   2  19
HETATM   19  C   UNL     1      39.849 -11.322   5.451  1.00  0.00     0.106 C 
BRANCH  19  20
HETATM   20  C   UNL     1      39.986 -12.838   5.446  1.00  0.00     0.029 C 
BRANCH  20  21
HETATM   21  C   UNL     1      41.312 -13.254   6.076  1.00  0.00     0.123 C 
BRANCH  21  22
HETATM   22  N   UNL     1      41.765 -14.542   5.600  1.00  0.00    -0.357 N 
HETATM   23  C   UNL     1      42.610 -14.677   4.524  1.00  0.00     0.253 C 
HETATM   24  O   UNL     1      43.033 -13.702   3.907  1.00  0.00    -0.268 OA
HETATM   25  H   UNL     1      41.387 -15.372   6.043  1.00  0.00     0.162 HD
BRANCH  23  26
HETATM   26  C   UNL     1      43.052 -16.056   4.135  1.00  0.00     0.053 A 
HETATM   27  C   UNL     1      43.950 -16.872   4.842  1.00  0.00     0.049 A 
HETATM   28 CL   UNL     1      44.680 -16.443   6.351  1.00  0.00    -0.083 Cl
HETATM   29  C   UNL     1      44.292 -18.139   4.343  1.00  0.00     0.025 A 
HETATM   30  C   UNL     1      43.743 -18.609   3.151  1.00  0.00     0.002 A 
HETATM   31  C   UNL     1      42.843 -17.818   2.449  1.00  0.00     0.001 A 
HETATM   32  C   UNL     1      42.501 -16.555   2.937  1.00  0.00     0.019 A 
ENDBRANCH  23  26
ENDBRANCH  21  22
ENDBRANCH  20  21
ENDBRANCH  19  20
ENDBRANCH   2  19
TORSDOF 7
ENDMDL
MODEL 7
REMARK VINA RESULT:      -7.9      4.766      8.445
REMARK  7 active torsions:
REMARK  status: ('A' for Active; 'I' for Inactive)
REMARK    1  A    between atoms: O_2  and  C_3 
REMARK    2  A    between atoms: N_9  and  N_10 
REMARK       I    between atoms: N_10  and  C_11 
REMARK    3  A    between atoms: C_11  and  C_12 
REMARK    4  A    between atoms: C_12  and  C_13 
REMARK    5  A    between atoms: C_13  and  C_14 
REMARK    6  A    between atoms: C_14  and  N_15 
REMARK       I    between atoms: N_15  and  C_16 
REMARK    7  A    between atoms: C_16  and  C_17 
ROOT
HETATM    1  N   UNL     1      44.217 -15.728   6.612  1.00  0.00    -0.246 N 
HETATM    2  C   UNL     1      43.117 -15.154   7.234  1.00  0.00     0.237 C 
HETATM    3  O   UNL     1      42.058 -15.716   7.494  1.00  0.00    -0.272 OA
HETATM    4  H   UNL     1      45.109 -15.249   6.643  1.00  0.00     0.192 HD
ENDROOT
BRANCH   1   5
HETATM    5  N   UNL     1      44.203 -17.053   6.307  1.00  0.00    -0.166 NA
HETATM    6  C   UNL     1      43.943 -17.427   5.095  1.00  0.00     0.157 A 
HETATM    7  C   UNL     1      43.510 -16.710   3.886  1.00  0.00     0.029 A 
HETATM    8  C   UNL     1      44.043 -18.912   4.682  1.00  0.00     0.277 A 
HETATM    9  C   UNL     1      43.180 -15.391   3.637  1.00  0.00     0.053 A 
HETATM   10  C   UNL     1      43.406 -17.672   2.879  1.00  0.00     0.048 A 
HETATM   11  C   UNL     1      42.794 -15.035   2.337  1.00  0.00     0.069 A 
HETATM   12  C   UNL     1      42.707 -16.011   1.327  1.00  0.00     0.039 A 
HETATM   13  C   UNL     1      43.008 -17.351   1.598  1.00  0.00     0.033 A 
HETATM   14  N   UNL     1      43.719 -18.942   3.345  1.00  0.00    -0.321 N 
HETATM   15  H   UNL     1      43.699 -19.798   2.813  1.00  0.00     0.169 HD
HETATM   16  O   UNL     1      44.356 -19.845   5.387  1.00  0.00    -0.266 OA
BRANCH  11  17
HETATM   17  O   UNL     1      42.513 -13.704   2.182  1.00  0.00    -0.356 OA
HETATM   18  C   UNL     1      43.290 -12.788   2.944  1.00  0.00     0.210 C 
ENDBRANCH  11  17
ENDBRANCH   1   5
BRANCH   2  19
HETATM   19  C   UNL     1      43.326 -13.691   7.558  1.00  0.00     0.106 C 
BRANCH  19  20
HETATM   20  C   UNL     1      43.977 -12.951   6.397  1.00  0.00     0.029 C 
BRANCH  20  21
HETATM   21  C   UNL     1      44.753 -11.740   6.906  1.00  0.00     0.123 C 
BRANCH  21  22
HETATM   22  N   UNL     1      44.101 -11.105   8.030  1.00  0.00    -0.357 N 
HETATM   23  C   UNL     1      44.799 -10.603   9.103  1.00  0.00     0.253 C 
HETATM   24  O   UNL     1      46.026 -10.663   9.162  1.00  0.00    -0.268 OA
HETATM   25  H   UNL     1      43.087 -11.094   8.047  1.00  0.00     0.162 HD
BRANCH  23  26
HETATM   26  C   UNL     1      44.031  -9.928  10.199  1.00  0.00     0.053 A 
HETATM   27  C   UNL     1      43.676  -8.569  10.251  1.00  0.00     0.049 A 
HETATM   28 CL   UNL     1      44.022  -7.420   9.005  1.00  0.00    -0.083 Cl
HETATM   29  C   UNL     1      42.972  -8.068  11.358  1.00  0.00     0.025 A 
HETATM   30  C   UNL     1      42.609  -8.905  12.412  1.00  0.00     0.002 A 
HETATM   31  C   UNL     1      42.941 -10.253  12.366  1.00  0.00     0.001 A 
HETATM   32  C   UNL     1      43.645 -10.758  11.271  1.00  0.00     0.019 A 
ENDBRANCH  23  26
ENDBRANCH  21  22
ENDBRANCH  20  21
ENDBRANCH  19  20
ENDBRANCH   2  19
TORSDOF 7
ENDMDL
MODEL 8
REMARK VINA RESULT:      -7.7      2.176      3.871
REMARK  7 active torsions:
REMARK  status: ('A' for Active; 'I' for Inactive)
REMARK    1  A    between atoms: O_2  and  C_3 
REMARK    2  A    between atoms: N_9  and  N_10 
REMARK       I    between atoms: N_10  and  C_11 
REMARK    3  A    between atoms: C_11  and  C_12 
REMARK    4  A    between atoms: C_12  and  C_13 
REMARK    5  A    between atoms: C_13  and  C_14 
REMARK    6  A    between atoms: C_14  and  N_15 
REMARK       I    between atoms: N_15  and  C_16 
REMARK    7  A    between atoms: C_16  and  C_17 
ROOT
HETATM    1  N   UNL     1      39.225 -13.738   0.583  1.00  0.00    -0.246 N 
HETATM    2  C   UNL     1      40.061 -14.563   1.320  1.00  0.00     0.237 C 
HETATM    3  O   UNL     1      40.936 -15.297   0.869  1.00  0.00    -0.272 OA
HETATM    4  H   UNL     1      38.696 -13.017   1.058  1.00  0.00     0.192 HD
ENDROOT
BRANCH   1   5
HETATM    5  N   UNL     1      39.392 -13.636  -0.763  1.00  0.00    -0.166 NA
HETATM    6  C   UNL     1      40.026 -12.618  -1.252  1.00  0.00     0.157 A 
HETATM    7  C   UNL     1      40.557 -11.379  -0.665  1.00  0.00     0.029 A 
HETATM    8  C   UNL     1      40.346 -12.532  -2.761  1.00  0.00     0.277 A 
HETATM    9  C   UNL     1      40.519 -10.846   0.610  1.00  0.00     0.053 A 
HETATM   10  C   UNL     1      41.148 -10.673  -1.714  1.00  0.00     0.048 A 
HETATM   11  C   UNL     1      41.138  -9.608   0.833  1.00  0.00     0.069 A 
HETATM   12  C   UNL     1      41.744  -8.913  -0.230  1.00  0.00     0.039 A 
HETATM   13  C   UNL     1      41.746  -9.444  -1.525  1.00  0.00     0.033 A 
HETATM   14  N   UNL     1      41.026 -11.346  -2.922  1.00  0.00    -0.321 N 
HETATM   15  H   UNL     1      41.356 -11.030  -3.821  1.00  0.00     0.169 HD
HETATM   16  O   UNL     1      40.068 -13.345  -3.614  1.00  0.00    -0.266 OA
BRANCH  11  17
HETATM   17  O   UNL     1      41.072  -9.175   2.130  1.00  0.00    -0.356 OA
HETATM   18  C   UNL     1      39.922  -9.552   2.877  1.00  0.00     0.210 C 
ENDBRANCH  11  17
ENDBRANCH   1   5
BRANCH   2  19
HETATM   19  C   UNL     1      39.778 -14.507   2.805  1.00  0.00     0.106 C 
BRANCH  19  20
HETATM   20  C   UNL     1      40.362 -13.250   3.436  1.00  0.00     0.029 C 
BRANCH  20  21
HETATM   21  C   UNL     1      41.341 -13.618   4.547  1.00  0.00     0.123 C 
BRANCH  21  22
HETATM   22  N   UNL     1      41.801 -14.985   4.441  1.00  0.00    -0.357 N 
HETATM   23  C   UNL     1      42.857 -15.348   3.639  1.00  0.00     0.253 C 
HETATM   24  O   UNL     1      43.474 -14.524   2.967  1.00  0.00    -0.268 OA
HETATM   25  H   UNL     1      41.278 -15.701   4.930  1.00  0.00     0.162 HD
BRANCH  23  26
HETATM   26  C   UNL     1      43.281 -16.786   3.629  1.00  0.00     0.053 A 
HETATM   27  C   UNL     1      44.033 -17.438   4.621  1.00  0.00     0.049 A 
HETATM   28 CL   UNL     1      44.567 -16.694   6.089  1.00  0.00    -0.083 Cl
HETATM   29  C   UNL     1      44.379 -18.790   4.467  1.00  0.00     0.025 A 
HETATM   30  C   UNL     1      43.978 -19.506   3.340  1.00  0.00     0.002 A 
HETATM   31  C   UNL     1      43.223 -18.877   2.358  1.00  0.00     0.001 A 
HETATM   32  C   UNL     1      42.878 -17.531   2.503  1.00  0.00     0.019 A 
ENDBRANCH  23  26
ENDBRANCH  21  22
ENDBRANCH  20  21
ENDBRANCH  19  20
ENDBRANCH   2  19
TORSDOF 7
ENDMDL
MODEL 9
REMARK VINA RESULT:      -7.7      3.407      5.861
REMARK  7 active torsions:
REMARK  status: ('A' for Active; 'I' for Inactive)
REMARK    1  A    between atoms: O_2  and  C_3 
REMARK    2  A    between atoms: N_9  and  N_10 
REMARK       I    between atoms: N_10  and  C_11 
REMARK    3  A    between atoms: C_11  and  C_12 
REMARK    4  A    between atoms: C_12  and  C_13 
REMARK    5  A    between atoms: C_13  and  C_14 
REMARK    6  A    between atoms: C_14  and  N_15 
REMARK       I    between atoms: N_15  and  C_16 
REMARK    7  A    between atoms: C_16  and  C_17 
ROOT
HETATM    1  N   UNL     1      42.576 -13.285   5.494  1.00  0.00    -0.246 N 
HETATM    2  C   UNL     1      41.898 -14.379   6.012  1.00  0.00     0.237 C 
HETATM    3  O   UNL     1      42.106 -14.912   7.098  1.00  0.00    -0.272 OA
HETATM    4  H   UNL     1      42.186 -12.791   4.700  1.00  0.00     0.192 HD
ENDROOT
BRANCH   1   5
HETATM    5  N   UNL     1      43.519 -12.658   6.247  1.00  0.00    -0.166 NA
HETATM    6  C   UNL     1      43.229 -11.538   6.829  1.00  0.00     0.157 A 
HETATM    7  C   UNL     1      42.062 -10.643   6.779  1.00  0.00     0.029 A 
HETATM    8  C   UNL     1      44.229 -10.861   7.792  1.00  0.00     0.277 A 
HETATM    9  C   UNL     1      40.887 -10.663   6.052  1.00  0.00     0.053 A 
HETATM   10  C   UNL     1      42.346  -9.586   7.646  1.00  0.00     0.048 A 
HETATM   11  C   UNL     1      39.965  -9.626   6.249  1.00  0.00     0.069 A 
HETATM   12  C   UNL     1      40.256  -8.572   7.136  1.00  0.00     0.039 A 
HETATM   13  C   UNL     1      41.464  -8.543   7.841  1.00  0.00     0.033 A 
HETATM   14  N   UNL     1      43.597  -9.720   8.231  1.00  0.00    -0.321 N 
HETATM   15  H   UNL     1      44.031  -9.076   8.875  1.00  0.00     0.169 HD
HETATM   16  O   UNL     1      45.327 -11.263   8.104  1.00  0.00    -0.266 OA
BRANCH  11  17
HETATM   17  O   UNL     1      38.821  -9.745   5.505  1.00  0.00    -0.356 OA
HETATM   18  C   UNL     1      38.979  -9.865   4.097  1.00  0.00     0.210 C 
ENDBRANCH  11  17
ENDBRANCH   1   5
BRANCH   2  19
HETATM   19  C   UNL     1      40.842 -14.913   5.069  1.00  0.00     0.106 C 
BRANCH  19  20
HETATM   20  C   UNL     1      40.747 -14.069   3.805  1.00  0.00     0.029 C 
BRANCH  20  21
HETATM   21  C   UNL     1      41.149 -14.892   2.584  1.00  0.00     0.123 C 
BRANCH  21  22
HETATM   22  N   UNL     1      41.631 -16.206   2.945  1.00  0.00    -0.357 N 
HETATM   23  C   UNL     1      42.841 -16.695   2.511  1.00  0.00     0.253 C 
HETATM   24  O   UNL     1      43.586 -16.032   1.791  1.00  0.00    -0.268 OA
HETATM   25  H   UNL     1      41.017 -16.806   3.484  1.00  0.00     0.162 HD
BRANCH  23  26
HETATM   26  C   UNL     1      43.267 -18.055   2.974  1.00  0.00     0.053 A 
HETATM   27  C   UNL     1      43.906 -18.358   4.188  1.00  0.00     0.049 A 
HETATM   28 CL   UNL     1      44.274 -17.196   5.416  1.00  0.00    -0.083 Cl
HETATM   29  C   UNL     1      44.270 -19.682   4.480  1.00  0.00     0.025 A 
HETATM   30  C   UNL     1      43.997 -20.713   3.582  1.00  0.00     0.002 A 
HETATM   31  C   UNL     1      43.353 -20.429   2.384  1.00  0.00     0.001 A 
HETATM   32  C   UNL     1      42.992 -19.113   2.085  1.00  0.00     0.019 A 
ENDBRANCH  23  26
ENDBRANCH  21  22
ENDBRANCH  20  21
ENDBRANCH  19  20
ENDBRANCH   2  19
TORSDOF 7
ENDMDL
MODEL 10
REMARK VINA RESULT:      -7.6      2.605      7.330
REMARK  7 active torsions:
REMARK  status: ('A' for Active; 'I' for Inactive)
REMARK    1  A    between atoms: O_2  and  C_3 
REMARK    2  A    between atoms: N_9  and  N_10 
REMARK       I    between atoms: N_10  and  C_11 
REMARK    3  A    between atoms: C_11  and  C_12 
REMARK    4  A    between atoms: C_12  and  C_13 
REMARK    5  A    between atoms: C_13  and  C_14 
REMARK    6  A    between atoms: C_14  and  N_15 
REMARK       I    between atoms: N_15  and  C_16 
REMARK    7  A    between atoms: C_16  and  C_17 
ROOT
HETATM    1  N   UNL     1      40.764 -14.802   6.426  1.00  0.00    -0.246 N 
HETATM    2  C   UNL     1      41.101 -13.484   6.154  1.00  0.00     0.237 C 
HETATM    3  O   UNL     1      42.173 -12.943   6.407  1.00  0.00    -0.272 OA
HETATM    4  H   UNL     1      39.948 -15.206   5.983  1.00  0.00     0.192 HD
ENDROOT
BRANCH   1   5
HETATM    5  N   UNL     1      41.696 -15.640   6.955  1.00  0.00    -0.166 NA
HETATM    6  C   UNL     1      42.423 -16.365   6.166  1.00  0.00     0.157 A 
HETATM    7  C   UNL     1      42.410 -16.608   4.716  1.00  0.00     0.029 A 
HETATM    8  C   UNL     1      43.574 -17.232   6.721  1.00  0.00     0.277 A 
HETATM    9  C   UNL     1      41.581 -16.184   3.694  1.00  0.00     0.053 A 
HETATM   10  C   UNL     1      43.461 -17.492   4.460  1.00  0.00     0.048 A 
HETATM   11  C   UNL     1      41.858 -16.617   2.389  1.00  0.00     0.069 A 
HETATM   12  C   UNL     1      42.928 -17.496   2.142  1.00  0.00     0.039 A 
HETATM   13  C   UNL     1      43.740 -17.949   3.188  1.00  0.00     0.033 A 
HETATM   14  N   UNL     1      44.132 -17.845   5.622  1.00  0.00    -0.321 N 
HETATM   15  H   UNL     1      44.911 -18.482   5.696  1.00  0.00     0.169 HD
HETATM   16  O   UNL     1      43.918 -17.336   7.877  1.00  0.00    -0.266 OA
BRANCH  11  17
HETATM   17  O   UNL     1      40.999 -16.124   1.443  1.00  0.00    -0.356 OA
HETATM   18  C   UNL     1      39.681 -15.808   1.872  1.00  0.00     0.210 C 
ENDBRANCH  11  17
ENDBRANCH   1   5
BRANCH   2  19
HETATM   19  C   UNL     1      39.970 -12.713   5.510  1.00  0.00     0.106 C 
BRANCH  19  20
HETATM   20  C   UNL     1      39.879 -13.001   4.017  1.00  0.00     0.029 C 
BRANCH  20  21
HETATM   21  C   UNL     1      40.471 -11.844   3.215  1.00  0.00     0.123 C 
BRANCH  21  22
HETATM   22  N   UNL     1      40.725 -12.206   1.839  1.00  0.00    -0.357 N 
HETATM   23  C   UNL     1      39.801 -12.008   0.840  1.00  0.00     0.253 C 
HETATM   24  O   UNL     1      38.702 -11.505   1.066  1.00  0.00    -0.268 OA
HETATM   25  H   UNL     1      41.595 -12.681   1.625  1.00  0.00     0.162 HD
BRANCH  23  26
HETATM   26  C   UNL     1      40.178 -12.381  -0.562  1.00  0.00     0.053 A 
HETATM   27  C   UNL     1      40.970 -11.622  -1.440  1.00  0.00     0.049 A 
HETATM   28 CL   UNL     1      41.714 -10.115  -1.030  1.00  0.00    -0.083 Cl
HETATM   29  C   UNL     1      41.223 -12.088  -2.740  1.00  0.00     0.025 A 
HETATM   30  C   UNL     1      40.703 -13.306  -3.177  1.00  0.00     0.002 A 
HETATM   31  C   UNL     1      39.930 -14.072  -2.314  1.00  0.00     0.001 A 
HETATM   32  C   UNL     1      39.671 -13.614  -1.020  1.00  0.00     0.019 A 
ENDBRANCH  23  26
ENDBRANCH  21  22
ENDBRANCH  20  21
ENDBRANCH  19  20
ENDBRANCH   2  19
TORSDOF 7
ENDMDL
