MODEL 1
REMARK VINA RESULT:      -9.8      0.000      0.000
REMARK  3 active torsions:
REMARK  status: ('A' for Active; 'I' for Inactive)
REMARK    1  A    between atoms: C_8  and  C_9 
REMARK       I    between atoms: C_9  and  N_10 
REMARK    2  A    between atoms: N_10  and  C_11 
REMARK    3  A    between atoms: C_18  and  C_19 
REMARK       I    between atoms: C_19  and  N_20 
ROOT
HETATM    1  C   UNL     1      40.973 -14.100   1.508  1.00  0.00     0.035 A 
HETATM    2  C   UNL     1      40.473 -14.454   0.248  1.00  0.00     0.046 A 
HETATM    3  C   UNL     1      39.433 -13.691  -0.330  1.00  0.00     0.030 A 
HETATM    4  C   UNL     1      38.933 -12.600   0.370  1.00  0.00     0.063 A 
HETATM    5  N   UNL     1      37.955 -12.074  -0.427  1.00  0.00    -0.277 N 
HETATM    6  H   UNL     1      37.373 -11.267  -0.233  1.00  0.00     0.189 HD
HETATM    7  N   UNL     1      37.773 -12.724  -1.588  1.00  0.00    -0.168 NA
HETATM    8  C   UNL     1      38.681 -13.727  -1.543  1.00  0.00     0.156 A 
HETATM    9  C   UNL     1      39.410 -12.216   1.624  1.00  0.00     0.034 A 
HETATM   10  C   UNL     1      40.440 -12.988   2.175  1.00  0.00     0.032 A 
ENDROOT
BRANCH   1  11
HETATM   11  N   UNL     1      42.004 -14.799   2.171  1.00  0.00    -0.327 N 
HETATM   12  C   UNL     1      41.877 -15.821   3.098  1.00  0.00     0.231 C 
HETATM   13  O   UNL     1      40.824 -16.315   3.492  1.00  0.00    -0.272 OA
HETATM   14  H   UNL     1      42.947 -14.475   1.989  1.00  0.00     0.169 HD
BRANCH  12  15
HETATM   15  C   UNL     1      43.212 -16.375   3.603  1.00  0.00     0.116 C 
HETATM   16  C   UNL     1      43.381 -17.867   3.391  1.00  0.00    -0.012 A 
HETATM   17  C   UNL     1      43.068 -18.459   2.157  1.00  0.00     0.011 A 
HETATM   18  C   UNL     1      43.888 -18.676   4.417  1.00  0.00     0.075 A 
HETATM   19  C   UNL     1      43.209 -19.835   1.973  1.00  0.00     0.001 A 
HETATM   20  C   UNL     1      43.676 -20.633   3.016  1.00  0.00     0.003 A 
HETATM   21  C   UNL     1      44.015 -20.053   4.237  1.00  0.00     0.037 A 
HETATM   22  O   UNL     1      44.256 -18.196   5.645  1.00  0.00    -0.351 OA
HETATM   23  C   UNL     1      44.539 -16.794   5.657  1.00  0.00     0.176 C 
HETATM   24  C   UNL     1      43.384 -16.003   5.079  1.00  0.00     0.045 C 
ENDBRANCH  12  15
ENDBRANCH   1  11
BRANCH   8  25
HETATM   25  C   UNL     1      38.807 -14.686  -2.650  1.00  0.00     0.270 C 
HETATM   26  N   UNL     1      38.506 -15.976  -2.307  1.00  0.00    -0.365 N 
HETATM   27  H   UNL     1      38.228 -16.172  -1.351  1.00  0.00     0.159 HD
HETATM   28  H   UNL     1      38.565 -16.704  -3.000  1.00  0.00     0.159 HD
HETATM   29  O   UNL     1      39.146 -14.398  -3.791  1.00  0.00    -0.266 OA
ENDBRANCH   8  25
TORSDOF 3
ENDMDL
MODEL 2
REMARK VINA RESULT:      -8.8      2.563      8.177
REMARK  3 active torsions:
REMARK  status: ('A' for Active; 'I' for Inactive)
REMARK    1  A    between atoms: C_8  and  C_9 
REMARK       I    between atoms: C_9  and  N_10 
REMARK    2  A    between atoms: N_10  and  C_11 
REMARK    3  A    between atoms: C_18  and  C_19 
REMARK       I    between atoms: C_19  and  N_20 
ROOT
HETATM    1  C   UNL     1      42.441 -15.791   2.036  1.00  0.00     0.035 A 
HETATM    2  C   UNL     1      42.757 -17.156   2.069  1.00  0.00     0.046 A 
HETATM    3  C   UNL     1      43.386 -17.698   3.213  1.00  0.00     0.030 A 
HETATM    4  C   UNL     1      43.671 -16.859   4.283  1.00  0.00     0.063 A 
HETATM    5  N   UNL     1      44.267 -17.657   5.219  1.00  0.00    -0.277 N 
HETATM    6  H   UNL     1      44.612 -17.379   6.132  1.00  0.00     0.189 HD
HETATM    7  N   UNL     1      44.395 -18.943   4.857  1.00  0.00    -0.168 NA
HETATM    8  C   UNL     1      43.853 -18.986   3.618  1.00  0.00     0.156 A 
HETATM    9  C   UNL     1      43.367 -15.498   4.286  1.00  0.00     0.034 A 
HETATM   10  C   UNL     1      42.745 -14.984   3.142  1.00  0.00     0.032 A 
ENDROOT
BRANCH   1  11
HETATM   11  N   UNL     1      41.820 -15.153   0.941  1.00  0.00    -0.327 N 
HETATM   12  C   UNL     1      40.463 -14.999   0.705  1.00  0.00     0.231 C 
HETATM   13  O   UNL     1      39.553 -15.383   1.435  1.00  0.00    -0.272 OA
HETATM   14  H   UNL     1      42.441 -14.818   0.213  1.00  0.00     0.169 HD
BRANCH  12  15
HETATM   15  C   UNL     1      40.135 -14.228  -0.577  1.00  0.00     0.116 C 
HETATM   16  C   UNL     1      39.458 -12.893  -0.338  1.00  0.00    -0.012 A 
HETATM   17  C   UNL     1      39.947 -12.001   0.631  1.00  0.00     0.011 A 
HETATM   18  C   UNL     1      38.351 -12.512  -1.107  1.00  0.00     0.075 A 
HETATM   19  C   UNL     1      39.308 -10.781   0.858  1.00  0.00     0.001 A 
HETATM   20  C   UNL     1      38.184 -10.433   0.114  1.00  0.00     0.003 A 
HETATM   21  C   UNL     1      37.706 -11.299  -0.869  1.00  0.00     0.037 A 
HETATM   22  O   UNL     1      37.817 -13.290  -2.099  1.00  0.00    -0.351 OA
HETATM   23  C   UNL     1      38.720 -14.271  -2.614  1.00  0.00     0.176 C 
HETATM   24  C   UNL     1      39.295 -15.118  -1.496  1.00  0.00     0.045 C 
ENDBRANCH  12  15
ENDBRANCH   1  11
BRANCH   8  25
HETATM   25  C   UNL     1      43.795 -20.242   2.857  1.00  0.00     0.270 C 
HETATM   26  N   UNL     1      44.013 -21.362   3.612  1.00  0.00    -0.365 N 
HETATM   27  H   UNL     1      44.192 -21.252   4.604  1.00  0.00     0.159 HD
HETATM   28  H   UNL     1      43.993 -22.270   3.176  1.00  0.00     0.159 HD
HETATM   29  O   UNL     1      43.572 -20.323   1.655  1.00  0.00    -0.266 OA
ENDBRANCH   8  25
TORSDOF 3
ENDMDL
MODEL 3
REMARK VINA RESULT:      -8.7      1.376      2.591
REMARK  3 active torsions:
REMARK  status: ('A' for Active; 'I' for Inactive)
REMARK    1  A    between atoms: C_8  and  C_9 
REMARK       I    between atoms: C_9  and  N_10 
REMARK    2  A    between atoms: N_10  and  C_11 
REMARK    3  A    between atoms: C_18  and  C_19 
REMARK       I    between atoms: C_19  and  N_20 
ROOT
HETATM    1  C   UNL     1      40.166 -14.458   1.641  1.00  0.00     0.035 A 
HETATM    2  C   UNL     1      40.037 -14.375   0.248  1.00  0.00     0.046 A 
HETATM    3  C   UNL     1      39.421 -13.242  -0.330  1.00  0.00     0.030 A 
HETATM    4  C   UNL     1      38.961 -12.231   0.504  1.00  0.00     0.063 A 
HETATM    5  N   UNL     1      38.424 -11.290  -0.329  1.00  0.00    -0.277 N 
HETATM    6  H   UNL     1      37.991 -10.412  -0.065  1.00  0.00     0.189 HD
HETATM    7  N   UNL     1      38.494 -11.596  -1.634  1.00  0.00    -0.168 NA
HETATM    8  C   UNL     1      39.110 -12.801  -1.652  1.00  0.00     0.156 A 
HETATM    9  C   UNL     1      39.077 -12.277   1.894  1.00  0.00     0.034 A 
HETATM   10  C   UNL     1      39.690 -13.410   2.442  1.00  0.00     0.032 A 
ENDROOT
BRANCH   1  11
HETATM   11  N   UNL     1      40.759 -15.547   2.314  1.00  0.00    -0.327 N 
HETATM   12  C   UNL     1      42.109 -15.800   2.497  1.00  0.00     0.231 C 
HETATM   13  O   UNL     1      43.037 -15.093   2.114  1.00  0.00    -0.272 OA
HETATM   14  H   UNL     1      40.121 -16.258   2.654  1.00  0.00     0.169 HD
BRANCH  12  15
HETATM   15  C   UNL     1      42.403 -17.069   3.302  1.00  0.00     0.116 C 
HETATM   16  C   UNL     1      42.667 -16.820   4.774  1.00  0.00    -0.012 A 
HETATM   17  C   UNL     1      41.829 -15.977   5.522  1.00  0.00     0.011 A 
HETATM   18  C   UNL     1      43.733 -17.457   5.421  1.00  0.00     0.075 A 
HETATM   19  C   UNL     1      42.086 -15.737   6.872  1.00  0.00     0.001 A 
HETATM   20  C   UNL     1      43.175 -16.346   7.494  1.00  0.00     0.003 A 
HETATM   21  C   UNL     1      43.998 -17.205   6.767  1.00  0.00     0.037 A 
HETATM   22  O   UNL     1      44.588 -18.322   4.794  1.00  0.00    -0.351 OA
HETATM   23  C   UNL     1      44.057 -18.896   3.597  1.00  0.00     0.176 C 
HETATM   24  C   UNL     1      43.570 -17.817   2.650  1.00  0.00     0.045 C 
ENDBRANCH  12  15
ENDBRANCH   1  11
BRANCH   8  25
HETATM   25  C   UNL     1      39.384 -13.496  -2.918  1.00  0.00     0.270 C 
HETATM   26  N   UNL     1      38.260 -13.873  -3.602  1.00  0.00    -0.365 N 
HETATM   27  H   UNL     1      37.353 -13.656  -3.203  1.00  0.00     0.159 HD
HETATM   28  H   UNL     1      38.349 -14.356  -4.480  1.00  0.00     0.159 HD
HETATM   29  O   UNL     1      40.502 -13.734  -3.358  1.00  0.00    -0.266 OA
ENDBRANCH   8  25
TORSDOF 3
ENDMDL
MODEL 4
REMARK VINA RESULT:      -8.7      1.896      2.921
REMARK  3 active torsions:
REMARK  status: ('A' for Active; 'I' for Inactive)
REMARK    1  A    between atoms: C_8  and  C_9 
REMARK       I    between atoms: C_9  and  N_10 
REMARK    2  A    between atoms: N_10  and  C_11 
REMARK    3  A    between atoms: C_18  and  C_19 
REMARK       I    between atoms: C_19  and  N_20 
ROOT
HETATM    1  C   UNL     1      41.085 -14.260   1.507  1.00  0.00     0.035 A 
HETATM    2  C   UNL     1      40.513 -13.040   1.894  1.00  0.00     0.046 A 
HETATM    3  C   UNL     1      39.525 -12.443   1.079  1.00  0.00     0.030 A 
HETATM    4  C   UNL     1      39.141 -13.087  -0.091  1.00  0.00     0.063 A 
HETATM    5  N   UNL     1      38.191 -12.281  -0.653  1.00  0.00    -0.277 N 
HETATM    6  H   UNL     1      37.689 -12.437  -1.520  1.00  0.00     0.189 HD
HETATM    7  N   UNL     1      37.919 -11.168   0.046  1.00  0.00    -0.168 NA
HETATM    8  C   UNL     1      38.736 -11.254   1.122  1.00  0.00     0.156 A 
HETATM    9  C   UNL     1      39.686 -14.303  -0.505  1.00  0.00     0.034 A 
HETATM   10  C   UNL     1      40.662 -14.874   0.319  1.00  0.00     0.032 A 
ENDROOT
BRANCH   1  11
HETATM   11  N   UNL     1      42.080 -14.933   2.246  1.00  0.00    -0.327 N 
HETATM   12  C   UNL     1      41.904 -15.882   3.241  1.00  0.00     0.231 C 
HETATM   13  O   UNL     1      40.829 -16.321   3.641  1.00  0.00    -0.272 OA
HETATM   14  H   UNL     1      43.035 -14.646   2.067  1.00  0.00     0.169 HD
BRANCH  12  15
HETATM   15  C   UNL     1      43.211 -16.429   3.821  1.00  0.00     0.116 C 
HETATM   16  C   UNL     1      43.413 -17.914   3.592  1.00  0.00    -0.012 A 
HETATM   17  C   UNL     1      43.188 -18.486   2.329  1.00  0.00     0.011 A 
HETATM   18  C   UNL     1      43.865 -18.737   4.633  1.00  0.00     0.075 A 
HETATM   19  C   UNL     1      43.358 -19.857   2.130  1.00  0.00     0.001 A 
HETATM   20  C   UNL     1      43.768 -20.669   3.185  1.00  0.00     0.003 A 
HETATM   21  C   UNL     1      44.021 -20.108   4.436  1.00  0.00     0.037 A 
HETATM   22  O   UNL     1      44.147 -18.276   5.891  1.00  0.00    -0.351 OA
HETATM   23  C   UNL     1      44.410 -16.872   5.947  1.00  0.00     0.176 C 
HETATM   24  C   UNL     1      43.283 -16.084   5.311  1.00  0.00     0.045 C 
ENDBRANCH  12  15
ENDBRANCH   1  11
BRANCH   8  25
HETATM   25  C   UNL     1      38.743 -10.208   2.155  1.00  0.00     0.270 C 
HETATM   26  N   UNL     1      37.496  -9.832   2.576  1.00  0.00    -0.365 N 
HETATM   27  H   UNL     1      36.688 -10.282   2.163  1.00  0.00     0.159 HD
HETATM   28  H   UNL     1      37.403  -9.120   3.283  1.00  0.00     0.159 HD
HETATM   29  O   UNL     1      39.751  -9.695   2.625  1.00  0.00    -0.266 OA
ENDBRANCH   8  25
TORSDOF 3
ENDMDL
MODEL 5
REMARK VINA RESULT:      -8.6      2.845      8.047
REMARK  3 active torsions:
REMARK  status: ('A' for Active; 'I' for Inactive)
REMARK    1  A    between atoms: C_8  and  C_9 
REMARK       I    between atoms: C_9  and  N_10 
REMARK    2  A    between atoms: N_10  and  C_11 
REMARK    3  A    between atoms: C_18  and  C_19 
REMARK       I    between atoms: C_19  and  N_20 
ROOT
HETATM    1  C   UNL     1      42.317 -15.492   2.631  1.00  0.00     0.035 A 
HETATM    2  C   UNL     1      42.368 -15.664   4.021  1.00  0.00     0.046 A 
HETATM    3  C   UNL     1      42.974 -16.822   4.558  1.00  0.00     0.030 A 
HETATM    4  C   UNL     1      43.511 -17.764   3.688  1.00  0.00     0.063 A 
HETATM    5  N   UNL     1      44.014 -18.751   4.489  1.00  0.00    -0.277 N 
HETATM    6  H   UNL     1      44.480 -19.602   4.194  1.00  0.00     0.189 HD
HETATM    7  N   UNL     1      43.856 -18.537   5.805  1.00  0.00    -0.168 NA
HETATM    8  C   UNL     1      43.215 -17.347   5.864  1.00  0.00     0.156 A 
HETATM    9  C   UNL     1      43.481 -17.623   2.301  1.00  0.00     0.034 A 
HETATM   10  C   UNL     1      42.875 -16.468   1.793  1.00  0.00     0.032 A 
ENDROOT
BRANCH   1  11
HETATM   11  N   UNL     1      41.730 -14.377   1.997  1.00  0.00    -0.327 N 
HETATM   12  C   UNL     1      40.382 -14.075   1.885  1.00  0.00     0.231 C 
HETATM   13  O   UNL     1      39.452 -14.730   2.347  1.00  0.00    -0.272 OA
HETATM   14  H   UNL     1      42.368 -13.753   1.517  1.00  0.00     0.169 HD
BRANCH  12  15
HETATM   15  C   UNL     1      40.094 -12.763   1.148  1.00  0.00     0.116 C 
HETATM   16  C   UNL     1      40.345 -12.827  -0.345  1.00  0.00    -0.012 A 
HETATM   17  C   UNL     1      39.870 -13.905  -1.110  1.00  0.00     0.011 A 
HETATM   18  C   UNL     1      41.027 -11.789  -0.995  1.00  0.00     0.075 A 
HETATM   19  C   UNL     1      40.119 -13.966  -2.482  1.00  0.00     0.001 A 
HETATM   20  C   UNL     1      40.834 -12.947  -3.107  1.00  0.00     0.003 A 
HETATM   21  C   UNL     1      41.288 -11.859  -2.363  1.00  0.00     0.037 A 
HETATM   22  O   UNL     1      41.501 -10.679  -0.350  1.00  0.00    -0.351 OA
HETATM   23  C   UNL     1      40.859 -10.416   0.900  1.00  0.00     0.176 C 
HETATM   24  C   UNL     1      40.902 -11.636   1.797  1.00  0.00     0.045 C 
ENDBRANCH  12  15
ENDBRANCH   1  11
BRANCH   8  25
HETATM   25  C   UNL     1      42.851 -16.744   7.155  1.00  0.00     0.270 C 
HETATM   26  N   UNL     1      43.804 -16.887   8.126  1.00  0.00    -0.365 N 
HETATM   27  H   UNL     1      44.661 -17.379   7.897  1.00  0.00     0.159 HD
HETATM   28  H   UNL     1      43.642 -16.507   9.044  1.00  0.00     0.159 HD
HETATM   29  O   UNL     1      41.800 -16.157   7.382  1.00  0.00    -0.266 OA
ENDBRANCH   8  25
TORSDOF 3
ENDMDL
MODEL 6
REMARK VINA RESULT:      -8.6      2.509      8.424
REMARK  3 active torsions:
REMARK  status: ('A' for Active; 'I' for Inactive)
REMARK    1  A    between atoms: C_8  and  C_9 
REMARK       I    between atoms: C_9  and  N_10 
REMARK    2  A    between atoms: N_10  and  C_11 
REMARK    3  A    between atoms: C_18  and  C_19 
REMARK       I    between atoms: C_19  and  N_20 
ROOT
HETATM    1  C   UNL     1      42.405 -15.846   2.414  1.00  0.00     0.035 A 
HETATM    2  C   UNL     1      42.251 -15.743   3.803  1.00  0.00     0.046 A 
HETATM    3  C   UNL     1      42.789 -16.745   4.641  1.00  0.00     0.030 A 
HETATM    4  C   UNL     1      43.465 -17.812   4.062  1.00  0.00     0.063 A 
HETATM    5  N   UNL     1      43.859 -18.601   5.106  1.00  0.00    -0.277 N 
HETATM    6  H   UNL     1      44.378 -19.471   5.056  1.00  0.00     0.189 HD
HETATM    7  N   UNL     1      43.503 -18.144   6.316  1.00  0.00    -0.168 NA
HETATM    8  C   UNL     1      42.840 -16.995   6.046  1.00  0.00     0.156 A 
HETATM    9  C   UNL     1      43.641 -17.945   2.684  1.00  0.00     0.034 A 
HETATM   10  C   UNL     1      43.098 -16.940   1.875  1.00  0.00     0.032 A 
ENDROOT
BRANCH   1  11
HETATM   11  N   UNL     1      41.901 -14.903   1.493  1.00  0.00    -0.327 N 
HETATM   12  C   UNL     1      40.678 -14.922   0.841  1.00  0.00     0.231 C 
HETATM   13  O   UNL     1      39.800 -15.769   0.974  1.00  0.00    -0.272 OA
HETATM   14  H   UNL     1      42.533 -14.154   1.236  1.00  0.00     0.169 HD
BRANCH  12  15
HETATM   15  C   UNL     1      40.442 -13.720  -0.078  1.00  0.00     0.116 C 
HETATM   16  C   UNL     1      39.418 -12.733   0.447  1.00  0.00    -0.012 A 
HETATM   17  C   UNL     1      39.456 -12.298   1.782  1.00  0.00     0.011 A 
HETATM   18  C   UNL     1      38.436 -12.210  -0.404  1.00  0.00     0.075 A 
HETATM   19  C   UNL     1      38.500 -11.403   2.264  1.00  0.00     0.001 A 
HETATM   20  C   UNL     1      37.504 -10.922   1.417  1.00  0.00     0.003 A 
HETATM   21  C   UNL     1      37.473 -11.327   0.083  1.00  0.00     0.037 A 
HETATM   22  O   UNL     1      38.331 -12.540  -1.728  1.00  0.00    -0.351 OA
HETATM   23  C   UNL     1      39.538 -13.060  -2.292  1.00  0.00     0.176 C 
HETATM   24  C   UNL     1      40.061 -14.223  -1.473  1.00  0.00     0.045 C 
ENDBRANCH  12  15
ENDBRANCH   1  11
BRANCH   8  25
HETATM   25  C   UNL     1      42.277 -16.171   7.125  1.00  0.00     0.270 C 
HETATM   26  N   UNL     1      43.099 -16.036   8.211  1.00  0.00    -0.365 N 
HETATM   27  H   UNL     1      44.003 -16.496   8.196  1.00  0.00     0.159 HD
HETATM   28  H   UNL     1      42.797 -15.489   9.001  1.00  0.00     0.159 HD
HETATM   29  O   UNL     1      41.176 -15.634   7.095  1.00  0.00    -0.266 OA
ENDBRANCH   8  25
TORSDOF 3
ENDMDL
MODEL 7
REMARK VINA RESULT:      -8.5      5.304      8.372
REMARK  3 active torsions:
REMARK  status: ('A' for Active; 'I' for Inactive)
REMARK    1  A    between atoms: C_8  and  C_9 
REMARK       I    between atoms: C_9  and  N_10 
REMARK    2  A    between atoms: N_10  and  C_11 
REMARK    3  A    between atoms: C_18  and  C_19 
REMARK       I    between atoms: C_19  and  N_20 
ROOT
HETATM    1  C   UNL     1      43.870 -12.606   6.490  1.00  0.00     0.035 A 
HETATM    2  C   UNL     1      43.508 -11.974   7.687  1.00  0.00     0.046 A 
HETATM    3  C   UNL     1      44.341 -10.965   8.223  1.00  0.00     0.030 A 
HETATM    4  C   UNL     1      45.502 -10.622   7.541  1.00  0.00     0.063 A 
HETATM    5  N   UNL     1      46.086  -9.640   8.291  1.00  0.00    -0.277 N 
HETATM    6  H   UNL     1      46.954  -9.153   8.096  1.00  0.00     0.189 HD
HETATM    7  N   UNL     1      45.407  -9.309   9.402  1.00  0.00    -0.168 NA
HETATM    8  C   UNL     1      44.325 -10.120   9.373  1.00  0.00     0.156 A 
HETATM    9  C   UNL     1      45.891 -11.227   6.345  1.00  0.00     0.034 A 
HETATM   10  C   UNL     1      45.050 -12.223   5.836  1.00  0.00     0.032 A 
ENDROOT
BRANCH   1  11
HETATM   11  N   UNL     1      43.111 -13.626   5.877  1.00  0.00    -0.327 N 
HETATM   12  C   UNL     1      42.829 -14.889   6.373  1.00  0.00     0.231 C 
HETATM   13  O   UNL     1      43.181 -15.335   7.461  1.00  0.00    -0.272 OA
HETATM   14  H   UNL     1      42.782 -13.431   4.938  1.00  0.00     0.169 HD
BRANCH  12  15
HETATM   15  C   UNL     1      41.951 -15.740   5.451  1.00  0.00     0.116 C 
HETATM   16  C   UNL     1      42.720 -16.755   4.629  1.00  0.00    -0.012 A 
HETATM   17  C   UNL     1      43.698 -17.569   5.224  1.00  0.00     0.011 A 
HETATM   18  C   UNL     1      42.442 -16.922   3.267  1.00  0.00     0.075 A 
HETATM   19  C   UNL     1      44.415 -18.490   4.458  1.00  0.00     0.001 A 
HETATM   20  C   UNL     1      44.156 -18.617   3.095  1.00  0.00     0.003 A 
HETATM   21  C   UNL     1      43.170 -17.832   2.500  1.00  0.00     0.037 A 
HETATM   22  O   UNL     1      41.487 -16.205   2.598  1.00  0.00    -0.351 OA
HETATM   23  C   UNL     1      40.489 -15.636   3.449  1.00  0.00     0.176 C 
HETATM   24  C   UNL     1      41.123 -14.815   4.554  1.00  0.00     0.045 C 
ENDBRANCH  12  15
ENDBRANCH   1  11
BRANCH   8  25
HETATM   25  C   UNL     1      43.309 -10.068  10.435  1.00  0.00     0.270 C 
HETATM   26  N   UNL     1      43.395 -11.092  11.339  1.00  0.00    -0.365 N 
HETATM   27  H   UNL     1      44.124 -11.787  11.218  1.00  0.00     0.159 HD
HETATM   28  H   UNL     1      42.740 -11.140  12.102  1.00  0.00     0.159 HD
HETATM   29  O   UNL     1      42.448  -9.203  10.539  1.00  0.00    -0.266 OA
ENDBRANCH   8  25
TORSDOF 3
ENDMDL
MODEL 8
REMARK VINA RESULT:      -8.5      2.359      3.861
REMARK  3 active torsions:
REMARK  status: ('A' for Active; 'I' for Inactive)
REMARK    1  A    between atoms: C_8  and  C_9 
REMARK       I    between atoms: C_9  and  N_10 
REMARK    2  A    between atoms: N_10  and  C_11 
REMARK    3  A    between atoms: C_18  and  C_19 
REMARK       I    between atoms: C_19  and  N_20 
ROOT
HETATM    1  C   UNL     1      40.745 -14.508   0.717  1.00  0.00     0.035 A 
HETATM    2  C   UNL     1      41.152 -13.167   0.719  1.00  0.00     0.046 A 
HETATM    3  C   UNL     1      40.653 -12.285  -0.266  1.00  0.00     0.030 A 
HETATM    4  C   UNL     1      39.762 -12.773  -1.214  1.00  0.00     0.063 A 
HETATM    5  N   UNL     1      39.466 -11.706  -2.015  1.00  0.00    -0.277 N 
HETATM    6  H   UNL     1      38.845 -11.695  -2.817  1.00  0.00     0.189 HD
HETATM    7  N   UNL     1      40.083 -10.564  -1.674  1.00  0.00    -0.168 NA
HETATM    8  C   UNL     1      40.820 -10.905  -0.592  1.00  0.00     0.156 A 
HETATM    9  C   UNL     1      39.332 -14.100  -1.243  1.00  0.00     0.034 A 
HETATM   10  C   UNL     1      39.841 -14.954  -0.257  1.00  0.00     0.032 A 
ENDROOT
BRANCH   1  11
HETATM   11  N   UNL     1      41.189 -15.467   1.652  1.00  0.00    -0.327 N 
HETATM   12  C   UNL     1      42.482 -15.929   1.846  1.00  0.00     0.231 C 
HETATM   13  O   UNL     1      43.482 -15.558   1.240  1.00  0.00    -0.272 OA
HETATM   14  H   UNL     1      40.468 -15.912   2.207  1.00  0.00     0.169 HD
BRANCH  12  15
HETATM   15  C   UNL     1      42.613 -16.961   2.970  1.00  0.00     0.116 C 
HETATM   16  C   UNL     1      43.130 -16.389   4.276  1.00  0.00    -0.012 A 
HETATM   17  C   UNL     1      42.603 -15.196   4.797  1.00  0.00     0.011 A 
HETATM   18  C   UNL     1      44.119 -17.063   5.003  1.00  0.00     0.075 A 
HETATM   19  C   UNL     1      43.094 -14.665   5.991  1.00  0.00     0.001 A 
HETATM   20  C   UNL     1      44.108 -15.325   6.683  1.00  0.00     0.003 A 
HETATM   21  C   UNL     1      44.620 -16.524   6.188  1.00  0.00     0.037 A 
HETATM   22  O   UNL     1      44.675 -18.248   4.603  1.00  0.00    -0.351 OA
HETATM   23  C   UNL     1      43.870 -18.980   3.676  1.00  0.00     0.176 C 
HETATM   24  C   UNL     1      43.492 -18.119   2.488  1.00  0.00     0.045 C 
ENDBRANCH  12  15
ENDBRANCH   1  11
BRANCH   8  25
HETATM   25  C   UNL     1      41.660  -9.914   0.097  1.00  0.00     0.270 C 
HETATM   26  N   UNL     1      41.353  -9.748   1.421  1.00  0.00    -0.365 N 
HETATM   27  H   UNL     1      40.599 -10.297   1.817  1.00  0.00     0.159 HD
HETATM   28  H   UNL     1      41.876  -9.089   1.975  1.00  0.00     0.159 HD
HETATM   29  O   UNL     1      42.564  -9.276  -0.428  1.00  0.00    -0.266 OA
ENDBRANCH   8  25
TORSDOF 3
ENDMDL
MODEL 9
REMARK VINA RESULT:      -8.4      2.649      7.458
REMARK  3 active torsions:
REMARK  status: ('A' for Active; 'I' for Inactive)
REMARK    1  A    between atoms: C_8  and  C_9 
REMARK       I    between atoms: C_9  and  N_10 
REMARK    2  A    between atoms: N_10  and  C_11 
REMARK    3  A    between atoms: C_18  and  C_19 
REMARK       I    between atoms: C_19  and  N_20 
ROOT
HETATM    1  C   UNL     1      42.493 -15.632   2.976  1.00  0.00     0.035 A 
HETATM    2  C   UNL     1      42.657 -16.939   2.499  1.00  0.00     0.046 A 
HETATM    3  C   UNL     1      43.323 -17.895   3.298  1.00  0.00     0.030 A 
HETATM    4  C   UNL     1      43.797 -17.512   4.547  1.00  0.00     0.063 A 
HETATM    5  N   UNL     1      44.384 -18.630   5.070  1.00  0.00    -0.277 N 
HETATM    6  H   UNL     1      44.839 -18.719   5.972  1.00  0.00     0.189 HD
HETATM    7  N   UNL     1      44.333 -19.711   4.275  1.00  0.00    -0.168 NA
HETATM    8  C   UNL     1      43.679 -19.273   3.175  1.00  0.00     0.156 A 
HETATM    9  C   UNL     1      43.648 -16.221   5.056  1.00  0.00     0.034 A 
HETATM   10  C   UNL     1      42.986 -15.293   4.244  1.00  0.00     0.032 A 
ENDROOT
BRANCH   1  11
HETATM   11  N   UNL     1      41.849 -14.605   2.254  1.00  0.00    -0.327 N 
HETATM   12  C   UNL     1      40.493 -14.456   2.014  1.00  0.00     0.231 C 
HETATM   13  O   UNL     1      39.601 -15.199   2.414  1.00  0.00    -0.272 OA
HETATM   14  H   UNL     1      42.458 -13.926   1.811  1.00  0.00     0.169 HD
BRANCH  12  15
HETATM   15  C   UNL     1      40.134 -13.204   1.209  1.00  0.00     0.116 C 
HETATM   16  C   UNL     1      40.119 -13.417  -0.292  1.00  0.00    -0.012 A 
HETATM   17  C   UNL     1      39.476 -14.532  -0.854  1.00  0.00     0.011 A 
HETATM   18  C   UNL     1      40.718 -12.483  -1.147  1.00  0.00     0.075 A 
HETATM   19  C   UNL     1      39.481 -14.732  -2.235  1.00  0.00     0.001 A 
HETATM   20  C   UNL     1      40.116 -13.816  -3.071  1.00  0.00     0.003 A 
HETATM   21  C   UNL     1      40.735 -12.692  -2.525  1.00  0.00     0.037 A 
HETATM   22  O   UNL     1      41.341 -11.347  -0.706  1.00  0.00    -0.351 OA
HETATM   23  C   UNL     1      40.936 -10.936   0.602  1.00  0.00     0.176 C 
HETATM   24  C   UNL     1      41.086 -12.069   1.597  1.00  0.00     0.045 C 
ENDBRANCH  12  15
ENDBRANCH   1  11
BRANCH   8  25
HETATM   25  C   UNL     1      43.411 -20.171   2.043  1.00  0.00     0.270 C 
HETATM   26  N   UNL     1      42.087 -20.273   1.712  1.00  0.00    -0.365 N 
HETATM   27  H   UNL     1      41.411 -19.743   2.250  1.00  0.00     0.159 HD
HETATM   28  H   UNL     1      41.808 -20.867   0.948  1.00  0.00     0.159 HD
HETATM   29  O   UNL     1      44.268 -20.790   1.423  1.00  0.00    -0.266 OA
ENDBRANCH   8  25
TORSDOF 3
ENDMDL
MODEL 10
REMARK VINA RESULT:      -8.0      4.692      7.403
REMARK  3 active torsions:
REMARK  status: ('A' for Active; 'I' for Inactive)
REMARK    1  A    between atoms: C_8  and  C_9 
REMARK       I    between atoms: C_9  and  N_10 
REMARK    2  A    between atoms: N_10  and  C_11 
REMARK    3  A    between atoms: C_18  and  C_19 
REMARK       I    between atoms: C_19  and  N_20 
ROOT
HETATM    1  C   UNL     1      41.588 -11.937   5.494  1.00  0.00     0.035 A 
HETATM    2  C   UNL     1      42.773 -11.746   6.218  1.00  0.00     0.046 A 
HETATM    3  C   UNL     1      42.992 -10.523   6.889  1.00  0.00     0.030 A 
HETATM    4  C   UNL     1      42.018  -9.534   6.817  1.00  0.00     0.063 A 
HETATM    5  N   UNL     1      42.507  -8.489   7.549  1.00  0.00    -0.277 N 
HETATM    6  H   UNL     1      42.061  -7.593   7.714  1.00  0.00     0.189 HD
HETATM    7  N   UNL     1      43.714  -8.707   8.095  1.00  0.00    -0.168 NA
HETATM    8  C   UNL     1      44.027  -9.962   7.697  1.00  0.00     0.156 A 
HETATM    9  C   UNL     1      40.825  -9.690   6.109  1.00  0.00     0.034 A 
HETATM   10  C   UNL     1      40.632 -10.911   5.453  1.00  0.00     0.032 A 
ENDROOT
BRANCH   1  11
HETATM   11  N   UNL     1      41.278 -13.117   4.786  1.00  0.00    -0.327 N 
HETATM   12  C   UNL     1      40.743 -14.293   5.288  1.00  0.00     0.231 C 
HETATM   13  O   UNL     1      40.423 -14.503   6.454  1.00  0.00    -0.272 OA
HETATM   14  H   UNL     1      41.530 -13.124   3.804  1.00  0.00     0.169 HD
BRANCH  12  15
HETATM   15  C   UNL     1      40.509 -15.374   4.229  1.00  0.00     0.116 C 
HETATM   16  C   UNL     1      41.699 -16.286   4.004  1.00  0.00    -0.012 A 
HETATM   17  C   UNL     1      42.395 -16.841   5.090  1.00  0.00     0.011 A 
HETATM   18  C   UNL     1      42.101 -16.620   2.704  1.00  0.00     0.075 A 
HETATM   19  C   UNL     1      43.501 -17.666   4.877  1.00  0.00     0.001 A 
HETATM   20  C   UNL     1      43.914 -17.957   3.579  1.00  0.00     0.003 A 
HETATM   21  C   UNL     1      43.214 -17.433   2.493  1.00  0.00     0.037 A 
HETATM   22  O   UNL     1      41.471 -16.163   1.578  1.00  0.00    -0.351 OA
HETATM   23  C   UNL     1      40.127 -15.729   1.803  1.00  0.00     0.176 C 
HETATM   24  C   UNL     1      40.068 -14.709   2.922  1.00  0.00     0.045 C 
ENDBRANCH  12  15
ENDBRANCH   1  11
BRANCH   8  25
HETATM   25  C   UNL     1      45.296 -10.590   8.094  1.00  0.00     0.270 C 
HETATM   26  N   UNL     1      46.206 -10.699   7.078  1.00  0.00    -0.365 N 
HETATM   27  H   UNL     1      45.952 -10.353   6.160  1.00  0.00     0.159 HD
HETATM   28  H   UNL     1      47.104 -11.118   7.256  1.00  0.00     0.159 HD
HETATM   29  O   UNL     1      45.555 -10.992   9.222  1.00  0.00    -0.266 OA
ENDBRANCH   8  25
TORSDOF 3
ENDMDL
