MODEL 1
REMARK VINA RESULT:      -8.2      0.000      0.000
REMARK  8 active torsions:
REMARK  status: ('A' for Active; 'I' for Inactive)
REMARK    1  A    between atoms: C_8  and  C_9 
REMARK       I    between atoms: C_9  and  N_10 
REMARK    2  A    between atoms: N_10  and  N_11 
REMARK    3  A    between atoms: N_11  and  C_12 
REMARK    4  A    between atoms: C_12  and  N_13 
REMARK    5  A    between atoms: N_13  and  C_14 
REMARK    6  A    between atoms: C_15  and  O_16 
REMARK    7  A    between atoms: C_19  and  O_20 
REMARK    8  A    between atoms: C_26  and  C_27 
ROOT
HETATM    1  C   UNL     1      42.124 -11.901   5.639  1.00  0.00     0.275 C 
HETATM    2  N   UNL     1      42.025 -13.259   5.409  1.00  0.00    -0.263 N 
HETATM    3  O   UNL     1      41.388 -11.079   5.095  1.00  0.00    -0.266 OA
HETATM    4  H   UNL     1      42.788 -13.887   5.652  1.00  0.00     0.190 HD
ENDROOT
BRANCH   2   5
HETATM    5  N   UNL     1      41.023 -13.737   4.557  1.00  0.00    -0.273 N 
HETATM    6  H   UNL     1      40.183 -13.157   4.528  1.00  0.00     0.189 HD
BRANCH   5   7
HETATM    7  C   UNL     1      41.320 -14.469   3.437  1.00  0.00     0.191 C 
HETATM    8  S   UNL     1      40.240 -14.775   2.192  1.00  0.00    -0.039 SA
BRANCH   7   9
HETATM    9  N   UNL     1      42.579 -14.990   3.351  1.00  0.00    -0.330 N 
HETATM   10  H   UNL     1      43.316 -14.300   3.223  1.00  0.00     0.168 HD
BRANCH   9  11
HETATM   11  C   UNL     1      43.063 -16.310   3.512  1.00  0.00     0.068 A 
HETATM   12  C   UNL     1      43.441 -16.701   4.814  1.00  0.00     0.097 A 
HETATM   13  C   UNL     1      43.887 -18.009   5.055  1.00  0.00     0.075 A 
HETATM   14  C   UNL     1      43.949 -18.933   4.011  1.00  0.00     0.070 A 
HETATM   15  C   UNL     1      43.561 -18.546   2.729  1.00  0.00     0.039 A 
HETATM   16  C   UNL     1      43.110 -17.248   2.480  1.00  0.00     0.035 A 
BRANCH  12  17
HETATM   17  O   UNL     1      43.324 -15.724   5.778  1.00  0.00    -0.354 OA
HETATM   18  C   UNL     1      42.997 -16.143   7.096  1.00  0.00     0.210 C 
ENDBRANCH  12  17
BRANCH  14  19
HETATM   19  O   UNL     1      44.354 -20.236   4.106  1.00  0.00    -0.356 OA
HETATM   20  C   UNL     1      43.964 -20.955   5.270  1.00  0.00     0.210 C 
ENDBRANCH  14  19
ENDBRANCH   9  11
ENDBRANCH   7   9
ENDBRANCH   5   7
ENDBRANCH   2   5
BRANCH   1  21
HETATM   21  C   UNL     1      43.169 -11.528   6.565  1.00  0.00     0.098 A 
HETATM   22  C   UNL     1      43.235 -10.430   7.404  1.00  0.00     0.138 A 
HETATM   23  N   UNL     1      42.429  -9.354   7.593  1.00  0.00    -0.370 N 
HETATM   24  N   UNL     1      44.426 -10.545   8.073  1.00  0.00    -0.240 N 
HETATM   25  C   UNL     1      42.786  -8.279   8.519  1.00  0.00     0.081 C 
HETATM   26  H   UNL     1      41.655  -9.154   6.959  1.00  0.00     0.161 HD
HETATM   27  C   UNL     1      42.211  -6.959   8.006  1.00  0.00     0.032 C 
HETATM   28  C   UNL     1      44.313  -8.184   8.665  1.00  0.00     0.061 C 
HETATM   29  C   UNL     1      44.935  -9.551   8.999  1.00  0.00     0.221 C 
HETATM   30  N   UNL     1      45.181 -11.580   7.673  1.00  0.00    -0.181 NA
HETATM   31  C   UNL     1      44.409 -12.185   6.763  1.00  0.00     0.160 A 
BRANCH  29  32
HETATM   32  C   UNL     1      44.667  -9.986  10.421  1.00  0.00     0.409 C 
HETATM   33  F   UNL     1      44.472  -8.954  11.269  1.00  0.00    -0.169 F 
HETATM   34  F   UNL     1      43.600 -10.808  10.523  1.00  0.00    -0.169 F 
HETATM   35  F   UNL     1      45.734 -10.681  10.896  1.00  0.00    -0.169 F 
ENDBRANCH  29  32
ENDBRANCH   1  21
TORSDOF 8
ENDMDL
MODEL 2
REMARK VINA RESULT:      -7.7      4.353      9.282
REMARK  8 active torsions:
REMARK  status: ('A' for Active; 'I' for Inactive)
REMARK    1  A    between atoms: C_8  and  C_9 
REMARK       I    between atoms: C_9  and  N_10 
REMARK    2  A    between atoms: N_10  and  N_11 
REMARK    3  A    between atoms: N_11  and  C_12 
REMARK    4  A    between atoms: C_12  and  N_13 
REMARK    5  A    between atoms: N_13  and  C_14 
REMARK    6  A    between atoms: C_15  and  O_16 
REMARK    7  A    between atoms: C_19  and  O_20 
REMARK    8  A    between atoms: C_26  and  C_27 
ROOT
HETATM    1  C   UNL     1      42.542 -13.053   6.117  1.00  0.00     0.275 C 
HETATM    2  N   UNL     1      43.087 -12.569   7.291  1.00  0.00    -0.263 N 
HETATM    3  O   UNL     1      42.084 -12.318   5.245  1.00  0.00    -0.266 OA
HETATM    4  H   UNL     1      43.218 -13.177   8.096  1.00  0.00     0.190 HD
ENDROOT
BRANCH   2   5
HETATM    5  N   UNL     1      43.165 -11.186   7.489  1.00  0.00    -0.273 N 
HETATM    6  H   UNL     1      42.325 -10.770   7.895  1.00  0.00     0.189 HD
BRANCH   5   7
HETATM    7  C   UNL     1      44.358 -10.562   7.740  1.00  0.00     0.191 C 
HETATM    8  S   UNL     1      45.820 -10.998   7.045  1.00  0.00    -0.039 SA
BRANCH   7   9
HETATM    9  N   UNL     1      44.344  -9.527   8.631  1.00  0.00    -0.330 N 
HETATM   10  H   UNL     1      44.664  -8.638   8.253  1.00  0.00     0.168 HD
BRANCH   9  11
HETATM   11  C   UNL     1      43.865  -9.437   9.959  1.00  0.00     0.068 A 
HETATM   12  C   UNL     1      43.443  -8.165  10.405  1.00  0.00     0.097 A 
HETATM   13  C   UNL     1      42.915  -8.011  11.695  1.00  0.00     0.075 A 
HETATM   14  C   UNL     1      42.792  -9.115  12.540  1.00  0.00     0.070 A 
HETATM   15  C   UNL     1      43.196 -10.371  12.090  1.00  0.00     0.039 A 
HETATM   16  C   UNL     1      43.718 -10.536  10.806  1.00  0.00     0.035 A 
BRANCH  12  17
HETATM   17  O   UNL     1      43.586  -7.146   9.490  1.00  0.00    -0.354 OA
HETATM   18  C   UNL     1      42.754  -6.004   9.650  1.00  0.00     0.210 C 
ENDBRANCH  12  17
BRANCH  14  19
HETATM   19  O   UNL     1      42.288  -9.108  13.812  1.00  0.00    -0.356 OA
HETATM   20  C   UNL     1      40.881  -9.256  13.955  1.00  0.00     0.210 C 
ENDBRANCH  14  19
ENDBRANCH   9  11
ENDBRANCH   7   9
ENDBRANCH   5   7
ENDBRANCH   2   5
BRANCH   1  21
HETATM   21  C   UNL     1      42.552 -14.494   6.007  1.00  0.00     0.098 A 
HETATM   22  C   UNL     1      42.848 -15.278   4.906  1.00  0.00     0.138 A 
HETATM   23  N   UNL     1      43.149 -14.993   3.614  1.00  0.00    -0.370 N 
HETATM   24  N   UNL     1      42.714 -16.576   5.328  1.00  0.00    -0.240 N 
HETATM   25  C   UNL     1      43.353 -16.047   2.620  1.00  0.00     0.081 C 
HETATM   26  H   UNL     1      43.048 -14.048   3.243  1.00  0.00     0.161 HD
HETATM   27  C   UNL     1      42.914 -15.540   1.248  1.00  0.00     0.032 C 
HETATM   28  C   UNL     1      42.565 -17.308   3.009  1.00  0.00     0.061 C 
HETATM   29  C   UNL     1      42.853 -17.730   4.460  1.00  0.00     0.221 C 
HETATM   30  N   UNL     1      42.267 -16.699   6.589  1.00  0.00    -0.181 NA
HETATM   31  C   UNL     1      42.181 -15.430   7.004  1.00  0.00     0.160 A 
BRANCH  29  32
HETATM   32  C   UNL     1      44.225 -18.341   4.632  1.00  0.00     0.409 C 
HETATM   33  F   UNL     1      44.241 -19.385   5.490  1.00  0.00    -0.169 F 
HETATM   34  F   UNL     1      44.759 -18.761   3.466  1.00  0.00    -0.169 F 
HETATM   35  F   UNL     1      45.080 -17.413   5.136  1.00  0.00    -0.169 F 
ENDBRANCH  29  32
ENDBRANCH   1  21
TORSDOF 8
ENDMDL
MODEL 3
REMARK VINA RESULT:      -7.4      1.765      2.193
REMARK  8 active torsions:
REMARK  status: ('A' for Active; 'I' for Inactive)
REMARK    1  A    between atoms: C_8  and  C_9 
REMARK       I    between atoms: C_9  and  N_10 
REMARK    2  A    between atoms: N_10  and  N_11 
REMARK    3  A    between atoms: N_11  and  C_12 
REMARK    4  A    between atoms: C_12  and  N_13 
REMARK    5  A    between atoms: N_13  and  C_14 
REMARK    6  A    between atoms: C_15  and  O_16 
REMARK    7  A    between atoms: C_19  and  O_20 
REMARK    8  A    between atoms: C_26  and  C_27 
ROOT
HETATM    1  C   UNL     1      43.922 -11.728   6.510  1.00  0.00     0.275 C 
HETATM    2  N   UNL     1      43.127 -12.799   6.869  1.00  0.00    -0.263 N 
HETATM    3  O   UNL     1      44.379 -11.590   5.377  1.00  0.00    -0.266 OA
HETATM    4  H   UNL     1      42.978 -13.035   7.847  1.00  0.00     0.190 HD
ENDROOT
BRANCH   2   5
HETATM    5  N   UNL     1      42.783 -13.750   5.901  1.00  0.00    -0.273 N 
HETATM    6  H   UNL     1      43.447 -14.521   5.813  1.00  0.00     0.189 HD
BRANCH   5   7
HETATM    7  C   UNL     1      41.476 -14.007   5.578  1.00  0.00     0.191 C 
HETATM    8  S   UNL     1      40.227 -12.900   5.733  1.00  0.00    -0.039 SA
BRANCH   7   9
HETATM    9  N   UNL     1      41.185 -15.258   5.117  1.00  0.00    -0.330 N 
HETATM   10  H   UNL     1      40.201 -15.511   5.170  1.00  0.00     0.168 HD
BRANCH   9  11
HETATM   11  C   UNL     1      41.985 -16.235   4.478  1.00  0.00     0.068 A 
HETATM   12  C   UNL     1      42.796 -17.042   5.305  1.00  0.00     0.097 A 
HETATM   13  C   UNL     1      43.581 -18.060   4.744  1.00  0.00     0.075 A 
HETATM   14  C   UNL     1      43.555 -18.288   3.366  1.00  0.00     0.070 A 
HETATM   15  C   UNL     1      42.741 -17.498   2.556  1.00  0.00     0.039 A 
HETATM   16  C   UNL     1      41.953 -16.485   3.105  1.00  0.00     0.035 A 
BRANCH  12  17
HETATM   17  O   UNL     1      42.736 -16.751   6.650  1.00  0.00    -0.354 OA
HETATM   18  C   UNL     1      43.936 -16.883   7.400  1.00  0.00     0.210 C 
ENDBRANCH  12  17
BRANCH  14  19
HETATM   19  O   UNL     1      44.259 -19.248   2.692  1.00  0.00    -0.356 OA
HETATM   20  C   UNL     1      43.510 -20.251   2.017  1.00  0.00     0.210 C 
ENDBRANCH  14  19
ENDBRANCH   9  11
ENDBRANCH   7   9
ENDBRANCH   5   7
ENDBRANCH   2   5
BRANCH   1  21
HETATM   21  C   UNL     1      44.177 -10.791   7.581  1.00  0.00     0.098 A 
HETATM   22  C   UNL     1      43.276 -10.017   8.289  1.00  0.00     0.138 A 
HETATM   23  N   UNL     1      41.936  -9.827   8.193  1.00  0.00    -0.370 N 
HETATM   24  N   UNL     1      44.026  -9.307   9.192  1.00  0.00    -0.240 N 
HETATM   25  C   UNL     1      41.231  -8.871   9.048  1.00  0.00     0.081 C 
HETATM   26  H   UNL     1      41.405 -10.186   7.399  1.00  0.00     0.161 HD
HETATM   27  C   UNL     1      40.033  -8.302   8.289  1.00  0.00     0.032 C 
HETATM   28  C   UNL     1      42.180  -7.744   9.486  1.00  0.00     0.061 C 
HETATM   29  C   UNL     1      43.482  -8.303  10.086  1.00  0.00     0.221 C 
HETATM   30  N   UNL     1      45.350  -9.490   9.068  1.00  0.00    -0.181 NA
HETATM   31  C   UNL     1      45.440 -10.403   8.094  1.00  0.00     0.160 A 
BRANCH  29  32
HETATM   32  C   UNL     1      43.288  -8.891  11.465  1.00  0.00     0.409 C 
HETATM   33  F   UNL     1      43.376 -10.239  11.489  1.00  0.00    -0.169 F 
HETATM   34  F   UNL     1      44.168  -8.406  12.366  1.00  0.00    -0.169 F 
HETATM   35  F   UNL     1      42.050  -8.575  11.927  1.00  0.00    -0.169 F 
ENDBRANCH  29  32
ENDBRANCH   1  21
TORSDOF 8
ENDMDL
MODEL 4
REMARK VINA RESULT:      -7.4      4.522      9.226
REMARK  8 active torsions:
REMARK  status: ('A' for Active; 'I' for Inactive)
REMARK    1  A    between atoms: C_8  and  C_9 
REMARK       I    between atoms: C_9  and  N_10 
REMARK    2  A    between atoms: N_10  and  N_11 
REMARK    3  A    between atoms: N_11  and  C_12 
REMARK    4  A    between atoms: C_12  and  N_13 
REMARK    5  A    between atoms: N_13  and  C_14 
REMARK    6  A    between atoms: C_15  and  O_16 
REMARK    7  A    between atoms: C_19  and  O_20 
REMARK    8  A    between atoms: C_26  and  C_27 
ROOT
HETATM    1  C   UNL     1      43.227 -13.209   6.157  1.00  0.00     0.275 C 
HETATM    2  N   UNL     1      43.159 -11.950   6.719  1.00  0.00    -0.263 N 
HETATM    3  O   UNL     1      43.762 -14.161   6.722  1.00  0.00    -0.266 OA
HETATM    4  H   UNL     1      42.956 -11.132   6.148  1.00  0.00     0.190 HD
ENDROOT
BRANCH   2   5
HETATM    5  N   UNL     1      43.677 -11.745   8.003  1.00  0.00    -0.273 N 
HETATM    6  H   UNL     1      43.687 -12.580   8.592  1.00  0.00     0.189 HD
BRANCH   5   7
HETATM    7  C   UNL     1      44.629 -10.791   8.250  1.00  0.00     0.191 C 
HETATM    8  S   UNL     1      46.121 -10.722   7.487  1.00  0.00    -0.039 SA
BRANCH   7   9
HETATM    9  N   UNL     1      44.337  -9.851   9.195  1.00  0.00    -0.330 N 
HETATM   10  H   UNL     1      44.837  -8.971   9.087  1.00  0.00     0.168 HD
BRANCH   9  11
HETATM   11  C   UNL     1      43.385  -9.833  10.241  1.00  0.00     0.068 A 
HETATM   12  C   UNL     1      42.085  -9.384   9.921  1.00  0.00     0.097 A 
HETATM   13  C   UNL     1      41.079  -9.383  10.898  1.00  0.00     0.075 A 
HETATM   14  C   UNL     1      41.354  -9.837  12.189  1.00  0.00     0.070 A 
HETATM   15  C   UNL     1      42.634 -10.293  12.497  1.00  0.00     0.039 A 
HETATM   16  C   UNL     1      43.642 -10.304  11.530  1.00  0.00     0.035 A 
BRANCH  12  17
HETATM   17  O   UNL     1      41.911  -8.976   8.617  1.00  0.00    -0.354 OA
HETATM   18  C   UNL     1      40.735  -9.413   7.948  1.00  0.00     0.210 C 
ENDBRANCH  12  17
BRANCH  14  19
HETATM   19  O   UNL     1      40.469  -9.899  13.230  1.00  0.00    -0.356 OA
HETATM   20  C   UNL     1      39.379 -10.803  13.105  1.00  0.00     0.210 C 
ENDBRANCH  14  19
ENDBRANCH   9  11
ENDBRANCH   7   9
ENDBRANCH   5   7
ENDBRANCH   2   5
BRANCH   1  21
HETATM   21  C   UNL     1      42.625 -13.310   4.847  1.00  0.00     0.098 A 
HETATM   22  C   UNL     1      42.432 -14.434   4.064  1.00  0.00     0.138 A 
HETATM   23  N   UNL     1      42.775 -15.739   4.210  1.00  0.00    -0.370 N 
HETATM   24  N   UNL     1      41.819 -13.990   2.920  1.00  0.00    -0.240 N 
HETATM   25  C   UNL     1      42.501 -16.728   3.166  1.00  0.00     0.081 C 
HETATM   26  H   UNL     1      43.408 -16.041   4.951  1.00  0.00     0.161 HD
HETATM   27  C   UNL     1      43.580 -17.809   3.199  1.00  0.00     0.032 C 
HETATM   28  C   UNL     1      42.454 -16.051   1.787  1.00  0.00     0.061 C 
HETATM   29  C   UNL     1      41.509 -14.837   1.785  1.00  0.00     0.221 C 
HETATM   30  N   UNL     1      41.679 -12.656   2.858  1.00  0.00    -0.181 NA
HETATM   31  C   UNL     1      42.159 -12.245   4.037  1.00  0.00     0.160 A 
BRANCH  29  32
HETATM   32  C   UNL     1      40.050 -15.229   1.818  1.00  0.00     0.409 C 
HETATM   33  F   UNL     1      39.680 -15.819   2.975  1.00  0.00    -0.169 F 
HETATM   34  F   UNL     1      39.224 -14.182   1.609  1.00  0.00    -0.169 F 
HETATM   35  F   UNL     1      39.794 -16.124   0.828  1.00  0.00    -0.169 F 
ENDBRANCH  29  32
ENDBRANCH   1  21
TORSDOF 8
ENDMDL
MODEL 5
REMARK VINA RESULT:      -7.3      4.517      9.289
REMARK  8 active torsions:
REMARK  status: ('A' for Active; 'I' for Inactive)
REMARK    1  A    between atoms: C_8  and  C_9 
REMARK       I    between atoms: C_9  and  N_10 
REMARK    2  A    between atoms: N_10  and  N_11 
REMARK    3  A    between atoms: N_11  and  C_12 
REMARK    4  A    between atoms: C_12  and  N_13 
REMARK    5  A    between atoms: N_13  and  C_14 
REMARK    6  A    between atoms: C_15  and  O_16 
REMARK    7  A    between atoms: C_19  and  O_20 
REMARK    8  A    between atoms: C_26  and  C_27 
ROOT
HETATM    1  C   UNL     1      40.502 -12.847   6.068  1.00  0.00     0.275 C 
HETATM    2  N   UNL     1      41.655 -12.149   6.373  1.00  0.00    -0.263 N 
HETATM    3  O   UNL     1      39.382 -12.450   6.383  1.00  0.00    -0.266 OA
HETATM    4  H   UNL     1      42.565 -12.603   6.342  1.00  0.00     0.190 HD
ENDROOT
BRANCH   2   5
HETATM    5  N   UNL     1      41.554 -10.917   7.029  1.00  0.00    -0.273 N 
HETATM    6  H   UNL     1      40.664 -10.765   7.507  1.00  0.00     0.189 HD
BRANCH   5   7
HETATM    7  C   UNL     1      42.656 -10.282   7.538  1.00  0.00     0.191 C 
HETATM    8  S   UNL     1      44.240 -10.726   7.215  1.00  0.00    -0.039 SA
BRANCH   7   9
HETATM    9  N   UNL     1      42.434  -9.227   8.376  1.00  0.00    -0.330 N 
HETATM   10  H   UNL     1      42.135  -8.372   7.912  1.00  0.00     0.168 HD
BRANCH   9  11
HETATM   11  C   UNL     1      42.442  -9.130   9.788  1.00  0.00     0.068 A 
HETATM   12  C   UNL     1      41.217  -9.353  10.454  1.00  0.00     0.097 A 
HETATM   13  C   UNL     1      41.161  -9.317  11.855  1.00  0.00     0.075 A 
HETATM   14  C   UNL     1      42.317  -9.073  12.598  1.00  0.00     0.070 A 
HETATM   15  C   UNL     1      43.526  -8.868  11.936  1.00  0.00     0.039 A 
HETATM   16  C   UNL     1      43.594  -8.906  10.542  1.00  0.00     0.035 A 
BRANCH  12  17
HETATM   17  O   UNL     1      40.140  -9.606   9.633  1.00  0.00    -0.354 OA
HETATM   18  C   UNL     1      39.082  -8.656   9.634  1.00  0.00     0.210 C 
ENDBRANCH  12  17
BRANCH  14  19
HETATM   19  O   UNL     1      42.406  -9.020  13.962  1.00  0.00    -0.356 OA
HETATM   20  C   UNL     1      41.247  -8.604  14.674  1.00  0.00     0.210 C 
ENDBRANCH  14  19
ENDBRANCH   9  11
ENDBRANCH   7   9
ENDBRANCH   5   7
ENDBRANCH   2   5
BRANCH   1  21
HETATM   21  C   UNL     1      40.727 -14.084   5.355  1.00  0.00     0.098 A 
HETATM   22  C   UNL     1      41.017 -14.273   4.016  1.00  0.00     0.138 A 
HETATM   23  N   UNL     1      41.121 -13.430   2.958  1.00  0.00    -0.370 N 
HETATM   24  N   UNL     1      41.138 -15.629   3.850  1.00  0.00    -0.240 N 
HETATM   25  C   UNL     1      41.375 -13.921   1.603  1.00  0.00     0.081 C 
HETATM   26  H   UNL     1      40.830 -12.454   3.027  1.00  0.00     0.161 HD
HETATM   27  C   UNL     1      40.708 -12.988   0.593  1.00  0.00     0.032 C 
HETATM   28  C   UNL     1      40.845 -15.355   1.447  1.00  0.00     0.061 C 
HETATM   29  C   UNL     1      41.359 -16.273   2.570  1.00  0.00     0.221 C 
HETATM   30  N   UNL     1      40.862 -16.342   4.954  1.00  0.00    -0.181 NA
HETATM   31  C   UNL     1      40.624 -15.399   5.872  1.00  0.00     0.160 A 
BRANCH  29  32
HETATM   32  C   UNL     1      42.820 -16.627   2.416  1.00  0.00     0.409 C 
HETATM   33  F   UNL     1      43.295 -16.411   1.170  1.00  0.00    -0.169 F 
HETATM   34  F   UNL     1      43.613 -15.957   3.279  1.00  0.00    -0.169 F 
HETATM   35  F   UNL     1      43.001 -17.949   2.675  1.00  0.00    -0.169 F 
ENDBRANCH  29  32
ENDBRANCH   1  21
TORSDOF 8
ENDMDL
MODEL 6
REMARK VINA RESULT:      -7.2      5.837      8.046
REMARK  8 active torsions:
REMARK  status: ('A' for Active; 'I' for Inactive)
REMARK    1  A    between atoms: C_8  and  C_9 
REMARK       I    between atoms: C_9  and  N_10 
REMARK    2  A    between atoms: N_10  and  N_11 
REMARK    3  A    between atoms: N_11  and  C_12 
REMARK    4  A    between atoms: C_12  and  N_13 
REMARK    5  A    between atoms: N_13  and  C_14 
REMARK    6  A    between atoms: C_15  and  O_16 
REMARK    7  A    between atoms: C_19  and  O_20 
REMARK    8  A    between atoms: C_26  and  C_27 
ROOT
HETATM    1  C   UNL     1      39.726 -13.483   2.199  1.00  0.00     0.275 C 
HETATM    2  N   UNL     1      40.726 -14.258   2.753  1.00  0.00    -0.263 N 
HETATM    3  O   UNL     1      38.855 -12.940   2.875  1.00  0.00    -0.266 OA
HETATM    4  H   UNL     1      41.269 -14.900   2.180  1.00  0.00     0.190 HD
ENDROOT
BRANCH   2   5
HETATM    5  N   UNL     1      40.787 -14.404   4.144  1.00  0.00    -0.273 N 
HETATM    6  H   UNL     1      40.093 -15.046   4.531  1.00  0.00     0.189 HD
BRANCH   5   7
HETATM    7  C   UNL     1      41.964 -14.265   4.831  1.00  0.00     0.191 C 
HETATM    8  S   UNL     1      42.128 -13.418   6.268  1.00  0.00    -0.039 SA
BRANCH   7   9
HETATM    9  N   UNL     1      43.074 -14.846   4.287  1.00  0.00    -0.330 N 
HETATM   10  H   UNL     1      43.875 -14.225   4.193  1.00  0.00     0.168 HD
BRANCH   9  11
HETATM   11  C   UNL     1      43.351 -16.185   3.923  1.00  0.00     0.068 A 
HETATM   12  C   UNL     1      43.955 -17.004   4.901  1.00  0.00     0.097 A 
HETATM   13  C   UNL     1      44.218 -18.354   4.625  1.00  0.00     0.075 A 
HETATM   14  C   UNL     1      43.873 -18.897   3.386  1.00  0.00     0.070 A 
HETATM   15  C   UNL     1      43.263 -18.087   2.429  1.00  0.00     0.039 A 
HETATM   16  C   UNL     1      42.993 -16.744   2.696  1.00  0.00     0.035 A 
BRANCH  12  17
HETATM   17  O   UNL     1      44.238 -16.381   6.096  1.00  0.00    -0.354 OA
HETATM   18  C   UNL     1      43.719 -16.972   7.280  1.00  0.00     0.210 C 
ENDBRANCH  12  17
BRANCH  14  19
HETATM   19  O   UNL     1      44.062 -20.192   2.990  1.00  0.00    -0.356 OA
HETATM   20  C   UNL     1      43.544 -20.566   1.719  1.00  0.00     0.210 C 
ENDBRANCH  14  19
ENDBRANCH   9  11
ENDBRANCH   7   9
ENDBRANCH   5   7
ENDBRANCH   2   5
BRANCH   1  21
HETATM   21  C   UNL     1      39.788 -13.372   0.759  1.00  0.00     0.098 A 
HETATM   22  C   UNL     1      39.276 -12.380  -0.057  1.00  0.00     0.138 A 
HETATM   23  N   UNL     1      38.530 -11.272   0.181  1.00  0.00    -0.370 N 
HETATM   24  N   UNL     1      39.608 -12.745  -1.337  1.00  0.00    -0.240 N 
HETATM   25  C   UNL     1      38.055 -10.416  -0.907  1.00  0.00     0.081 C 
HETATM   26  H   UNL     1      38.105 -11.105   1.094  1.00  0.00     0.161 HD
HETATM   27  C   UNL     1      36.719  -9.789  -0.510  1.00  0.00     0.032 C 
HETATM   28  C   UNL     1      37.908 -11.228  -2.202  1.00  0.00     0.061 C 
HETATM   29  C   UNL     1      39.189 -12.020  -2.521  1.00  0.00     0.221 C 
HETATM   30  N   UNL     1      40.216 -13.939  -1.426  1.00  0.00    -0.181 NA
HETATM   31  C   UNL     1      40.336 -14.313  -0.148  1.00  0.00     0.160 A 
BRANCH  29  32
HETATM   32  C   UNL     1      40.315 -11.141  -3.013  1.00  0.00     0.409 C 
HETATM   33  F   UNL     1      40.958 -10.488  -2.020  1.00  0.00    -0.169 F 
HETATM   34  F   UNL     1      41.240 -11.825  -3.720  1.00  0.00    -0.169 F 
HETATM   35  F   UNL     1      39.822 -10.188  -3.847  1.00  0.00    -0.169 F 
ENDBRANCH  29  32
ENDBRANCH   1  21
TORSDOF 8
ENDMDL
MODEL 7
REMARK VINA RESULT:      -7.2      3.648      5.106
REMARK  8 active torsions:
REMARK  status: ('A' for Active; 'I' for Inactive)
REMARK    1  A    between atoms: C_8  and  C_9 
REMARK       I    between atoms: C_9  and  N_10 
REMARK    2  A    between atoms: N_10  and  N_11 
REMARK    3  A    between atoms: N_11  and  C_12 
REMARK    4  A    between atoms: C_12  and  N_13 
REMARK    5  A    between atoms: N_13  and  C_14 
REMARK    6  A    between atoms: C_15  and  O_16 
REMARK    7  A    between atoms: C_19  and  O_20 
REMARK    8  A    between atoms: C_26  and  C_27 
ROOT
HETATM    1  C   UNL     1      43.871 -10.421  10.032  1.00  0.00     0.275 C 
HETATM    2  N   UNL     1      43.321 -10.797   8.822  1.00  0.00    -0.263 N 
HETATM    3  O   UNL     1      44.840 -10.993  10.528  1.00  0.00    -0.266 OA
HETATM    4  H   UNL     1      42.386 -10.496   8.558  1.00  0.00     0.190 HD
ENDROOT
BRANCH   2   5
HETATM    5  N   UNL     1      43.907 -11.842   8.100  1.00  0.00    -0.273 N 
HETATM    6  H   UNL     1      44.246 -12.614   8.675  1.00  0.00     0.189 HD
BRANCH   5   7
HETATM    7  C   UNL     1      43.518 -12.137   6.819  1.00  0.00     0.191 C 
HETATM    8  S   UNL     1      44.179 -11.442   5.444  1.00  0.00    -0.039 SA
BRANCH   7   9
HETATM    9  N   UNL     1      42.513 -13.048   6.670  1.00  0.00    -0.330 N 
HETATM   10  H   UNL     1      41.697 -12.879   7.254  1.00  0.00     0.168 HD
BRANCH   9  11
HETATM   11  C   UNL     1      42.350 -14.130   5.773  1.00  0.00     0.068 A 
HETATM   12  C   UNL     1      41.362 -13.994   4.773  1.00  0.00     0.097 A 
HETATM   13  C   UNL     1      41.177 -15.008   3.823  1.00  0.00     0.075 A 
HETATM   14  C   UNL     1      41.976 -16.153   3.853  1.00  0.00     0.070 A 
HETATM   15  C   UNL     1      42.959 -16.276   4.833  1.00  0.00     0.039 A 
HETATM   16  C   UNL     1      43.155 -15.270   5.780  1.00  0.00     0.035 A 
BRANCH  12  17
HETATM   17  O   UNL     1      40.642 -12.820   4.816  1.00  0.00    -0.354 OA
HETATM   18  C   UNL     1      39.540 -12.698   3.928  1.00  0.00     0.210 C 
ENDBRANCH  12  17
BRANCH  14  19
HETATM   19  O   UNL     1      41.909 -17.209   2.986  1.00  0.00    -0.356 OA
HETATM   20  C   UNL     1      43.080 -17.513   2.239  1.00  0.00     0.210 C 
ENDBRANCH  14  19
ENDBRANCH   9  11
ENDBRANCH   7   9
ENDBRANCH   5   7
ENDBRANCH   2   5
BRANCH   1  21
HETATM   21  C   UNL     1      43.207  -9.306  10.668  1.00  0.00     0.098 A 
HETATM   22  C   UNL     1      42.190  -9.321  11.605  1.00  0.00     0.138 A 
HETATM   23  N   UNL     1      41.462 -10.316  12.172  1.00  0.00    -0.370 N 
HETATM   24  N   UNL     1      41.922  -8.005  11.883  1.00  0.00    -0.240 N 
HETATM   25  C   UNL     1      40.371 -10.035  13.106  1.00  0.00     0.081 C 
HETATM   26  H   UNL     1      41.509 -11.273  11.822  1.00  0.00     0.161 HD
HETATM   27  C   UNL     1      39.305 -11.121  12.980  1.00  0.00     0.032 C 
HETATM   28  C   UNL     1      39.769  -8.649  12.825  1.00  0.00     0.061 C 
HETATM   29  C   UNL     1      40.857  -7.563  12.762  1.00  0.00     0.221 C 
HETATM   30  N   UNL     1      42.620  -7.134  11.136  1.00  0.00    -0.181 NA
HETATM   31  C   UNL     1      43.411  -7.928  10.406  1.00  0.00     0.160 A 
BRANCH  29  32
HETATM   32  C   UNL     1      41.420  -7.216  14.121  1.00  0.00     0.409 C 
HETATM   33  F   UNL     1      42.464  -7.993  14.481  1.00  0.00    -0.169 F 
HETATM   34  F   UNL     1      41.816  -5.929  14.209  1.00  0.00    -0.169 F 
HETATM   35  F   UNL     1      40.463  -7.389  15.071  1.00  0.00    -0.169 F 
ENDBRANCH  29  32
ENDBRANCH   1  21
TORSDOF 8
ENDMDL
MODEL 8
REMARK VINA RESULT:      -7.1      6.216      8.193
REMARK  8 active torsions:
REMARK  status: ('A' for Active; 'I' for Inactive)
REMARK    1  A    between atoms: C_8  and  C_9 
REMARK       I    between atoms: C_9  and  N_10 
REMARK    2  A    between atoms: N_10  and  N_11 
REMARK    3  A    between atoms: N_11  and  C_12 
REMARK    4  A    between atoms: C_12  and  N_13 
REMARK    5  A    between atoms: N_13  and  C_14 
REMARK    6  A    between atoms: C_15  and  O_16 
REMARK    7  A    between atoms: C_19  and  O_20 
REMARK    8  A    between atoms: C_26  and  C_27 
ROOT
HETATM    1  C   UNL     1      39.648 -12.757   2.269  1.00  0.00     0.275 C 
HETATM    2  N   UNL     1      40.384 -13.892   2.550  1.00  0.00    -0.263 N 
HETATM    3  O   UNL     1      38.704 -12.388   2.965  1.00  0.00    -0.266 OA
HETATM    4  H   UNL     1      40.975 -14.320   1.841  1.00  0.00     0.190 HD
ENDROOT
BRANCH   2   5
HETATM    5  N   UNL     1      40.080 -14.638   3.694  1.00  0.00    -0.273 N 
HETATM    6  H   UNL     1      39.429 -15.409   3.535  1.00  0.00     0.189 HD
BRANCH   5   7
HETATM    7  C   UNL     1      40.976 -14.776   4.722  1.00  0.00     0.191 C 
HETATM    8  S   UNL     1      40.615 -14.510   6.337  1.00  0.00    -0.039 SA
BRANCH   7   9
HETATM    9  N   UNL     1      42.250 -15.139   4.390  1.00  0.00    -0.330 N 
HETATM   10  H   UNL     1      42.954 -14.425   4.566  1.00  0.00     0.168 HD
BRANCH   9  11
HETATM   11  C   UNL     1      42.791 -16.366   3.941  1.00  0.00     0.068 A 
HETATM   12  C   UNL     1      43.689 -17.027   4.807  1.00  0.00     0.097 A 
HETATM   13  C   UNL     1      44.229 -18.271   4.446  1.00  0.00     0.075 A 
HETATM   14  C   UNL     1      43.873 -18.866   3.235  1.00  0.00     0.070 A 
HETATM   15  C   UNL     1      42.975 -18.216   2.390  1.00  0.00     0.039 A 
HETATM   16  C   UNL     1      42.427 -16.981   2.742  1.00  0.00     0.035 A 
BRANCH  12  17
HETATM   17  O   UNL     1      43.961 -16.368   5.985  1.00  0.00    -0.354 OA
HETATM   18  C   UNL     1      43.676 -17.054   7.197  1.00  0.00     0.210 C 
ENDBRANCH  12  17
BRANCH  14  19
HETATM   19  O   UNL     1      44.315 -20.072   2.766  1.00  0.00    -0.356 OA
HETATM   20  C   UNL     1      43.645 -20.616   1.635  1.00  0.00     0.210 C 
ENDBRANCH  14  19
ENDBRANCH   9  11
ENDBRANCH   7   9
ENDBRANCH   5   7
ENDBRANCH   2   5
BRANCH   1  21
HETATM   21  C   UNL     1      40.078 -12.047   1.086  1.00  0.00     0.098 A 
HETATM   22  C   UNL     1      39.708 -12.250  -0.231  1.00  0.00     0.138 A 
HETATM   23  N   UNL     1      38.916 -13.166  -0.844  1.00  0.00    -0.370 N 
HETATM   24  N   UNL     1      40.396 -11.313  -0.959  1.00  0.00    -0.240 N 
HETATM   25  C   UNL     1      38.752 -13.192  -2.298  1.00  0.00     0.081 C 
HETATM   26  H   UNL     1      38.570 -13.986  -0.345  1.00  0.00     0.161 HD
HETATM   27  C   UNL     1      38.515 -14.631  -2.754  1.00  0.00     0.032 C 
HETATM   28  C   UNL     1      39.994 -12.604  -2.986  1.00  0.00     0.061 C 
HETATM   29  C   UNL     1      40.363 -11.227  -2.406  1.00  0.00     0.221 C 
HETATM   30  N   UNL     1      41.251 -10.575  -0.233  1.00  0.00    -0.181 NA
HETATM   31  C   UNL     1      41.047 -11.016   1.014  1.00  0.00     0.160 A 
BRANCH  29  32
HETATM   32  C   UNL     1      39.411 -10.135  -2.836  1.00  0.00     0.409 C 
HETATM   33  F   UNL     1      38.326 -10.025  -2.039  1.00  0.00    -0.169 F 
HETATM   34  F   UNL     1      40.002  -8.922  -2.895  1.00  0.00    -0.169 F 
HETATM   35  F   UNL     1      38.948 -10.397  -4.086  1.00  0.00    -0.169 F 
ENDBRANCH  29  32
ENDBRANCH   1  21
TORSDOF 8
ENDMDL
MODEL 9
REMARK VINA RESULT:      -7.1      2.529      3.414
REMARK  8 active torsions:
REMARK  status: ('A' for Active; 'I' for Inactive)
REMARK    1  A    between atoms: C_8  and  C_9 
REMARK       I    between atoms: C_9  and  N_10 
REMARK    2  A    between atoms: N_10  and  N_11 
REMARK    3  A    between atoms: N_11  and  C_12 
REMARK    4  A    between atoms: C_12  and  N_13 
REMARK    5  A    between atoms: N_13  and  C_14 
REMARK    6  A    between atoms: C_15  and  O_16 
REMARK    7  A    between atoms: C_19  and  O_20 
REMARK    8  A    between atoms: C_26  and  C_27 
ROOT
HETATM    1  C   UNL     1      43.983 -10.787   8.085  1.00  0.00     0.275 C 
HETATM    2  N   UNL     1      42.952 -11.320   7.336  1.00  0.00    -0.263 N 
HETATM    3  O   UNL     1      45.074 -11.342   8.204  1.00  0.00    -0.266 OA
HETATM    4  H   UNL     1      41.996 -10.994   7.457  1.00  0.00     0.190 HD
ENDROOT
BRANCH   2   5
HETATM    5  N   UNL     1      43.159 -12.518   6.644  1.00  0.00    -0.273 N 
HETATM    6  H   UNL     1      42.982 -13.359   7.195  1.00  0.00     0.189 HD
BRANCH   5   7
HETATM    7  C   UNL     1      42.976 -12.606   5.289  1.00  0.00     0.191 C 
HETATM    8  S   UNL     1      43.538 -11.480   4.182  1.00  0.00    -0.039 SA
BRANCH   7   9
HETATM    9  N   UNL     1      42.273 -13.681   4.825  1.00  0.00    -0.330 N 
HETATM   10  H   UNL     1      41.294 -13.491   4.622  1.00  0.00     0.168 HD
BRANCH   9  11
HETATM   11  C   UNL     1      42.679 -14.990   4.474  1.00  0.00     0.068 A 
HETATM   12  C   UNL     1      42.674 -15.961   5.498  1.00  0.00     0.097 A 
HETATM   13  C   UNL     1      43.021 -17.289   5.212  1.00  0.00     0.075 A 
HETATM   14  C   UNL     1      43.362 -17.661   3.910  1.00  0.00     0.070 A 
HETATM   15  C   UNL     1      43.351 -16.701   2.899  1.00  0.00     0.039 A 
HETATM   16  C   UNL     1      43.002 -15.377   3.173  1.00  0.00     0.035 A 
BRANCH  12  17
HETATM   17  O   UNL     1      42.303 -15.500   6.742  1.00  0.00    -0.354 OA
HETATM   18  C   UNL     1      43.124 -15.864   7.844  1.00  0.00     0.210 C 
ENDBRANCH  12  17
BRANCH  14  19
HETATM   19  O   UNL     1      43.710 -18.915   3.492  1.00  0.00    -0.356 OA
HETATM   20  C   UNL     1      43.238 -19.330   2.216  1.00  0.00     0.210 C 
ENDBRANCH  14  19
ENDBRANCH   9  11
ENDBRANCH   7   9
ENDBRANCH   5   7
ENDBRANCH   2   5
BRANCH   1  21
HETATM   21  C   UNL     1      43.668  -9.528   8.721  1.00  0.00     0.098 A 
HETATM   22  C   UNL     1      42.656  -9.239   9.619  1.00  0.00     0.138 A 
HETATM   23  N   UNL     1      41.633  -9.967  10.133  1.00  0.00    -0.370 N 
HETATM   24  N   UNL     1      42.794  -7.907   9.918  1.00  0.00    -0.240 N 
HETATM   25  C   UNL     1      40.641  -9.373  11.032  1.00  0.00     0.081 C 
HETATM   26  H   UNL     1      41.398 -10.888   9.762  1.00  0.00     0.161 HD
HETATM   27  C   UNL     1      39.299 -10.076  10.839  1.00  0.00     0.032 C 
HETATM   28  C   UNL     1      40.508  -7.867  10.761  1.00  0.00     0.061 C 
HETATM   29  C   UNL     1      41.879  -7.168  10.766  1.00  0.00     0.221 C 
HETATM   30  N   UNL     1      43.758  -7.287   9.219  1.00  0.00    -0.181 NA
HETATM   31  C   UNL     1      44.297  -8.278   8.500  1.00  0.00     0.160 A 
BRANCH  29  32
HETATM   32  C   UNL     1      42.461  -7.027  12.153  1.00  0.00     0.409 C 
HETATM   33  F   UNL     1      43.440  -7.920  12.416  1.00  0.00    -0.169 F 
HETATM   34  F   UNL     1      42.957  -5.794  12.388  1.00  0.00    -0.169 F 
HETATM   35  F   UNL     1      41.490  -7.234  13.081  1.00  0.00    -0.169 F 
ENDBRANCH  29  32
ENDBRANCH   1  21
TORSDOF 8
ENDMDL
MODEL 10
REMARK VINA RESULT:      -7.1      3.011      4.026
REMARK  8 active torsions:
REMARK  status: ('A' for Active; 'I' for Inactive)
REMARK    1  A    between atoms: C_8  and  C_9 
REMARK       I    between atoms: C_9  and  N_10 
REMARK    2  A    between atoms: N_10  and  N_11 
REMARK    3  A    between atoms: N_11  and  C_12 
REMARK    4  A    between atoms: C_12  and  N_13 
REMARK    5  A    between atoms: N_13  and  C_14 
REMARK    6  A    between atoms: C_15  and  O_16 
REMARK    7  A    between atoms: C_19  and  O_20 
REMARK    8  A    between atoms: C_26  and  C_27 
ROOT
HETATM    1  C   UNL     1      44.219 -11.959   7.042  1.00  0.00     0.275 C 
HETATM    2  N   UNL     1      43.507 -13.065   7.463  1.00  0.00    -0.263 N 
HETATM    3  O   UNL     1      44.695 -11.865   5.912  1.00  0.00    -0.266 OA
HETATM    4  H   UNL     1      43.351 -13.241   8.453  1.00  0.00     0.190 HD
ENDROOT
BRANCH   2   5
HETATM    5  N   UNL     1      43.274 -14.111   6.563  1.00  0.00    -0.273 N 
HETATM    6  H   UNL     1      43.509 -15.037   6.922  1.00  0.00     0.189 HD
BRANCH   5   7
HETATM    7  C   UNL     1      42.285 -14.037   5.617  1.00  0.00     0.191 C 
HETATM    8  S   UNL     1      40.799 -13.297   5.854  1.00  0.00    -0.039 SA
BRANCH   7   9
HETATM    9  N   UNL     1      42.534 -14.624   4.410  1.00  0.00    -0.330 N 
HETATM   10  H   UNL     1      43.398 -15.162   4.370  1.00  0.00     0.168 HD
BRANCH   9  11
HETATM   11  C   UNL     1      41.761 -14.711   3.228  1.00  0.00     0.068 A 
HETATM   12  C   UNL     1      41.989 -13.732   2.237  1.00  0.00     0.097 A 
HETATM   13  C   UNL     1      41.290 -13.783   1.022  1.00  0.00     0.075 A 
HETATM   14  C   UNL     1      40.375 -14.809   0.781  1.00  0.00     0.070 A 
HETATM   15  C   UNL     1      40.164 -15.782   1.757  1.00  0.00     0.039 A 
HETATM   16  C   UNL     1      40.858 -15.743   2.968  1.00  0.00     0.035 A 
BRANCH  12  17
HETATM   17  O   UNL     1      42.925 -12.775   2.562  1.00  0.00    -0.354 OA
HETATM   18  C   UNL     1      42.484 -11.424   2.622  1.00  0.00     0.210 C 
ENDBRANCH  12  17
BRANCH  14  19
HETATM   19  O   UNL     1      39.636 -14.984  -0.356  1.00  0.00    -0.356 OA
HETATM   20  C   UNL     1      39.852 -14.064  -1.420  1.00  0.00     0.210 C 
ENDBRANCH  14  19
ENDBRANCH   9  11
ENDBRANCH   7   9
ENDBRANCH   5   7
ENDBRANCH   2   5
BRANCH   1  21
HETATM   21  C   UNL     1      44.363 -10.927   8.044  1.00  0.00     0.098 A 
HETATM   22  C   UNL     1      43.388 -10.123   8.608  1.00  0.00     0.138 A 
HETATM   23  N   UNL     1      42.057  -9.982   8.388  1.00  0.00    -0.370 N 
HETATM   24  N   UNL     1      44.044  -9.317   9.503  1.00  0.00    -0.240 N 
HETATM   25  C   UNL     1      41.261  -8.979   9.097  1.00  0.00     0.081 C 
HETATM   26  H   UNL     1      41.602 -10.423   7.588  1.00  0.00     0.161 HD
HETATM   27  C   UNL     1      40.118  -8.512   8.197  1.00  0.00     0.032 C 
HETATM   28  C   UNL     1      42.145  -7.791   9.510  1.00  0.00     0.061 C 
HETATM   29  C   UNL     1      43.405  -8.258  10.259  1.00  0.00     0.221 C 
HETATM   30  N   UNL     1      45.378  -9.470   9.502  1.00  0.00    -0.181 NA
HETATM   31  C   UNL     1      45.569 -10.459   8.622  1.00  0.00     0.160 A 
BRANCH  29  32
HETATM   32  C   UNL     1      43.111  -8.732  11.664  1.00  0.00     0.409 C 
HETATM   33  F   UNL     1      41.936  -8.275  12.148  1.00  0.00    -0.169 F 
HETATM   34  F   UNL     1      43.103 -10.078  11.769  1.00  0.00    -0.169 F 
HETATM   35  F   UNL     1      44.077  -8.286  12.509  1.00  0.00    -0.169 F 
ENDBRANCH  29  32
ENDBRANCH   1  21
TORSDOF 8
ENDMDL
