MODEL 1
REMARK VINA RESULT:      -9.5      0.000      0.000
REMARK  5 active torsions:
REMARK  status: ('A' for Active; 'I' for Inactive)
REMARK    1  A    between atoms: C_4  and  C_5 
REMARK    2  A    between atoms: N_7  and  C_8 
REMARK    3  A    between atoms: C_15  and  C_16 
REMARK       I    between atoms: C_16  and  N_17 
REMARK    4  A    between atoms: N_17  and  N_18 
REMARK       I    between atoms: N_18  and  C_19 
REMARK    5  A    between atoms: C_19  and  C_20 
ROOT
HETATM    1  C   UNL     1      42.927 -15.013   4.012  1.00  0.00     0.105 A 
HETATM    2  N   UNL     1      43.489 -16.177   4.379  1.00  0.00    -0.166 NA
HETATM    3  N   UNL     1      43.028 -17.103   3.515  1.00  0.00    -0.244 N 
HETATM    4  C   UNL     1      42.183 -16.541   2.590  1.00  0.00     0.138 A 
HETATM    5  C   UNL     1      42.102 -15.183   2.857  1.00  0.00     0.082 A 
ENDROOT
BRANCH   5   6
HETATM    6  C   UNL     1      41.342 -14.194   2.099  1.00  0.00     0.274 C 
HETATM    7  N   UNL     1      41.653 -14.133   0.753  1.00  0.00    -0.263 N 
HETATM    8  H   UNL     1      42.411 -14.654   0.323  1.00  0.00     0.190 HD
HETATM    9  O   UNL     1      40.488 -13.463   2.594  1.00  0.00    -0.266 OA
BRANCH   7  10
HETATM   10  N   UNL     1      40.990 -13.224  -0.077  1.00  0.00    -0.263 N 
HETATM   11  C   UNL     1      39.883 -13.663  -0.765  1.00  0.00     0.275 C 
HETATM   12  O   UNL     1      39.505 -14.835  -0.703  1.00  0.00    -0.266 OA
HETATM   13  H   UNL     1      41.319 -12.251  -0.090  1.00  0.00     0.190 HD
BRANCH  11  14
HETATM   14  C   UNL     1      39.170 -12.640  -1.577  1.00  0.00     0.101 A 
HETATM   15  C   UNL     1      39.683 -12.113  -2.877  1.00  0.00     0.261 A 
HETATM   16  O   UNL     1      40.740 -12.501  -3.367  1.00  0.00    -0.267 OA
HETATM   17  N   UNL     1      38.908 -11.160  -3.501  1.00  0.00    -0.333 N 
HETATM   18  C   UNL     1      37.723 -10.688  -3.001  1.00  0.00     0.091 A 
HETATM   19  H   UNL     1      39.267 -10.806  -4.382  1.00  0.00     0.168 HD
HETATM   20  C   UNL     1      37.253 -11.155  -1.841  1.00  0.00     0.018 A 
HETATM   21  C   UNL     1      38.000 -12.156  -1.113  1.00  0.00     0.024 A 
ENDBRANCH  11  14
ENDBRANCH   7  10
ENDBRANCH   5   6
BRANCH   1  22
HETATM   22  C   UNL     1      43.248 -13.807   4.778  1.00  0.00    -0.005 A 
HETATM   23  C   UNL     1      43.438 -12.589   4.106  1.00  0.00     0.014 A 
HETATM   24  C   UNL     1      43.769 -11.429   4.810  1.00  0.00     0.001 A 
HETATM   25  C   UNL     1      43.922 -11.476   6.194  1.00  0.00     0.000 A 
HETATM   26  C   UNL     1      43.752 -12.682   6.871  1.00  0.00     0.001 A 
HETATM   27  C   UNL     1      43.425 -13.845   6.166  1.00  0.00     0.014 A 
ENDBRANCH   1  22
BRANCH   3  28
HETATM   28  C   UNL     1      43.433 -18.465   3.619  1.00  0.00     0.058 A 
HETATM   29  C   UNL     1      43.341 -19.298   2.491  1.00  0.00     0.031 A 
HETATM   30  C   UNL     1      43.724 -20.638   2.571  1.00  0.00     0.002 A 
HETATM   31  C   UNL     1      44.201 -21.158   3.772  1.00  0.00     0.000 A 
HETATM   32  C   UNL     1      44.298 -20.338   4.896  1.00  0.00     0.002 A 
HETATM   33  C   UNL     1      43.918 -18.994   4.824  1.00  0.00     0.031 A 
ENDBRANCH   3  28
TORSDOF 5
ENDMDL
MODEL 2
REMARK VINA RESULT:      -9.4      3.526      7.518
REMARK  5 active torsions:
REMARK  status: ('A' for Active; 'I' for Inactive)
REMARK    1  A    between atoms: C_4  and  C_5 
REMARK    2  A    between atoms: N_7  and  C_8 
REMARK    3  A    between atoms: C_15  and  C_16 
REMARK       I    between atoms: C_16  and  N_17 
REMARK    4  A    between atoms: N_17  and  N_18 
REMARK       I    between atoms: N_18  and  C_19 
REMARK    5  A    between atoms: C_19  and  C_20 
ROOT
HETATM    1  C   UNL     1      42.469 -14.879   3.405  1.00  0.00     0.105 A 
HETATM    2  N   UNL     1      42.724 -16.069   2.835  1.00  0.00    -0.166 NA
HETATM    3  N   UNL     1      43.055 -16.902   3.840  1.00  0.00    -0.244 N 
HETATM    4  C   UNL     1      43.003 -16.260   5.054  1.00  0.00     0.138 A 
HETATM    5  C   UNL     1      42.606 -14.952   4.826  1.00  0.00     0.082 A 
ENDROOT
BRANCH   5   6
HETATM    6  C   UNL     1      42.386 -13.924   5.839  1.00  0.00     0.274 C 
HETATM    7  N   UNL     1      43.506 -13.586   6.574  1.00  0.00    -0.263 N 
HETATM    8  H   UNL     1      44.397 -14.068   6.502  1.00  0.00     0.190 HD
HETATM    9  O   UNL     1      41.301 -13.384   6.038  1.00  0.00    -0.266 OA
BRANCH   7  10
HETATM   10  N   UNL     1      43.420 -12.612   7.573  1.00  0.00    -0.263 N 
HETATM   11  C   UNL     1      44.342 -11.592   7.564  1.00  0.00     0.275 C 
HETATM   12  O   UNL     1      45.257 -11.553   6.738  1.00  0.00    -0.266 OA
HETATM   13  H   UNL     1      42.635 -12.662   8.233  1.00  0.00     0.190 HD
BRANCH  11  14
HETATM   14  C   UNL     1      44.165 -10.540   8.602  1.00  0.00     0.101 A 
HETATM   15  C   UNL     1      42.958  -9.666   8.693  1.00  0.00     0.261 A 
HETATM   16  O   UNL     1      42.018  -9.765   7.909  1.00  0.00    -0.267 OA
HETATM   17  N   UNL     1      42.953  -8.732   9.707  1.00  0.00    -0.333 N 
HETATM   18  C   UNL     1      43.971  -8.573  10.608  1.00  0.00     0.091 A 
HETATM   19  H   UNL     1      42.129  -8.141   9.758  1.00  0.00     0.168 HD
HETATM   20  C   UNL     1      45.055  -9.353  10.538  1.00  0.00     0.018 A 
HETATM   21  C   UNL     1      45.149 -10.360   9.505  1.00  0.00     0.024 A 
ENDBRANCH  11  14
ENDBRANCH   7  10
ENDBRANCH   5   6
BRANCH   1  22
HETATM   22  C   UNL     1      42.075 -13.759   2.546  1.00  0.00    -0.005 A 
HETATM   23  C   UNL     1      41.340 -14.008   1.377  1.00  0.00     0.014 A 
HETATM   24  C   UNL     1      40.973 -12.961   0.528  1.00  0.00     0.001 A 
HETATM   25  C   UNL     1      41.344 -11.654   0.837  1.00  0.00     0.000 A 
HETATM   26  C   UNL     1      42.087 -11.396   1.987  1.00  0.00     0.001 A 
HETATM   27  C   UNL     1      42.459 -12.444   2.834  1.00  0.00     0.014 A 
ENDBRANCH   1  22
BRANCH   3  28
HETATM   28  C   UNL     1      43.386 -18.263   3.582  1.00  0.00     0.058 A 
HETATM   29  C   UNL     1      43.138 -18.802   2.309  1.00  0.00     0.031 A 
HETATM   30  C   UNL     1      43.446 -20.136   2.035  1.00  0.00     0.002 A 
HETATM   31  C   UNL     1      44.001 -20.942   3.026  1.00  0.00     0.000 A 
HETATM   32  C   UNL     1      44.253 -20.415   4.292  1.00  0.00     0.002 A 
HETATM   33  C   UNL     1      43.949 -19.080   4.574  1.00  0.00     0.031 A 
ENDBRANCH   3  28
TORSDOF 5
ENDMDL
MODEL 3
REMARK VINA RESULT:      -9.3      2.873      8.289
REMARK  5 active torsions:
REMARK  status: ('A' for Active; 'I' for Inactive)
REMARK    1  A    between atoms: C_4  and  C_5 
REMARK    2  A    between atoms: N_7  and  C_8 
REMARK    3  A    between atoms: C_15  and  C_16 
REMARK       I    between atoms: C_16  and  N_17 
REMARK    4  A    between atoms: N_17  and  N_18 
REMARK       I    between atoms: N_18  and  C_19 
REMARK    5  A    between atoms: C_19  and  C_20 
ROOT
HETATM    1  C   UNL     1      41.870 -15.289   2.389  1.00  0.00     0.105 A 
HETATM    2  N   UNL     1      41.522 -15.372   1.093  1.00  0.00    -0.166 NA
HETATM    3  N   UNL     1      40.789 -14.272   0.832  1.00  0.00    -0.244 N 
HETATM    4  C   UNL     1      40.674 -13.477   1.946  1.00  0.00     0.138 A 
HETATM    5  C   UNL     1      41.376 -14.083   2.976  1.00  0.00     0.082 A 
ENDROOT
BRANCH   5   6
HETATM    6  C   UNL     1      41.549 -13.566   4.330  1.00  0.00     0.274 C 
HETATM    7  N   UNL     1      42.632 -12.723   4.493  1.00  0.00    -0.263 N 
HETATM    8  H   UNL     1      43.321 -12.540   3.770  1.00  0.00     0.190 HD
HETATM    9  O   UNL     1      40.803 -13.841   5.266  1.00  0.00    -0.266 OA
BRANCH   7  10
HETATM   10  N   UNL     1      42.901 -12.163   5.746  1.00  0.00    -0.263 N 
HETATM   11  C   UNL     1      44.024 -11.381   5.878  1.00  0.00     0.275 C 
HETATM   12  O   UNL     1      44.810 -11.213   4.943  1.00  0.00    -0.266 OA
HETATM   13  H   UNL     1      42.216 -12.305   6.497  1.00  0.00     0.190 HD
BRANCH  11  14
HETATM   14  C   UNL     1      44.227 -10.748   7.209  1.00  0.00     0.101 A 
HETATM   15  C   UNL     1      43.154 -10.020   7.950  1.00  0.00     0.261 A 
HETATM   16  O   UNL     1      42.017  -9.901   7.502  1.00  0.00    -0.267 OA
HETATM   17  N   UNL     1      43.507  -9.480   9.167  1.00  0.00    -0.333 N 
HETATM   18  C   UNL     1      44.759  -9.579   9.716  1.00  0.00     0.091 A 
HETATM   19  H   UNL     1      42.772  -8.985   9.661  1.00  0.00     0.168 HD
HETATM   20  C   UNL     1      45.726 -10.231   9.063  1.00  0.00     0.018 A 
HETATM   21  C   UNL     1      45.448 -10.828   7.777  1.00  0.00     0.024 A 
ENDBRANCH  11  14
ENDBRANCH   7  10
ENDBRANCH   5   6
BRANCH   1  22
HETATM   22  C   UNL     1      42.685 -16.361   2.966  1.00  0.00    -0.005 A 
HETATM   23  C   UNL     1      42.883 -17.547   2.243  1.00  0.00     0.014 A 
HETATM   24  C   UNL     1      43.635 -18.594   2.780  1.00  0.00     0.001 A 
HETATM   25  C   UNL     1      44.192 -18.468   4.051  1.00  0.00     0.000 A 
HETATM   26  C   UNL     1      43.990 -17.301   4.786  1.00  0.00     0.001 A 
HETATM   27  C   UNL     1      43.232 -16.255   4.250  1.00  0.00     0.014 A 
ENDBRANCH   1  22
BRANCH   3  28
HETATM   28  C   UNL     1      40.257 -14.041  -0.469  1.00  0.00     0.058 A 
HETATM   29  C   UNL     1      40.542 -12.831  -1.124  1.00  0.00     0.031 A 
HETATM   30  C   UNL     1      40.024 -12.578  -2.395  1.00  0.00     0.002 A 
HETATM   31  C   UNL     1      39.219 -13.526  -3.023  1.00  0.00     0.000 A 
HETATM   32  C   UNL     1      38.933 -14.731  -2.381  1.00  0.00     0.002 A 
HETATM   33  C   UNL     1      39.449 -14.992  -1.109  1.00  0.00     0.031 A 
ENDBRANCH   3  28
TORSDOF 5
ENDMDL
MODEL 4
REMARK VINA RESULT:      -9.1      2.291      5.940
REMARK  5 active torsions:
REMARK  status: ('A' for Active; 'I' for Inactive)
REMARK    1  A    between atoms: C_4  and  C_5 
REMARK    2  A    between atoms: N_7  and  C_8 
REMARK    3  A    between atoms: C_15  and  C_16 
REMARK       I    between atoms: C_16  and  N_17 
REMARK    4  A    between atoms: N_17  and  N_18 
REMARK       I    between atoms: N_18  and  C_19 
REMARK    5  A    between atoms: C_19  and  C_20 
ROOT
HETATM    1  C   UNL     1      43.498 -14.288   5.877  1.00  0.00     0.105 A 
HETATM    2  N   UNL     1      44.177 -13.613   6.820  1.00  0.00    -0.166 NA
HETATM    3  N   UNL     1      43.958 -12.306   6.576  1.00  0.00    -0.244 N 
HETATM    4  C   UNL     1      43.134 -12.137   5.490  1.00  0.00     0.138 A 
HETATM    5  C   UNL     1      42.791 -13.393   5.015  1.00  0.00     0.082 A 
ENDROOT
BRANCH   5   6
HETATM    6  C   UNL     1      41.902 -13.684   3.894  1.00  0.00     0.274 C 
HETATM    7  N   UNL     1      42.502 -13.624   2.650  1.00  0.00    -0.263 N 
HETATM    8  H   UNL     1      43.455 -13.311   2.495  1.00  0.00     0.190 HD
HETATM    9  O   UNL     1      40.714 -13.965   4.021  1.00  0.00    -0.266 OA
BRANCH   7  10
HETATM   10  N   UNL     1      41.752 -13.886   1.499  1.00  0.00    -0.263 N 
HETATM   11  C   UNL     1      41.306 -12.816   0.760  1.00  0.00     0.275 C 
HETATM   12  O   UNL     1      41.508 -11.652   1.117  1.00  0.00    -0.266 OA
HETATM   13  H   UNL     1      41.620 -14.865   1.219  1.00  0.00     0.190 HD
BRANCH  11  14
HETATM   14  C   UNL     1      40.577 -13.145  -0.494  1.00  0.00     0.101 A 
HETATM   15  C   UNL     1      39.793 -14.402  -0.687  1.00  0.00     0.261 A 
HETATM   16  O   UNL     1      39.695 -15.252   0.193  1.00  0.00    -0.267 OA
HETATM   17  N   UNL     1      39.184 -14.563  -1.913  1.00  0.00    -0.333 N 
HETATM   18  C   UNL     1      39.260 -13.651  -2.932  1.00  0.00     0.091 A 
HETATM   19  H   UNL     1      38.656 -15.421  -2.035  1.00  0.00     0.168 HD
HETATM   20  C   UNL     1      39.957 -12.521  -2.770  1.00  0.00     0.018 A 
HETATM   21  C   UNL     1      40.631 -12.268  -1.516  1.00  0.00     0.024 A 
ENDBRANCH  11  14
ENDBRANCH   7  10
ENDBRANCH   5   6
BRANCH   1  22
HETATM   22  C   UNL     1      43.547 -15.752   5.890  1.00  0.00    -0.005 A 
HETATM   23  C   UNL     1      43.721 -16.449   4.685  1.00  0.00     0.014 A 
HETATM   24  C   UNL     1      43.747 -17.846   4.665  1.00  0.00     0.001 A 
HETATM   25  C   UNL     1      43.593 -18.560   5.851  1.00  0.00     0.000 A 
HETATM   26  C   UNL     1      43.404 -17.879   7.053  1.00  0.00     0.001 A 
HETATM   27  C   UNL     1      43.373 -16.482   7.071  1.00  0.00     0.014 A 
ENDBRANCH   1  22
BRANCH   3  28
HETATM   28  C   UNL     1      44.537 -11.301   7.403  1.00  0.00     0.058 A 
HETATM   29  C   UNL     1      43.842 -10.863   8.542  1.00  0.00     0.031 A 
HETATM   30  C   UNL     1      44.385  -9.873   9.362  1.00  0.00     0.002 A 
HETATM   31  C   UNL     1      45.621  -9.311   9.054  1.00  0.00     0.000 A 
HETATM   32  C   UNL     1      46.319  -9.741   7.926  1.00  0.00     0.002 A 
HETATM   33  C   UNL     1      45.783 -10.734   7.100  1.00  0.00     0.031 A 
ENDBRANCH   3  28
TORSDOF 5
ENDMDL
MODEL 5
REMARK VINA RESULT:      -8.6      3.541      8.340
REMARK  5 active torsions:
REMARK  status: ('A' for Active; 'I' for Inactive)
REMARK    1  A    between atoms: C_4  and  C_5 
REMARK    2  A    between atoms: N_7  and  C_8 
REMARK    3  A    between atoms: C_15  and  C_16 
REMARK       I    between atoms: C_16  and  N_17 
REMARK    4  A    between atoms: N_17  and  N_18 
REMARK       I    between atoms: N_18  and  C_19 
REMARK    5  A    between atoms: C_19  and  C_20 
ROOT
HETATM    1  C   UNL     1      42.655 -11.221   5.309  1.00  0.00     0.105 A 
HETATM    2  N   UNL     1      42.006 -10.115   4.907  1.00  0.00    -0.166 NA
HETATM    3  N   UNL     1      41.067 -10.529   4.035  1.00  0.00    -0.244 N 
HETATM    4  C   UNL     1      41.099 -11.894   3.882  1.00  0.00     0.138 A 
HETATM    5  C   UNL     1      42.098 -12.391   4.704  1.00  0.00     0.082 A 
ENDROOT
BRANCH   5   6
HETATM    6  C   UNL     1      42.456 -13.794   4.883  1.00  0.00     0.274 C 
HETATM    7  N   UNL     1      41.935 -14.650   3.932  1.00  0.00    -0.263 N 
HETATM    8  H   UNL     1      41.276 -14.365   3.214  1.00  0.00     0.190 HD
HETATM    9  O   UNL     1      43.164 -14.207   5.798  1.00  0.00    -0.266 OA
BRANCH   7  10
HETATM   10  N   UNL     1      42.209 -16.020   3.997  1.00  0.00    -0.263 N 
HETATM   11  C   UNL     1      43.017 -16.565   3.027  1.00  0.00     0.275 C 
HETATM   12  O   UNL     1      43.451 -15.890   2.090  1.00  0.00    -0.266 OA
HETATM   13  H   UNL     1      41.850 -16.549   4.800  1.00  0.00     0.190 HD
BRANCH  11  14
HETATM   14  C   UNL     1      43.340 -18.010   3.180  1.00  0.00     0.101 A 
HETATM   15  C   UNL     1      43.955 -18.592   4.411  1.00  0.00     0.261 A 
HETATM   16  O   UNL     1      44.231 -17.906   5.391  1.00  0.00    -0.267 OA
HETATM   17  N   UNL     1      44.202 -19.948   4.390  1.00  0.00    -0.333 N 
HETATM   18  C   UNL     1      43.917 -20.762   3.327  1.00  0.00     0.091 A 
HETATM   19  H   UNL     1      44.622 -20.333   5.229  1.00  0.00     0.168 HD
HETATM   20  C   UNL     1      43.365 -20.253   2.221  1.00  0.00     0.018 A 
HETATM   21  C   UNL     1      43.071 -18.839   2.152  1.00  0.00     0.024 A 
ENDBRANCH  11  14
ENDBRANCH   7  10
ENDBRANCH   5   6
BRANCH   1  22
HETATM   22  C   UNL     1      43.746 -11.082   6.276  1.00  0.00    -0.005 A 
HETATM   23  C   UNL     1      43.468 -10.629   7.575  1.00  0.00     0.014 A 
HETATM   24  C   UNL     1      44.493 -10.464   8.510  1.00  0.00     0.001 A 
HETATM   25  C   UNL     1      45.810 -10.744   8.152  1.00  0.00     0.000 A 
HETATM   26  C   UNL     1      46.102 -11.181   6.861  1.00  0.00     0.001 A 
HETATM   27  C   UNL     1      45.076 -11.341   5.924  1.00  0.00     0.014 A 
ENDBRANCH   1  22
BRANCH   3  28
HETATM   28  C   UNL     1      40.187  -9.598   3.412  1.00  0.00     0.058 A 
HETATM   29  C   UNL     1      38.957 -10.047   2.903  1.00  0.00     0.031 A 
HETATM   30  C   UNL     1      38.083  -9.154   2.280  1.00  0.00     0.002 A 
HETATM   31  C   UNL     1      38.426  -7.810   2.160  1.00  0.00     0.000 A 
HETATM   32  C   UNL     1      39.644  -7.354   2.664  1.00  0.00     0.002 A 
HETATM   33  C   UNL     1      40.524  -8.242   3.290  1.00  0.00     0.031 A 
ENDBRANCH   3  28
TORSDOF 5
ENDMDL
MODEL 6
REMARK VINA RESULT:      -8.5      1.895      2.421
REMARK  5 active torsions:
REMARK  status: ('A' for Active; 'I' for Inactive)
REMARK    1  A    between atoms: C_4  and  C_5 
REMARK    2  A    between atoms: N_7  and  C_8 
REMARK    3  A    between atoms: C_15  and  C_16 
REMARK       I    between atoms: C_16  and  N_17 
REMARK    4  A    between atoms: N_17  and  N_18 
REMARK       I    between atoms: N_18  and  C_19 
REMARK    5  A    between atoms: C_19  and  C_20 
ROOT
HETATM    1  C   UNL     1      42.489 -14.957   3.387  1.00  0.00     0.105 A 
HETATM    2  N   UNL     1      43.189 -16.028   3.797  1.00  0.00    -0.166 NA
HETATM    3  N   UNL     1      42.698 -17.080   3.113  1.00  0.00    -0.244 N 
HETATM    4  C   UNL     1      41.695 -16.691   2.259  1.00  0.00     0.138 A 
HETATM    5  C   UNL     1      41.536 -15.320   2.384  1.00  0.00     0.082 A 
ENDROOT
BRANCH   5   6
HETATM    6  C   UNL     1      40.604 -14.482   1.636  1.00  0.00     0.274 C 
HETATM    7  N   UNL     1      39.638 -13.862   2.405  1.00  0.00    -0.263 N 
HETATM    8  H   UNL     1      39.507 -14.036   3.397  1.00  0.00     0.190 HD
HETATM    9  O   UNL     1      40.655 -14.323   0.419  1.00  0.00    -0.266 OA
BRANCH   7  10
HETATM   10  N   UNL     1      38.689 -13.032   1.801  1.00  0.00    -0.263 N 
HETATM   11  C   UNL     1      38.976 -11.692   1.692  1.00  0.00     0.275 C 
HETATM   12  O   UNL     1      40.014 -11.212   2.155  1.00  0.00    -0.266 OA
HETATM   13  H   UNL     1      37.846 -13.466   1.408  1.00  0.00     0.190 HD
BRANCH  11  14
HETATM   14  C   UNL     1      37.969 -10.863   0.977  1.00  0.00     0.101 A 
HETATM   15  C   UNL     1      37.503 -11.146  -0.414  1.00  0.00     0.261 A 
HETATM   16  O   UNL     1      37.926 -12.099  -1.062  1.00  0.00    -0.267 OA
HETATM   17  N   UNL     1      36.573 -10.275  -0.938  1.00  0.00    -0.333 N 
HETATM   18  C   UNL     1      36.068  -9.196  -0.264  1.00  0.00     0.091 A 
HETATM   19  H   UNL     1      36.265 -10.475  -1.884  1.00  0.00     0.168 HD
HETATM   20  C   UNL     1      36.475  -8.934   0.982  1.00  0.00     0.018 A 
HETATM   21  C   UNL     1      37.451  -9.793   1.614  1.00  0.00     0.024 A 
ENDBRANCH  11  14
ENDBRANCH   7  10
ENDBRANCH   5   6
BRANCH   1  22
HETATM   22  C   UNL     1      42.806 -13.648   3.964  1.00  0.00    -0.005 A 
HETATM   23  C   UNL     1      42.640 -13.440   5.342  1.00  0.00     0.014 A 
HETATM   24  C   UNL     1      42.913 -12.195   5.914  1.00  0.00     0.001 A 
HETATM   25  C   UNL     1      43.347 -11.143   5.112  1.00  0.00     0.000 A 
HETATM   26  C   UNL     1      43.501 -11.332   3.740  1.00  0.00     0.001 A 
HETATM   27  C   UNL     1      43.223 -12.577   3.166  1.00  0.00     0.014 A 
ENDBRANCH   1  22
BRANCH   3  28
HETATM   28  C   UNL     1      43.226 -18.389   3.307  1.00  0.00     0.058 A 
HETATM   29  C   UNL     1      43.154 -19.322   2.259  1.00  0.00     0.031 A 
HETATM   30  C   UNL     1      43.657 -20.613   2.430  1.00  0.00     0.002 A 
HETATM   31  C   UNL     1      44.233 -20.984   3.642  1.00  0.00     0.000 A 
HETATM   32  C   UNL     1      44.310 -20.064   4.687  1.00  0.00     0.002 A 
HETATM   33  C   UNL     1      43.810 -18.768   4.524  1.00  0.00     0.031 A 
ENDBRANCH   3  28
TORSDOF 5
ENDMDL
MODEL 7
REMARK VINA RESULT:      -8.5      1.538      2.041
REMARK  5 active torsions:
REMARK  status: ('A' for Active; 'I' for Inactive)
REMARK    1  A    between atoms: C_4  and  C_5 
REMARK    2  A    between atoms: N_7  and  C_8 
REMARK    3  A    between atoms: C_15  and  C_16 
REMARK       I    between atoms: C_16  and  N_17 
REMARK    4  A    between atoms: N_17  and  N_18 
REMARK       I    between atoms: N_18  and  C_19 
REMARK    5  A    between atoms: C_19  and  C_20 
ROOT
HETATM    1  C   UNL     1      43.188 -14.066   5.159  1.00  0.00     0.105 A 
HETATM    2  N   UNL     1      43.442 -15.250   5.742  1.00  0.00    -0.166 NA
HETATM    3  N   UNL     1      43.296 -16.181   4.779  1.00  0.00    -0.244 N 
HETATM    4  C   UNL     1      42.962 -15.603   3.578  1.00  0.00     0.138 A 
HETATM    5  C   UNL     1      42.901 -14.231   3.768  1.00  0.00     0.082 A 
ENDROOT
BRANCH   5   6
HETATM    6  C   UNL     1      42.613 -13.226   2.750  1.00  0.00     0.274 C 
HETATM    7  N   UNL     1      41.556 -13.534   1.915  1.00  0.00    -0.263 N 
HETATM    8  H   UNL     1      41.066 -14.423   1.927  1.00  0.00     0.190 HD
HETATM    9  O   UNL     1      43.245 -12.180   2.626  1.00  0.00    -0.266 OA
BRANCH   7  10
HETATM   10  N   UNL     1      41.184 -12.647   0.900  1.00  0.00    -0.263 N 
HETATM   11  C   UNL     1      40.632 -13.169  -0.246  1.00  0.00     0.275 C 
HETATM   12  O   UNL     1      40.510 -14.385  -0.411  1.00  0.00    -0.266 OA
HETATM   13  H   UNL     1      41.279 -11.640   1.078  1.00  0.00     0.190 HD
BRANCH  11  14
HETATM   14  C   UNL     1      40.185 -12.182  -1.265  1.00  0.00     0.101 A 
HETATM   15  C   UNL     1      38.782 -11.679  -1.368  1.00  0.00     0.261 A 
HETATM   16  O   UNL     1      37.897 -12.050  -0.603  1.00  0.00    -0.267 OA
HETATM   17  N   UNL     1      38.528 -10.774  -2.376  1.00  0.00    -0.333 N 
HETATM   18  C   UNL     1      39.473 -10.325  -3.260  1.00  0.00     0.091 A 
HETATM   19  H   UNL     1      37.571 -10.441  -2.439  1.00  0.00     0.168 HD
HETATM   20  C   UNL     1      40.732 -10.766  -3.175  1.00  0.00     0.018 A 
HETATM   21  C   UNL     1      41.091 -11.720  -2.150  1.00  0.00     0.024 A 
ENDBRANCH  11  14
ENDBRANCH   7  10
ENDBRANCH   5   6
BRANCH   1  22
HETATM   22  C   UNL     1      43.273 -12.851   5.973  1.00  0.00    -0.005 A 
HETATM   23  C   UNL     1      42.203 -11.943   5.974  1.00  0.00     0.014 A 
HETATM   24  C   UNL     1      42.267 -10.765   6.722  1.00  0.00     0.001 A 
HETATM   25  C   UNL     1      43.407 -10.480   7.471  1.00  0.00     0.000 A 
HETATM   26  C   UNL     1      44.482 -11.366   7.466  1.00  0.00     0.001 A 
HETATM   27  C   UNL     1      44.419 -12.543   6.713  1.00  0.00     0.014 A 
ENDBRANCH   1  22
BRANCH   3  28
HETATM   28  C   UNL     1      43.499 -17.562   5.060  1.00  0.00     0.058 A 
HETATM   29  C   UNL     1      43.938 -18.416   4.035  1.00  0.00     0.031 A 
HETATM   30  C   UNL     1      44.135 -19.775   4.285  1.00  0.00     0.002 A 
HETATM   31  C   UNL     1      43.896 -20.294   5.555  1.00  0.00     0.000 A 
HETATM   32  C   UNL     1      43.462 -19.453   6.580  1.00  0.00     0.002 A 
HETATM   33  C   UNL     1      43.264 -18.091   6.338  1.00  0.00     0.031 A 
ENDBRANCH   3  28
TORSDOF 5
ENDMDL
MODEL 8
REMARK VINA RESULT:      -8.2      7.592     11.260
REMARK  5 active torsions:
REMARK  status: ('A' for Active; 'I' for Inactive)
REMARK    1  A    between atoms: C_4  and  C_5 
REMARK    2  A    between atoms: N_7  and  C_8 
REMARK    3  A    between atoms: C_15  and  C_16 
REMARK       I    between atoms: C_16  and  N_17 
REMARK    4  A    between atoms: N_17  and  N_18 
REMARK       I    between atoms: N_18  and  C_19 
REMARK    5  A    between atoms: C_19  and  C_20 
ROOT
HETATM    1  C   UNL     1      41.707  -8.281  11.323  1.00  0.00     0.105 A 
HETATM    2  N   UNL     1      41.824  -7.897  12.605  1.00  0.00    -0.166 NA
HETATM    3  N   UNL     1      40.567  -7.742  13.066  1.00  0.00    -0.244 N 
HETATM    4  C   UNL     1      39.643  -8.035  12.093  1.00  0.00     0.138 A 
HETATM    5  C   UNL     1      40.332  -8.411  10.950  1.00  0.00     0.082 A 
ENDROOT
BRANCH   5   6
HETATM    6  C   UNL     1      39.746  -8.841   9.685  1.00  0.00     0.274 C 
HETATM    7  N   UNL     1      40.321  -9.970   9.135  1.00  0.00    -0.263 N 
HETATM    8  H   UNL     1      41.147 -10.425   9.510  1.00  0.00     0.190 HD
HETATM    9  O   UNL     1      38.812  -8.262   9.134  1.00  0.00    -0.266 OA
BRANCH   7  10
HETATM   10  N   UNL     1      39.843 -10.479   7.923  1.00  0.00    -0.263 N 
HETATM   11  C   UNL     1      40.702 -10.510   6.850  1.00  0.00     0.275 C 
HETATM   12  O   UNL     1      41.847 -10.056   6.923  1.00  0.00    -0.266 OA
HETATM   13  H   UNL     1      38.893 -10.868   7.901  1.00  0.00     0.190 HD
BRANCH  11  14
HETATM   14  C   UNL     1      40.172 -11.127   5.604  1.00  0.00     0.101 A 
HETATM   15  C   UNL     1      39.687 -12.538   5.524  1.00  0.00     0.261 A 
HETATM   16  O   UNL     1      39.689 -13.286   6.497  1.00  0.00    -0.267 OA
HETATM   17  N   UNL     1      39.236 -12.962   4.293  1.00  0.00    -0.333 N 
HETATM   18  C   UNL     1      39.211 -12.174   3.173  1.00  0.00     0.091 A 
HETATM   19  H   UNL     1      38.911 -13.922   4.248  1.00  0.00     0.168 HD
HETATM   20  C   UNL     1      39.640 -10.909   3.233  1.00  0.00     0.018 A 
HETATM   21  C   UNL     1      40.133 -10.378   4.484  1.00  0.00     0.024 A 
ENDBRANCH  11  14
ENDBRANCH   7  10
ENDBRANCH   5   6
BRANCH   1  22
HETATM   22  C   UNL     1      42.926  -8.531  10.551  1.00  0.00    -0.005 A 
HETATM   23  C   UNL     1      43.828  -9.516  10.981  1.00  0.00     0.014 A 
HETATM   24  C   UNL     1      45.011  -9.759  10.278  1.00  0.00     0.001 A 
HETATM   25  C   UNL     1      45.306  -9.012   9.139  1.00  0.00     0.000 A 
HETATM   26  C   UNL     1      44.426  -8.020   8.710  1.00  0.00     0.001 A 
HETATM   27  C   UNL     1      43.245  -7.775   9.418  1.00  0.00     0.014 A 
ENDBRANCH   1  22
BRANCH   3  28
HETATM   28  C   UNL     1      40.326  -7.338  14.411  1.00  0.00     0.058 A 
HETATM   29  C   UNL     1      39.322  -6.392  14.675  1.00  0.00     0.031 A 
HETATM   30  C   UNL     1      39.074  -5.974  15.984  1.00  0.00     0.002 A 
HETATM   31  C   UNL     1      39.824  -6.493  17.037  1.00  0.00     0.000 A 
HETATM   32  C   UNL     1      40.822  -7.434  16.784  1.00  0.00     0.002 A 
HETATM   33  C   UNL     1      41.075  -7.859  15.476  1.00  0.00     0.031 A 
ENDBRANCH   3  28
TORSDOF 5
ENDMDL
MODEL 9
REMARK VINA RESULT:      -8.1     15.571     17.749
REMARK  5 active torsions:
REMARK  status: ('A' for Active; 'I' for Inactive)
REMARK    1  A    between atoms: C_4  and  C_5 
REMARK    2  A    between atoms: N_7  and  C_8 
REMARK    3  A    between atoms: C_15  and  C_16 
REMARK       I    between atoms: C_16  and  N_17 
REMARK    4  A    between atoms: N_17  and  N_18 
REMARK       I    between atoms: N_18  and  C_19 
REMARK    5  A    between atoms: C_19  and  C_20 
ROOT
HETATM    1  C   UNL     1      46.306 -30.168   1.635  1.00  0.00     0.105 A 
HETATM    2  N   UNL     1      46.422 -29.657   0.398  1.00  0.00    -0.166 NA
HETATM    3  N   UNL     1      45.229 -29.846  -0.198  1.00  0.00    -0.244 N 
HETATM    4  C   UNL     1      44.343 -30.465   0.650  1.00  0.00     0.138 A 
HETATM    5  C   UNL     1      44.988 -30.675   1.859  1.00  0.00     0.082 A 
ENDROOT
BRANCH   5   6
HETATM    6  C   UNL     1      44.411 -31.273   3.059  1.00  0.00     0.274 C 
HETATM    7  N   UNL     1      43.214 -30.713   3.465  1.00  0.00    -0.263 N 
HETATM    8  H   UNL     1      42.800 -29.890   3.038  1.00  0.00     0.190 HD
HETATM    9  O   UNL     1      44.926 -32.202   3.675  1.00  0.00    -0.266 OA
BRANCH   7  10
HETATM   10  N   UNL     1      42.563 -31.203   4.601  1.00  0.00    -0.263 N 
HETATM   11  C   UNL     1      41.201 -31.385   4.539  1.00  0.00     0.275 C 
HETATM   12  O   UNL     1      40.552 -31.080   3.536  1.00  0.00    -0.266 OA
HETATM   13  H   UNL     1      43.135 -31.465   5.412  1.00  0.00     0.190 HD
BRANCH  11  14
HETATM   14  C   UNL     1      40.564 -31.976   5.747  1.00  0.00     0.101 A 
HETATM   15  C   UNL     1      41.096 -31.797   7.132  1.00  0.00     0.261 A 
HETATM   16  O   UNL     1      42.103 -31.136   7.364  1.00  0.00    -0.267 OA
HETATM   17  N   UNL     1      40.396 -32.420   8.142  1.00  0.00    -0.333 N 
HETATM   18  C   UNL     1      39.268 -33.172   7.943  1.00  0.00     0.091 A 
HETATM   19  H   UNL     1      40.766 -32.295   9.078  1.00  0.00     0.168 HD
HETATM   20  C   UNL     1      38.782 -33.336   6.709  1.00  0.00     0.018 A 
HETATM   21  C   UNL     1      39.452 -32.721   5.585  1.00  0.00     0.024 A 
ENDBRANCH  11  14
ENDBRANCH   7  10
ENDBRANCH   5   6
BRANCH   1  22
HETATM   22  C   UNL     1      47.463 -30.103   2.532  1.00  0.00    -0.005 A 
HETATM   23  C   UNL     1      47.917 -28.856   2.987  1.00  0.00     0.014 A 
HETATM   24  C   UNL     1      49.033 -28.764   3.823  1.00  0.00     0.001 A 
HETATM   25  C   UNL     1      49.709 -29.919   4.207  1.00  0.00     0.000 A 
HETATM   26  C   UNL     1      49.277 -31.163   3.750  1.00  0.00     0.001 A 
HETATM   27  C   UNL     1      48.164 -31.254   2.909  1.00  0.00     0.014 A 
ENDBRANCH   1  22
BRANCH   3  28
HETATM   28  C   UNL     1      45.003 -29.412  -1.536  1.00  0.00     0.058 A 
HETATM   29  C   UNL     1      44.213 -30.199  -2.391  1.00  0.00     0.031 A 
HETATM   30  C   UNL     1      43.986 -29.799  -3.709  1.00  0.00     0.002 A 
HETATM   31  C   UNL     1      44.542 -28.614  -4.185  1.00  0.00     0.000 A 
HETATM   32  C   UNL     1      45.326 -27.825  -3.343  1.00  0.00     0.002 A 
HETATM   33  C   UNL     1      45.557 -28.219  -2.021  1.00  0.00     0.031 A 
ENDBRANCH   3  28
TORSDOF 5
ENDMDL
MODEL 10
REMARK VINA RESULT:      -8.1      3.114      3.770
REMARK  5 active torsions:
REMARK  status: ('A' for Active; 'I' for Inactive)
REMARK    1  A    between atoms: C_4  and  C_5 
REMARK    2  A    between atoms: N_7  and  C_8 
REMARK    3  A    between atoms: C_15  and  C_16 
REMARK       I    between atoms: C_16  and  N_17 
REMARK    4  A    between atoms: N_17  and  N_18 
REMARK       I    between atoms: N_18  and  C_19 
REMARK    5  A    between atoms: C_19  and  C_20 
ROOT
HETATM    1  C   UNL     1      43.740 -13.029   6.194  1.00  0.00     0.105 A 
HETATM    2  N   UNL     1      44.081 -14.303   6.454  1.00  0.00    -0.166 NA
HETATM    3  N   UNL     1      43.368 -15.062   5.598  1.00  0.00    -0.244 N 
HETATM    4  C   UNL     1      42.582 -14.286   4.783  1.00  0.00     0.138 A 
HETATM    5  C   UNL     1      42.803 -12.958   5.116  1.00  0.00     0.082 A 
ENDROOT
BRANCH   5   6
HETATM    6  C   UNL     1      42.202 -11.791   4.478  1.00  0.00     0.274 C 
HETATM    7  N   UNL     1      42.801 -11.406   3.294  1.00  0.00    -0.263 N 
HETATM    8  H   UNL     1      43.651 -11.824   2.927  1.00  0.00     0.190 HD
HETATM    9  O   UNL     1      41.238 -11.184   4.937  1.00  0.00    -0.266 OA
BRANCH   7  10
HETATM   10  N   UNL     1      42.313 -10.302   2.589  1.00  0.00    -0.263 N 
HETATM   11  C   UNL     1      41.618 -10.532   1.424  1.00  0.00     0.275 C 
HETATM   12  O   UNL     1      41.469 -11.670   0.974  1.00  0.00    -0.266 OA
HETATM   13  H   UNL     1      42.436  -9.370   3.002  1.00  0.00     0.190 HD
BRANCH  11  14
HETATM   14  C   UNL     1      41.056  -9.331   0.750  1.00  0.00     0.101 A 
HETATM   15  C   UNL     1      41.719  -8.641  -0.397  1.00  0.00     0.261 A 
HETATM   16  O   UNL     1      42.784  -9.032  -0.866  1.00  0.00    -0.267 OA
HETATM   17  N   UNL     1      41.073  -7.534  -0.903  1.00  0.00    -0.333 N 
HETATM   18  C   UNL     1      39.886  -7.052  -0.420  1.00  0.00     0.091 A 
HETATM   19  H   UNL     1      41.533  -7.071  -1.680  1.00  0.00     0.168 HD
HETATM   20  C   UNL     1      39.282  -7.663   0.604  1.00  0.00     0.018 A 
HETATM   21  C   UNL     1      39.888  -8.832   1.201  1.00  0.00     0.024 A 
ENDBRANCH  11  14
ENDBRANCH   7  10
ENDBRANCH   5   6
BRANCH   1  22
HETATM   22  C   UNL     1      44.366 -11.962   6.978  1.00  0.00    -0.005 A 
HETATM   23  C   UNL     1      45.670 -11.548   6.668  1.00  0.00     0.014 A 
HETATM   24  C   UNL     1      46.299 -10.549   7.415  1.00  0.00     0.001 A 
HETATM   25  C   UNL     1      45.632  -9.959   8.487  1.00  0.00     0.000 A 
HETATM   26  C   UNL     1      44.342 -10.372   8.814  1.00  0.00     0.001 A 
HETATM   27  C   UNL     1      43.714 -11.375   8.069  1.00  0.00     0.014 A 
ENDBRANCH   1  22
BRANCH   3  28
HETATM   28  C   UNL     1      43.494 -16.481   5.602  1.00  0.00     0.058 A 
HETATM   29  C   UNL     1      43.228 -17.192   6.784  1.00  0.00     0.031 A 
HETATM   30  C   UNL     1      43.353 -18.582   6.815  1.00  0.00     0.002 A 
HETATM   31  C   UNL     1      43.744 -19.273   5.671  1.00  0.00     0.000 A 
HETATM   32  C   UNL     1      44.008 -18.576   4.492  1.00  0.00     0.002 A 
HETATM   33  C   UNL     1      43.884 -17.184   4.453  1.00  0.00     0.031 A 
ENDBRANCH   3  28
TORSDOF 5
ENDMDL
