MODEL 1
REMARK VINA RESULT:      -8.7      0.000      0.000
REMARK  5 active torsions:
REMARK  status: ('A' for Active; 'I' for Inactive)
REMARK    1  A    between atoms: C_9  and  C_10 
REMARK       I    between atoms: C_10  and  N_11 
REMARK    2  A    between atoms: N_11  and  C_12 
REMARK    3  A    between atoms: C_12  and  C_13 
REMARK    4  A    between atoms: C_16  and  N_17 
REMARK       I    between atoms: N_17  and  C_18 
REMARK    5  A    between atoms: C_18  and  O_19 
ROOT
HETATM    1  C   UNL     1      42.871 -15.154   3.509  1.00  0.00     0.273 C 
HETATM    2  N   UNL     1      41.634 -14.618   3.792  1.00  0.00    -0.351 N 
HETATM    3  O   UNL     1      43.599 -14.720   2.620  1.00  0.00    -0.266 OA
HETATM    4  H   UNL     1      41.168 -14.987   4.618  1.00  0.00     0.163 HD
ENDROOT
BRANCH   2   5
HETATM    5  C   UNL     1      41.182 -13.410   3.160  1.00  0.00     0.161 C 
BRANCH   5   6
HETATM    6  C   UNL     1      40.757 -13.655   1.740  1.00  0.00    -0.040 A 
HETATM    7  C   UNL     1      40.925 -12.668   0.762  1.00  0.00     0.011 A 
HETATM    8  C   UNL     1      40.542 -12.899  -0.567  1.00  0.00     0.030 A 
HETATM    9  C   UNL     1      39.976 -14.117  -0.942  1.00  0.00     0.036 A 
HETATM   10  C   UNL     1      39.782 -15.094   0.046  1.00  0.00     0.030 A 
HETATM   11  C   UNL     1      40.164 -14.866   1.372  1.00  0.00     0.011 A 
BRANCH   9  12
HETATM   12  N   UNL     1      39.576 -14.457  -2.246  1.00  0.00    -0.303 N 
HETATM   13  C   UNL     1      38.420 -14.238  -2.948  1.00  0.00     0.364 C 
HETATM   14  O   UNL     1      38.318 -14.639  -4.104  1.00  0.00    -0.238 OA
HETATM   15  H   UNL     1      40.253 -14.945  -2.817  1.00  0.00     0.171 HD
BRANCH  13  16
HETATM   16  O   UNL     1      37.446 -13.564  -2.289  1.00  0.00    -0.309 OA
HETATM   17  C   UNL     1      37.339 -12.186  -2.650  1.00  0.00     0.215 C 
ENDBRANCH  13  16
ENDBRANCH   9  12
ENDBRANCH   5   6
ENDBRANCH   2   5
BRANCH   1  18
HETATM   18  C   UNL     1      43.239 -16.277   4.385  1.00  0.00     0.157 A 
HETATM   19  C   UNL     1      43.449 -17.635   4.001  1.00  0.00     0.029 A 
HETATM   20  C   UNL     1      43.393 -18.373   2.802  1.00  0.00     0.023 A 
HETATM   21  C   UNL     1      43.785 -18.295   5.177  1.00  0.00     0.063 A 
HETATM   22  C   UNL     1      43.677 -19.749   2.819  1.00  0.00    -0.061 A 
HETATM   23  C   UNL     1      43.627 -20.551   1.551  1.00  0.00     0.048 C 
HETATM   24  C   UNL     1      44.013 -20.374   4.027  1.00  0.00     0.009 A 
HETATM   25  C   UNL     1      44.073 -19.662   5.231  1.00  0.00     0.032 A 
HETATM   26  N   UNL     1      43.757 -17.335   6.149  1.00  0.00    -0.277 N 
HETATM   27  H   UNL     1      43.950 -17.458   7.137  1.00  0.00     0.189 HD
HETATM   28  N   UNL     1      43.438 -16.104   5.711  1.00  0.00    -0.168 NA
ENDBRANCH   1  18
TORSDOF 5
ENDMDL
MODEL 2
REMARK VINA RESULT:      -8.6      0.992      1.043
REMARK  5 active torsions:
REMARK  status: ('A' for Active; 'I' for Inactive)
REMARK    1  A    between atoms: C_9  and  C_10 
REMARK       I    between atoms: C_10  and  N_11 
REMARK    2  A    between atoms: N_11  and  C_12 
REMARK    3  A    between atoms: C_12  and  C_13 
REMARK    4  A    between atoms: C_16  and  N_17 
REMARK       I    between atoms: N_17  and  C_18 
REMARK    5  A    between atoms: C_18  and  O_19 
ROOT
HETATM    1  C   UNL     1      42.485 -15.383   4.940  1.00  0.00     0.273 C 
HETATM    2  N   UNL     1      41.157 -15.341   4.578  1.00  0.00    -0.351 N 
HETATM    3  O   UNL     1      43.255 -14.442   4.766  1.00  0.00    -0.266 OA
HETATM    4  H   UNL     1      40.591 -16.135   4.869  1.00  0.00     0.163 HD
ENDROOT
BRANCH   2   5
HETATM    5  C   UNL     1      40.549 -14.126   4.112  1.00  0.00     0.161 C 
BRANCH   5   6
HETATM    6  C   UNL     1      40.380 -14.130   2.618  1.00  0.00    -0.040 A 
HETATM    7  C   UNL     1      40.503 -12.947   1.881  1.00  0.00     0.011 A 
HETATM    8  C   UNL     1      40.360 -12.950   0.486  1.00  0.00     0.030 A 
HETATM    9  C   UNL     1      40.084 -14.135  -0.197  1.00  0.00     0.036 A 
HETATM   10  C   UNL     1      39.934 -15.313   0.547  1.00  0.00     0.030 A 
HETATM   11  C   UNL     1      40.077 -15.313   1.938  1.00  0.00     0.011 A 
BRANCH   9  12
HETATM   12  N   UNL     1      39.942 -14.251  -1.591  1.00  0.00    -0.303 N 
HETATM   13  C   UNL     1      38.918 -13.941  -2.447  1.00  0.00     0.364 C 
HETATM   14  O   UNL     1      39.045 -14.135  -3.652  1.00  0.00    -0.238 OA
HETATM   15  H   UNL     1      40.735 -14.615  -2.101  1.00  0.00     0.171 HD
BRANCH  13  16
HETATM   16  O   UNL     1      37.807 -13.416  -1.875  1.00  0.00    -0.309 OA
HETATM   17  C   UNL     1      37.606 -12.029  -2.148  1.00  0.00     0.215 C 
ENDBRANCH  13  16
ENDBRANCH   9  12
ENDBRANCH   5   6
ENDBRANCH   2   5
BRANCH   1  18
HETATM   18  C   UNL     1      42.883 -16.652   5.570  1.00  0.00     0.157 A 
HETATM   19  C   UNL     1      43.236 -17.867   4.910  1.00  0.00     0.029 A 
HETATM   20  C   UNL     1      43.334 -18.308   3.575  1.00  0.00     0.023 A 
HETATM   21  C   UNL     1      43.540 -18.758   5.933  1.00  0.00     0.063 A 
HETATM   22  C   UNL     1      43.733 -19.628   3.308  1.00  0.00    -0.061 A 
HETATM   23  C   UNL     1      43.846 -20.116   1.892  1.00  0.00     0.048 C 
HETATM   24  C   UNL     1      44.031 -20.493   4.369  1.00  0.00     0.009 A 
HETATM   25  C   UNL     1      43.940 -20.077   5.703  1.00  0.00     0.032 A 
HETATM   26  N   UNL     1      43.357 -18.053   7.090  1.00  0.00    -0.277 N 
HETATM   27  H   UNL     1      43.487 -18.389   8.038  1.00  0.00     0.189 HD
HETATM   28  N   UNL     1      42.967 -16.779   6.912  1.00  0.00    -0.168 NA
ENDBRANCH   1  18
TORSDOF 5
ENDMDL
MODEL 3
REMARK VINA RESULT:      -8.3      5.311      8.634
REMARK  5 active torsions:
REMARK  status: ('A' for Active; 'I' for Inactive)
REMARK    1  A    between atoms: C_9  and  C_10 
REMARK       I    between atoms: C_10  and  N_11 
REMARK    2  A    between atoms: N_11  and  C_12 
REMARK    3  A    between atoms: C_12  and  C_13 
REMARK    4  A    between atoms: C_16  and  N_17 
REMARK       I    between atoms: N_17  and  C_18 
REMARK    5  A    between atoms: C_18  and  O_19 
ROOT
HETATM    1  C   UNL     1      43.287 -12.457   6.387  1.00  0.00     0.273 C 
HETATM    2  N   UNL     1      43.468 -13.790   6.684  1.00  0.00    -0.351 N 
HETATM    3  O   UNL     1      42.286 -12.030   5.816  1.00  0.00    -0.266 OA
HETATM    4  H   UNL     1      44.281 -14.012   7.253  1.00  0.00     0.163 HD
ENDROOT
BRANCH   2   5
HETATM    5  C   UNL     1      42.418 -14.748   6.482  1.00  0.00     0.161 C 
BRANCH   5   6
HETATM    6  C   UNL     1      42.830 -15.825   5.517  1.00  0.00    -0.040 A 
HETATM    7  C   UNL     1      44.005 -16.556   5.720  1.00  0.00     0.011 A 
HETATM    8  C   UNL     1      44.384 -17.571   4.830  1.00  0.00     0.030 A 
HETATM    9  C   UNL     1      43.599 -17.868   3.716  1.00  0.00     0.036 A 
HETATM   10  C   UNL     1      42.437 -17.115   3.500  1.00  0.00     0.030 A 
HETATM   11  C   UNL     1      42.057 -16.103   4.386  1.00  0.00     0.011 A 
BRANCH   9  12
HETATM   12  N   UNL     1      43.878 -18.875   2.775  1.00  0.00    -0.303 N 
HETATM   13  C   UNL     1      43.780 -20.241   2.822  1.00  0.00     0.364 C 
HETATM   14  O   UNL     1      44.084 -20.913   1.841  1.00  0.00    -0.238 OA
HETATM   15  H   UNL     1      44.199 -18.572   1.865  1.00  0.00     0.171 HD
BRANCH  13  16
HETATM   16  O   UNL     1      43.329 -20.762   3.989  1.00  0.00    -0.309 OA
HETATM   17  C   UNL     1      44.358 -21.078   4.927  1.00  0.00     0.215 C 
ENDBRANCH  13  16
ENDBRANCH   9  12
ENDBRANCH   5   6
ENDBRANCH   2   5
BRANCH   1  18
HETATM   18  C   UNL     1      44.395 -11.599   6.834  1.00  0.00     0.157 A 
HETATM   19  C   UNL     1      44.510 -10.924   8.086  1.00  0.00     0.029 A 
HETATM   20  C   UNL     1      43.726 -10.802   9.251  1.00  0.00     0.023 A 
HETATM   21  C   UNL     1      45.730 -10.261   8.028  1.00  0.00     0.063 A 
HETATM   22  C   UNL     1      44.190 -10.019  10.321  1.00  0.00    -0.061 A 
HETATM   23  C   UNL     1      43.372  -9.880  11.572  1.00  0.00     0.048 C 
HETATM   24  C   UNL     1      45.427  -9.368  10.221  1.00  0.00     0.009 A 
HETATM   25  C   UNL     1      46.222  -9.475   9.074  1.00  0.00     0.032 A 
HETATM   26  N   UNL     1      46.247 -10.565   6.800  1.00  0.00    -0.277 N 
HETATM   27  H   UNL     1      47.130 -10.251   6.413  1.00  0.00     0.189 HD
HETATM   28  N   UNL     1      45.475 -11.375   6.053  1.00  0.00    -0.168 NA
ENDBRANCH   1  18
TORSDOF 5
ENDMDL
MODEL 4
REMARK VINA RESULT:      -8.0      1.865      2.223
REMARK  5 active torsions:
REMARK  status: ('A' for Active; 'I' for Inactive)
REMARK    1  A    between atoms: C_9  and  C_10 
REMARK       I    between atoms: C_10  and  N_11 
REMARK    2  A    between atoms: N_11  and  C_12 
REMARK    3  A    between atoms: C_12  and  C_13 
REMARK    4  A    between atoms: C_16  and  N_17 
REMARK       I    between atoms: N_17  and  C_18 
REMARK    5  A    between atoms: C_18  and  O_19 
ROOT
HETATM    1  C   UNL     1      41.060 -14.346   5.960  1.00  0.00     0.273 C 
HETATM    2  N   UNL     1      41.637 -13.495   5.044  1.00  0.00    -0.351 N 
HETATM    3  O   UNL     1      39.923 -14.185   6.397  1.00  0.00    -0.266 OA
HETATM    4  H   UNL     1      42.537 -13.786   4.672  1.00  0.00     0.163 HD
ENDROOT
BRANCH   2   5
HETATM    5  C   UNL     1      40.881 -12.444   4.423  1.00  0.00     0.161 C 
BRANCH   5   6
HETATM    6  C   UNL     1      40.886 -12.569   2.925  1.00  0.00    -0.040 A 
HETATM    7  C   UNL     1      40.823 -11.433   2.111  1.00  0.00     0.011 A 
HETATM    8  C   UNL     1      40.842 -11.546   0.714  1.00  0.00     0.030 A 
HETATM    9  C   UNL     1      40.915 -12.798   0.104  1.00  0.00     0.036 A 
HETATM   10  C   UNL     1      40.950 -13.937   0.921  1.00  0.00     0.030 A 
HETATM   11  C   UNL     1      40.931 -13.826   2.315  1.00  0.00     0.011 A 
BRANCH   9  12
HETATM   12  N   UNL     1      40.959 -13.022  -1.284  1.00  0.00    -0.303 N 
HETATM   13  C   UNL     1      40.044 -13.520  -2.172  1.00  0.00     0.364 C 
HETATM   14  O   UNL     1      40.328 -13.611  -3.362  1.00  0.00    -0.238 OA
HETATM   15  H   UNL     1      41.812 -12.760  -1.760  1.00  0.00     0.171 HD
BRANCH  13  16
HETATM   16  O   UNL     1      38.846 -13.880  -1.648  1.00  0.00    -0.309 OA
HETATM   17  C   UNL     1      37.765 -13.021  -2.009  1.00  0.00     0.215 C 
ENDBRANCH  13  16
ENDBRANCH   9  12
ENDBRANCH   5   6
ENDBRANCH   2   5
BRANCH   1  18
HETATM   18  C   UNL     1      41.927 -15.471   6.345  1.00  0.00     0.157 A 
HETATM   19  C   UNL     1      42.501 -16.450   5.480  1.00  0.00     0.029 A 
HETATM   20  C   UNL     1      42.481 -16.723   4.098  1.00  0.00     0.023 A 
HETATM   21  C   UNL     1      43.238 -17.281   6.316  1.00  0.00     0.063 A 
HETATM   22  C   UNL     1      43.201 -17.820   3.596  1.00  0.00    -0.061 A 
HETATM   23  C   UNL     1      43.196 -18.125   2.126  1.00  0.00     0.048 C 
HETATM   24  C   UNL     1      43.932 -18.632   4.474  1.00  0.00     0.009 A 
HETATM   25  C   UNL     1      43.965 -18.381   5.851  1.00  0.00     0.032 A 
HETATM   26  N   UNL     1      43.066 -16.772   7.572  1.00  0.00    -0.277 N 
HETATM   27  H   UNL     1      43.460 -17.128   8.436  1.00  0.00     0.189 HD
HETATM   28  N   UNL     1      42.287 -15.677   7.630  1.00  0.00    -0.168 NA
ENDBRANCH   1  18
TORSDOF 5
ENDMDL
MODEL 5
REMARK VINA RESULT:      -7.9      2.597      3.243
REMARK  5 active torsions:
REMARK  status: ('A' for Active; 'I' for Inactive)
REMARK    1  A    between atoms: C_9  and  C_10 
REMARK       I    between atoms: C_10  and  N_11 
REMARK    2  A    between atoms: N_11  and  C_12 
REMARK    3  A    between atoms: C_12  and  C_13 
REMARK    4  A    between atoms: C_16  and  N_17 
REMARK       I    between atoms: N_17  and  C_18 
REMARK    5  A    between atoms: C_18  and  O_19 
ROOT
HETATM    1  C   UNL     1      40.503 -15.526   2.240  1.00  0.00     0.273 C 
HETATM    2  N   UNL     1      40.893 -15.134   0.979  1.00  0.00    -0.351 N 
HETATM    3  O   UNL     1      39.325 -15.634   2.572  1.00  0.00    -0.266 OA
HETATM    4  H   UNL     1      41.889 -15.185   0.786  1.00  0.00     0.163 HD
ENDROOT
BRANCH   2   5
HETATM    5  C   UNL     1      39.937 -14.973  -0.081  1.00  0.00     0.161 C 
BRANCH   5   6
HETATM    6  C   UNL     1      40.245 -13.771  -0.928  1.00  0.00    -0.040 A 
HETATM    7  C   UNL     1      40.263 -13.863  -2.324  1.00  0.00     0.011 A 
HETATM    8  C   UNL     1      40.536 -12.739  -3.116  1.00  0.00     0.030 A 
HETATM    9  C   UNL     1      40.805 -11.504  -2.528  1.00  0.00     0.036 A 
HETATM   10  C   UNL     1      40.815 -11.420  -1.128  1.00  0.00     0.030 A 
HETATM   11  C   UNL     1      40.542 -12.539  -0.336  1.00  0.00     0.011 A 
BRANCH   9  12
HETATM   12  N   UNL     1      41.072 -10.314  -3.228  1.00  0.00    -0.303 N 
HETATM   13  C   UNL     1      40.266  -9.432  -3.897  1.00  0.00     0.364 C 
HETATM   14  O   UNL     1      40.752  -8.440  -4.433  1.00  0.00    -0.238 OA
HETATM   15  H   UNL     1      42.035 -10.005  -3.252  1.00  0.00     0.171 HD
BRANCH  13  16
HETATM   16  O   UNL     1      38.944  -9.729  -3.908  1.00  0.00    -0.309 OA
HETATM   17  C   UNL     1      38.155  -8.932  -3.024  1.00  0.00     0.215 C 
ENDBRANCH  13  16
ENDBRANCH   9  12
ENDBRANCH   5   6
ENDBRANCH   2   5
BRANCH   1  18
HETATM   18  C   UNL     1      41.630 -15.822   3.139  1.00  0.00     0.157 A 
HETATM   19  C   UNL     1      42.461 -16.982   3.125  1.00  0.00     0.029 A 
HETATM   20  C   UNL     1      42.541 -18.166   2.366  1.00  0.00     0.023 A 
HETATM   21  C   UNL     1      43.376 -16.782   4.152  1.00  0.00     0.063 A 
HETATM   22  C   UNL     1      43.536 -19.113   2.660  1.00  0.00    -0.061 A 
HETATM   23  C   UNL     1      43.641 -20.379   1.860  1.00  0.00     0.048 C 
HETATM   24  C   UNL     1      44.440 -18.871   3.703  1.00  0.00     0.009 A 
HETATM   25  C   UNL     1      44.378 -17.702   4.471  1.00  0.00     0.032 A 
HETATM   26  N   UNL     1      43.051 -15.569   4.693  1.00  0.00    -0.277 N 
HETATM   27  H   UNL     1      43.508 -15.103   5.468  1.00  0.00     0.189 HD
HETATM   28  N   UNL     1      42.008 -14.957   4.106  1.00  0.00    -0.168 NA
ENDBRANCH   1  18
TORSDOF 5
ENDMDL
MODEL 6
REMARK VINA RESULT:      -7.8      2.816      8.114
REMARK  5 active torsions:
REMARK  status: ('A' for Active; 'I' for Inactive)
REMARK    1  A    between atoms: C_9  and  C_10 
REMARK       I    between atoms: C_10  and  N_11 
REMARK    2  A    between atoms: N_11  and  C_12 
REMARK    3  A    between atoms: C_12  and  C_13 
REMARK    4  A    between atoms: C_16  and  N_17 
REMARK       I    between atoms: N_17  and  C_18 
REMARK    5  A    between atoms: C_18  and  O_19 
ROOT
HETATM    1  C   UNL     1      40.377 -12.756   2.122  1.00  0.00     0.273 C 
HETATM    2  N   UNL     1      41.754 -12.709   2.114  1.00  0.00    -0.351 N 
HETATM    3  O   UNL     1      39.735 -13.389   2.956  1.00  0.00    -0.266 OA
HETATM    4  H   UNL     1      42.173 -12.068   1.445  1.00  0.00     0.163 HD
ENDROOT
BRANCH   2   5
HETATM    5  C   UNL     1      42.525 -13.277   3.184  1.00  0.00     0.161 C 
BRANCH   5   6
HETATM    6  C   UNL     1      42.710 -14.758   3.006  1.00  0.00    -0.040 A 
HETATM    7  C   UNL     1      42.472 -15.641   4.066  1.00  0.00     0.011 A 
HETATM    8  C   UNL     1      42.630 -17.024   3.899  1.00  0.00     0.030 A 
HETATM    9  C   UNL     1      43.036 -17.551   2.672  1.00  0.00     0.036 A 
HETATM   10  C   UNL     1      43.300 -16.662   1.621  1.00  0.00     0.030 A 
HETATM   11  C   UNL     1      43.143 -15.281   1.785  1.00  0.00     0.011 A 
BRANCH   9  12
HETATM   12  N   UNL     1      43.205 -18.918   2.394  1.00  0.00    -0.303 N 
HETATM   13  C   UNL     1      43.852 -19.926   3.058  1.00  0.00     0.364 C 
HETATM   14  O   UNL     1      43.848 -21.065   2.601  1.00  0.00    -0.238 OA
HETATM   15  H   UNL     1      42.763 -19.270   1.555  1.00  0.00     0.171 HD
BRANCH  13  16
HETATM   16  O   UNL     1      44.461 -19.576   4.217  1.00  0.00    -0.309 OA
HETATM   17  C   UNL     1      44.146 -20.421   5.325  1.00  0.00     0.215 C 
ENDBRANCH  13  16
ENDBRANCH   9  12
ENDBRANCH   5   6
ENDBRANCH   2   5
BRANCH   1  18
HETATM   18  C   UNL     1      39.756 -11.961   1.050  1.00  0.00     0.157 A 
HETATM   19  C   UNL     1      39.304 -12.432  -0.219  1.00  0.00     0.029 A 
HETATM   20  C   UNL     1      39.271 -13.670  -0.891  1.00  0.00     0.023 A 
HETATM   21  C   UNL     1      38.790 -11.309  -0.858  1.00  0.00     0.063 A 
HETATM   22  C   UNL     1      38.724 -13.744  -2.183  1.00  0.00    -0.061 A 
HETATM   23  C   UNL     1      38.676 -15.054  -2.914  1.00  0.00     0.048 C 
HETATM   24  C   UNL     1      38.216 -12.588  -2.790  1.00  0.00     0.009 A 
HETATM   25  C   UNL     1      38.239 -11.347  -2.142  1.00  0.00     0.032 A 
HETATM   26  N   UNL     1      38.960 -10.282   0.028  1.00  0.00    -0.277 N 
HETATM   27  H   UNL     1      38.700  -9.311  -0.105  1.00  0.00     0.189 HD
HETATM   28  N   UNL     1      39.533 -10.636   1.192  1.00  0.00    -0.168 NA
ENDBRANCH   1  18
TORSDOF 5
ENDMDL
MODEL 7
REMARK VINA RESULT:      -7.7      6.737      9.738
REMARK  5 active torsions:
REMARK  status: ('A' for Active; 'I' for Inactive)
REMARK    1  A    between atoms: C_9  and  C_10 
REMARK       I    between atoms: C_10  and  N_11 
REMARK    2  A    between atoms: N_11  and  C_12 
REMARK    3  A    between atoms: C_12  and  C_13 
REMARK    4  A    between atoms: C_16  and  N_17 
REMARK       I    between atoms: N_17  and  C_18 
REMARK    5  A    between atoms: C_18  and  O_19 
ROOT
HETATM    1  C   UNL     1      43.068 -12.914   6.469  1.00  0.00     0.273 C 
HETATM    2  N   UNL     1      44.250 -12.364   6.912  1.00  0.00    -0.351 N 
HETATM    3  O   UNL     1      42.111 -12.235   6.105  1.00  0.00    -0.266 OA
HETATM    4  H   UNL     1      45.009 -13.019   7.083  1.00  0.00     0.163 HD
ENDROOT
BRANCH   2   5
HETATM    5  C   UNL     1      44.492 -10.951   6.830  1.00  0.00     0.161 C 
BRANCH   5   6
HETATM    6  C   UNL     1      44.262 -10.272   8.151  1.00  0.00    -0.040 A 
HETATM    7  C   UNL     1      43.108  -9.512   8.374  1.00  0.00     0.011 A 
HETATM    8  C   UNL     1      42.884  -8.890   9.610  1.00  0.00     0.030 A 
HETATM    9  C   UNL     1      43.813  -9.009  10.644  1.00  0.00     0.036 A 
HETATM   10  C   UNL     1      44.981  -9.747  10.409  1.00  0.00     0.030 A 
HETATM   11  C   UNL     1      45.207 -10.369   9.176  1.00  0.00     0.011 A 
BRANCH   9  12
HETATM   12  N   UNL     1      43.677  -8.443  11.924  1.00  0.00    -0.303 N 
HETATM   13  C   UNL     1      42.762  -8.627  12.926  1.00  0.00     0.364 C 
HETATM   14  O   UNL     1      42.868  -8.003  13.978  1.00  0.00    -0.238 OA
HETATM   15  H   UNL     1      44.385  -7.777  12.205  1.00  0.00     0.171 HD
BRANCH  13  16
HETATM   16  O   UNL     1      41.778  -9.523  12.672  1.00  0.00    -0.309 OA
HETATM   17  C   UNL     1      40.717  -9.518  13.628  1.00  0.00     0.215 C 
ENDBRANCH  13  16
ENDBRANCH   9  12
ENDBRANCH   5   6
ENDBRANCH   2   5
BRANCH   1  18
HETATM   18  C   UNL     1      43.073 -14.385   6.455  1.00  0.00     0.157 A 
HETATM   19  C   UNL     1      43.123 -15.235   5.310  1.00  0.00     0.029 A 
HETATM   20  C   UNL     1      43.174 -15.057   3.913  1.00  0.00     0.023 A 
HETATM   21  C   UNL     1      43.117 -16.528   5.820  1.00  0.00     0.063 A 
HETATM   22  C   UNL     1      43.217 -16.181   3.071  1.00  0.00    -0.061 A 
HETATM   23  C   UNL     1      43.275 -16.012   1.580  1.00  0.00     0.048 C 
HETATM   24  C   UNL     1      43.210 -17.467   3.627  1.00  0.00     0.009 A 
HETATM   25  C   UNL     1      43.159 -17.668   5.012  1.00  0.00     0.032 A 
HETATM   26  N   UNL     1      43.065 -16.379   7.178  1.00  0.00    -0.277 N 
HETATM   27  H   UNL     1      43.044 -17.116   7.874  1.00  0.00     0.189 HD
HETATM   28  N   UNL     1      43.043 -15.102   7.600  1.00  0.00    -0.168 NA
ENDBRANCH   1  18
TORSDOF 5
ENDMDL
MODEL 8
REMARK VINA RESULT:      -7.6      4.922      6.682
REMARK  5 active torsions:
REMARK  status: ('A' for Active; 'I' for Inactive)
REMARK    1  A    between atoms: C_9  and  C_10 
REMARK       I    between atoms: C_10  and  N_11 
REMARK    2  A    between atoms: N_11  and  C_12 
REMARK    3  A    between atoms: C_12  and  C_13 
REMARK    4  A    between atoms: C_16  and  N_17 
REMARK       I    between atoms: N_17  and  C_18 
REMARK    5  A    between atoms: C_18  and  O_19 
ROOT
HETATM    1  C   UNL     1      43.557 -13.197   6.838  1.00  0.00     0.273 C 
HETATM    2  N   UNL     1      42.726 -13.143   5.741  1.00  0.00    -0.351 N 
HETATM    3  O   UNL     1      43.473 -14.071   7.697  1.00  0.00    -0.266 OA
HETATM    4  H   UNL     1      42.957 -12.441   5.042  1.00  0.00     0.163 HD
ENDROOT
BRANCH   2   5
HETATM    5  C   UNL     1      41.803 -14.204   5.452  1.00  0.00     0.161 C 
BRANCH   5   6
HETATM    6  C   UNL     1      41.555 -14.335   3.975  1.00  0.00    -0.040 A 
HETATM    7  C   UNL     1      40.551 -15.181   3.490  1.00  0.00     0.011 A 
HETATM    8  C   UNL     1      40.307 -15.293   2.114  1.00  0.00     0.030 A 
HETATM    9  C   UNL     1      41.068 -14.568   1.196  1.00  0.00     0.036 A 
HETATM   10  C   UNL     1      42.091 -13.743   1.683  1.00  0.00     0.030 A 
HETATM   11  C   UNL     1      42.335 -13.629   3.056  1.00  0.00     0.011 A 
BRANCH   9  12
HETATM   12  N   UNL     1      40.893 -14.593  -0.199  1.00  0.00    -0.303 N 
HETATM   13  C   UNL     1      40.019 -13.952  -1.035  1.00  0.00     0.364 C 
HETATM   14  O   UNL     1      40.076 -14.141  -2.247  1.00  0.00    -0.238 OA
HETATM   15  H   UNL     1      41.531 -15.174  -0.727  1.00  0.00     0.171 HD
BRANCH  13  16
HETATM   16  O   UNL     1      39.131 -13.119  -0.438  1.00  0.00    -0.309 OA
HETATM   17  C   UNL     1      38.223 -12.486  -1.339  1.00  0.00     0.215 C 
ENDBRANCH  13  16
ENDBRANCH   9  12
ENDBRANCH   5   6
ENDBRANCH   2   5
BRANCH   1  18
HETATM   18  C   UNL     1      44.561 -12.121   6.868  1.00  0.00     0.157 A 
HETATM   19  C   UNL     1      44.721 -11.121   7.873  1.00  0.00     0.029 A 
HETATM   20  C   UNL     1      44.078 -10.780   9.080  1.00  0.00     0.023 A 
HETATM   21  C   UNL     1      45.803 -10.357   7.453  1.00  0.00     0.063 A 
HETATM   22  C   UNL     1      44.540  -9.684   9.828  1.00  0.00    -0.061 A 
HETATM   23  C   UNL     1      43.871  -9.308  11.118  1.00  0.00     0.048 C 
HETATM   24  C   UNL     1      45.635  -8.941   9.368  1.00  0.00     0.009 A 
HETATM   25  C   UNL     1      46.289  -9.261   8.172  1.00  0.00     0.032 A 
HETATM   26  N   UNL     1      46.206 -10.921   6.275  1.00  0.00    -0.277 N 
HETATM   27  H   UNL     1      46.972 -10.620   5.683  1.00  0.00     0.189 HD
HETATM   28  N   UNL     1      45.486 -11.990   5.892  1.00  0.00    -0.168 NA
ENDBRANCH   1  18
TORSDOF 5
ENDMDL
MODEL 9
REMARK VINA RESULT:      -7.6      7.203      9.962
REMARK  5 active torsions:
REMARK  status: ('A' for Active; 'I' for Inactive)
REMARK    1  A    between atoms: C_9  and  C_10 
REMARK       I    between atoms: C_10  and  N_11 
REMARK    2  A    between atoms: N_11  and  C_12 
REMARK    3  A    between atoms: C_12  and  C_13 
REMARK    4  A    between atoms: C_16  and  N_17 
REMARK       I    between atoms: N_17  and  C_18 
REMARK    5  A    between atoms: C_18  and  O_19 
ROOT
HETATM    1  C   UNL     1      44.644 -10.132   9.334  1.00  0.00     0.273 C 
HETATM    2  N   UNL     1      44.232 -11.065   8.409  1.00  0.00    -0.351 N 
HETATM    3  O   UNL     1      45.445  -9.239   9.072  1.00  0.00    -0.266 OA
HETATM    4  H   UNL     1      43.487 -11.688   8.707  1.00  0.00     0.163 HD
ENDROOT
BRANCH   2   5
HETATM    5  C   UNL     1      44.601 -10.954   7.025  1.00  0.00     0.161 C 
BRANCH   5   6
HETATM    6  C   UNL     1      43.991 -12.053   6.200  1.00  0.00    -0.040 A 
HETATM    7  C   UNL     1      43.756 -13.317   6.753  1.00  0.00     0.011 A 
HETATM    8  C   UNL     1      43.174 -14.339   5.990  1.00  0.00     0.030 A 
HETATM    9  C   UNL     1      42.823 -14.120   4.658  1.00  0.00     0.036 A 
HETATM   10  C   UNL     1      43.085 -12.861   4.099  1.00  0.00     0.030 A 
HETATM   11  C   UNL     1      43.665 -11.840   4.858  1.00  0.00     0.011 A 
BRANCH   9  12
HETATM   12  N   UNL     1      42.218 -15.067   3.814  1.00  0.00    -0.303 N 
HETATM   13  C   UNL     1      42.600 -16.315   3.397  1.00  0.00     0.364 C 
HETATM   14  O   UNL     1      41.875 -16.961   2.646  1.00  0.00    -0.238 OA
HETATM   15  H   UNL     1      41.313 -14.825   3.432  1.00  0.00     0.171 HD
BRANCH  13  16
HETATM   16  O   UNL     1      43.789 -16.759   3.871  1.00  0.00    -0.309 OA
HETATM   17  C   UNL     1      43.699 -17.936   4.675  1.00  0.00     0.215 C 
ENDBRANCH  13  16
ENDBRANCH   9  12
ENDBRANCH   5   6
ENDBRANCH   2   5
BRANCH   1  18
HETATM   18  C   UNL     1      44.018 -10.299  10.656  1.00  0.00     0.157 A 
HETATM   19  C   UNL     1      43.390  -9.290  11.445  1.00  0.00     0.029 A 
HETATM   20  C   UNL     1      43.145  -7.908  11.320  1.00  0.00     0.023 A 
HETATM   21  C   UNL     1      42.952  -9.947  12.589  1.00  0.00     0.063 A 
HETATM   22  C   UNL     1      42.468  -7.228  12.346  1.00  0.00    -0.061 A 
HETATM   23  C   UNL     1      42.193  -5.756  12.230  1.00  0.00     0.048 C 
HETATM   24  C   UNL     1      42.043  -7.928  13.482  1.00  0.00     0.009 A 
HETATM   25  C   UNL     1      42.276  -9.301  13.628  1.00  0.00     0.032 A 
HETATM   26  N   UNL     1      43.329 -11.250  12.422  1.00  0.00    -0.277 N 
HETATM   27  H   UNL     1      43.174 -12.019  13.065  1.00  0.00     0.189 HD
HETATM   28  N   UNL     1      43.968 -11.504  11.267  1.00  0.00    -0.168 NA
ENDBRANCH   1  18
TORSDOF 5
ENDMDL
MODEL 10
REMARK VINA RESULT:      -7.5     14.149     16.010
REMARK  5 active torsions:
REMARK  status: ('A' for Active; 'I' for Inactive)
REMARK    1  A    between atoms: C_9  and  C_10 
REMARK       I    between atoms: C_10  and  N_11 
REMARK    2  A    between atoms: N_11  and  C_12 
REMARK    3  A    between atoms: C_12  and  C_13 
REMARK    4  A    between atoms: C_16  and  N_17 
REMARK       I    between atoms: N_17  and  C_18 
REMARK    5  A    between atoms: C_18  and  O_19 
ROOT
HETATM    1  C   UNL     1      47.462 -28.733   1.202  1.00  0.00     0.273 C 
HETATM    2  N   UNL     1      46.799 -29.033   0.033  1.00  0.00    -0.351 N 
HETATM    3  O   UNL     1      47.284 -27.688   1.822  1.00  0.00    -0.266 OA
HETATM    4  H   UNL     1      46.944 -29.970  -0.333  1.00  0.00     0.163 HD
ENDROOT
BRANCH   2   5
HETATM    5  C   UNL     1      45.734 -28.201  -0.454  1.00  0.00     0.161 C 
BRANCH   5   6
HETATM    6  C   UNL     1      45.207 -28.692  -1.773  1.00  0.00    -0.040 A 
HETATM    7  C   UNL     1      45.454 -27.981  -2.952  1.00  0.00     0.011 A 
HETATM    8  C   UNL     1      44.976 -28.444  -4.186  1.00  0.00     0.030 A 
HETATM    9  C   UNL     1      44.234 -29.624  -4.263  1.00  0.00     0.036 A 
HETATM   10  C   UNL     1      43.964 -30.320  -3.076  1.00  0.00     0.030 A 
HETATM   11  C   UNL     1      44.441 -29.859  -1.845  1.00  0.00     0.011 A 
BRANCH   9  12
HETATM   12  N   UNL     1      43.726 -30.185  -5.448  1.00  0.00    -0.303 N 
HETATM   13  C   UNL     1      44.268 -31.028  -6.381  1.00  0.00     0.364 C 
HETATM   14  O   UNL     1      43.601 -31.387  -7.346  1.00  0.00    -0.238 OA
HETATM   15  H   UNL     1      42.769 -29.960  -5.684  1.00  0.00     0.171 HD
BRANCH  13  16
HETATM   16  O   UNL     1      45.545 -31.422  -6.152  1.00  0.00    -0.309 OA
HETATM   17  C   UNL     1      46.117 -32.202  -7.202  1.00  0.00     0.215 C 
ENDBRANCH  13  16
ENDBRANCH   9  12
ENDBRANCH   5   6
ENDBRANCH   2   5
BRANCH   1  18
HETATM   18  C   UNL     1      48.386 -29.791   1.641  1.00  0.00     0.157 A 
HETATM   19  C   UNL     1      49.457 -30.365   0.893  1.00  0.00     0.029 A 
HETATM   20  C   UNL     1      50.002 -30.195  -0.395  1.00  0.00     0.023 A 
HETATM   21  C   UNL     1      50.029 -31.304   1.743  1.00  0.00     0.063 A 
HETATM   22  C   UNL     1      51.104 -30.972  -0.790  1.00  0.00    -0.061 A 
HETATM   23  C   UNL     1      51.702 -30.803  -2.157  1.00  0.00     0.048 C 
HETATM   24  C   UNL     1      51.650 -31.907   0.098  1.00  0.00     0.009 A 
HETATM   25  C   UNL     1      51.124 -32.093   1.383  1.00  0.00     0.032 A 
HETATM   26  N   UNL     1      49.297 -31.239   2.896  1.00  0.00    -0.277 N 
HETATM   27  H   UNL     1      49.431 -31.788   3.738  1.00  0.00     0.189 HD
HETATM   28  N   UNL     1      48.302 -30.334   2.876  1.00  0.00    -0.168 NA
ENDBRANCH   1  18
TORSDOF 5
ENDMDL
