MODEL 1
REMARK VINA RESULT:      -8.1      0.000      0.000
REMARK  8 active torsions:
REMARK  status: ('A' for Active; 'I' for Inactive)
REMARK    1  A    between atoms: C_2  and  C_3 
REMARK    2  A    between atoms: C_3  and  N_4 
REMARK    3  A    between atoms: N_4  and  C_5 
REMARK    4  A    between atoms: C_7  and  N_8 
REMARK    5  A    between atoms: N_8  and  C_9 
REMARK    6  A    between atoms: C_9  and  C_10 
REMARK    7  A    between atoms: C_10  and  C_11 
REMARK    8  A    between atoms: C_13  and  O_14 
ROOT
HETATM    1  C   UNL     1      43.693 -16.846   4.473  1.00  0.00     0.119 A 
HETATM    2  N   UNL     1      43.354 -15.957   3.519  1.00  0.00    -0.207 NA
HETATM    3  C   UNL     1      43.114 -16.425   2.290  1.00  0.00     0.181 A 
HETATM    4  N   UNL     1      43.218 -17.708   1.960  1.00  0.00    -0.330 N 
HETATM    5  H   UNL     1      43.087 -17.948   0.987  1.00  0.00     0.168 HD
HETATM    6  C   UNL     1      43.523 -18.635   2.875  1.00  0.00     0.048 A 
HETATM    7  C   UNL     1      43.765 -18.231   4.202  1.00  0.00     0.031 A 
HETATM    8  C   UNL     1      43.588 -19.988   2.509  1.00  0.00     0.030 A 
HETATM    9  C   UNL     1      43.880 -20.958   3.468  1.00  0.00     0.002 A 
HETATM   10  C   UNL     1      44.106 -20.583   4.788  1.00  0.00     0.001 A 
HETATM   11  C   UNL     1      44.050 -19.236   5.157  1.00  0.00     0.017 A 
ENDROOT
BRANCH   3  12
HETATM   12  N   UNL     1      42.796 -15.500   1.304  1.00  0.00    -0.262 NA
HETATM   13  H   UNL     1      43.700 -15.109   1.020  1.00  0.00     0.130 HD
BRANCH  12  14
HETATM   14  C   UNL     1      41.875 -14.442   1.727  1.00  0.00     0.100 C 
BRANCH  14  15
HETATM   15  C   UNL     1      40.511 -14.613   1.046  1.00  0.00     0.053 C 
BRANCH  15  16
HETATM   16  C   UNL     1      40.417 -13.775  -0.204  1.00  0.00    -0.054 A 
HETATM   17  C   UNL     1      39.724 -14.245  -1.334  1.00  0.00     0.044 A 
HETATM   18  C   UNL     1      39.680 -13.485  -2.506  1.00  0.00     0.068 A 
HETATM   19  C   UNL     1      40.326 -12.248  -2.544  1.00  0.00     0.037 A 
HETATM   20  C   UNL     1      41.005 -11.766  -1.426  1.00  0.00     0.003 A 
HETATM   21  C   UNL     1      41.052 -12.527  -0.260  1.00  0.00     0.007 A 
BRANCH  18  22
HETATM   22  O   UNL     1      39.060 -13.837  -3.671  1.00  0.00    -0.356 OA
HETATM   23  C   UNL     1      38.111 -14.893  -3.614  1.00  0.00     0.210 C 
ENDBRANCH  18  22
ENDBRANCH  15  16
ENDBRANCH  14  15
ENDBRANCH  12  14
ENDBRANCH   3  12
BRANCH   1  24
HETATM   24  N   UNL     1      43.927 -16.387   5.776  1.00  0.00    -0.277 NA
HETATM   25  H   UNL     1      44.916 -16.198   5.921  1.00  0.00     0.129 HD
BRANCH  24  26
HETATM   26  C   UNL     1      43.100 -15.270   6.238  1.00  0.00     0.093 C 
BRANCH  26  27
HETATM   27  C   UNL     1      41.957 -15.790   7.111  1.00  0.00     0.010 C 
HETATM   28  C   UNL     1      40.638 -15.890   6.359  1.00  0.00     0.006 C 
ENDBRANCH  26  27
ENDBRANCH  24  26
ENDBRANCH   1  24
TORSDOF 8
ENDMDL
MODEL 2
REMARK VINA RESULT:      -8.0      3.156      4.786
REMARK  8 active torsions:
REMARK  status: ('A' for Active; 'I' for Inactive)
REMARK    1  A    between atoms: C_2  and  C_3 
REMARK    2  A    between atoms: C_3  and  N_4 
REMARK    3  A    between atoms: N_4  and  C_5 
REMARK    4  A    between atoms: C_7  and  N_8 
REMARK    5  A    between atoms: N_8  and  C_9 
REMARK    6  A    between atoms: C_9  and  C_10 
REMARK    7  A    between atoms: C_10  and  C_11 
REMARK    8  A    between atoms: C_13  and  O_14 
ROOT
HETATM    1  C   UNL     1      43.804 -16.858   4.499  1.00  0.00     0.119 A 
HETATM    2  N   UNL     1      43.459 -15.917   3.598  1.00  0.00    -0.207 NA
HETATM    3  C   UNL     1      43.158 -16.324   2.360  1.00  0.00     0.181 A 
HETATM    4  N   UNL     1      43.209 -17.593   1.972  1.00  0.00    -0.330 N 
HETATM    5  H   UNL     1      43.034 -17.785   0.995  1.00  0.00     0.168 HD
HETATM    6  C   UNL     1      43.516 -18.568   2.833  1.00  0.00     0.048 A 
HETATM    7  C   UNL     1      43.821 -18.231   4.167  1.00  0.00     0.031 A 
HETATM    8  C   UNL     1      43.524 -19.905   2.408  1.00  0.00     0.030 A 
HETATM    9  C   UNL     1      43.819 -20.925   3.312  1.00  0.00     0.002 A 
HETATM   10  C   UNL     1      44.106 -20.616   4.638  1.00  0.00     0.001 A 
HETATM   11  C   UNL     1      44.108 -19.285   5.065  1.00  0.00     0.017 A 
ENDROOT
BRANCH   3  12
HETATM   12  N   UNL     1      42.835 -15.346   1.427  1.00  0.00    -0.262 NA
HETATM   13  H   UNL     1      43.677 -14.765   1.363  1.00  0.00     0.130 HD
BRANCH  12  14
HETATM   14  C   UNL     1      41.661 -14.536   1.768  1.00  0.00     0.100 C 
BRANCH  14  15
HETATM   15  C   UNL     1      42.017 -13.043   1.749  1.00  0.00     0.053 C 
BRANCH  15  16
HETATM   16  C   UNL     1      42.329 -12.541   3.137  1.00  0.00    -0.054 A 
HETATM   17  C   UNL     1      43.607 -12.046   3.452  1.00  0.00     0.044 A 
HETATM   18  C   UNL     1      43.905 -11.625   4.750  1.00  0.00     0.068 A 
HETATM   19  C   UNL     1      42.917 -11.694   5.734  1.00  0.00     0.037 A 
HETATM   20  C   UNL     1      41.643 -12.170   5.431  1.00  0.00     0.003 A 
HETATM   21  C   UNL     1      41.349 -12.595   4.138  1.00  0.00     0.007 A 
BRANCH  18  22
HETATM   22  O   UNL     1      45.107 -11.144   5.185  1.00  0.00    -0.356 OA
HETATM   23  C   UNL     1      45.498 -11.466   6.512  1.00  0.00     0.210 C 
ENDBRANCH  18  22
ENDBRANCH  15  16
ENDBRANCH  14  15
ENDBRANCH  12  14
ENDBRANCH   3  12
BRANCH   1  24
HETATM   24  N   UNL     1      44.101 -16.464   5.811  1.00  0.00    -0.277 NA
HETATM   25  H   UNL     1      45.105 -16.359   5.939  1.00  0.00     0.129 HD
BRANCH  24  26
HETATM   26  C   UNL     1      43.376 -15.302   6.328  1.00  0.00     0.093 C 
BRANCH  26  27
HETATM   27  C   UNL     1      42.219 -15.760   7.219  1.00  0.00     0.010 C 
HETATM   28  C   UNL     1      40.888 -15.801   6.483  1.00  0.00     0.006 C 
ENDBRANCH  26  27
ENDBRANCH  24  26
ENDBRANCH   1  24
TORSDOF 8
ENDMDL
MODEL 3
REMARK VINA RESULT:      -7.9      0.851      1.752
REMARK  8 active torsions:
REMARK  status: ('A' for Active; 'I' for Inactive)
REMARK    1  A    between atoms: C_2  and  C_3 
REMARK    2  A    between atoms: C_3  and  N_4 
REMARK    3  A    between atoms: N_4  and  C_5 
REMARK    4  A    between atoms: C_7  and  N_8 
REMARK    5  A    between atoms: N_8  and  C_9 
REMARK    6  A    between atoms: C_9  and  C_10 
REMARK    7  A    between atoms: C_10  and  C_11 
REMARK    8  A    between atoms: C_13  and  O_14 
ROOT
HETATM    1  C   UNL     1      43.662 -16.733   4.319  1.00  0.00     0.119 A 
HETATM    2  N   UNL     1      43.312 -15.880   3.336  1.00  0.00    -0.207 NA
HETATM    3  C   UNL     1      43.060 -16.394   2.128  1.00  0.00     0.181 A 
HETATM    4  N   UNL     1      43.163 -17.688   1.845  1.00  0.00    -0.330 N 
HETATM    5  H   UNL     1      43.022 -17.964   0.882  1.00  0.00     0.168 HD
HETATM    6  C   UNL     1      43.477 -18.580   2.790  1.00  0.00     0.048 A 
HETATM    7  C   UNL     1      43.732 -18.127   4.099  1.00  0.00     0.031 A 
HETATM    8  C   UNL     1      43.540 -19.945   2.474  1.00  0.00     0.030 A 
HETATM    9  C   UNL     1      43.842 -20.879   3.465  1.00  0.00     0.002 A 
HETATM   10  C   UNL     1      44.081 -20.455   4.768  1.00  0.00     0.001 A 
HETATM   11  C   UNL     1      44.027 -19.096   5.087  1.00  0.00     0.017 A 
ENDROOT
BRANCH   3  12
HETATM   12  N   UNL     1      42.732 -15.506   1.111  1.00  0.00    -0.262 NA
HETATM   13  H   UNL     1      43.616 -15.041   0.883  1.00  0.00     0.130 HD
BRANCH  12  14
HETATM   14  C   UNL     1      41.697 -14.528   1.460  1.00  0.00     0.100 C 
BRANCH  14  15
HETATM   15  C   UNL     1      40.335 -14.967   0.905  1.00  0.00     0.053 C 
BRANCH  15  16
HETATM   16  C   UNL     1      40.059 -14.326  -0.431  1.00  0.00    -0.054 A 
HETATM   17  C   UNL     1      40.487 -13.015  -0.703  1.00  0.00     0.044 A 
HETATM   18  C   UNL     1      40.187 -12.409  -1.925  1.00  0.00     0.068 A 
HETATM   19  C   UNL     1      39.462 -13.121  -2.882  1.00  0.00     0.037 A 
HETATM   20  C   UNL     1      39.043 -14.426  -2.630  1.00  0.00     0.003 A 
HETATM   21  C   UNL     1      39.338 -15.027  -1.408  1.00  0.00     0.007 A 
BRANCH  18  22
HETATM   22  O   UNL     1      40.529 -11.141  -2.301  1.00  0.00    -0.356 OA
HETATM   23  C   UNL     1      41.450 -10.440  -1.476  1.00  0.00     0.210 C 
ENDBRANCH  18  22
ENDBRANCH  15  16
ENDBRANCH  14  15
ENDBRANCH  12  14
ENDBRANCH   3  12
BRANCH   1  24
HETATM   24  N   UNL     1      43.908 -16.226   5.602  1.00  0.00    -0.277 NA
HETATM   25  H   UNL     1      44.869 -15.903   5.685  1.00  0.00     0.129 HD
BRANCH  24  26
HETATM   26  C   UNL     1      42.967 -15.222   6.103  1.00  0.00     0.093 C 
BRANCH  26  27
HETATM   27  C   UNL     1      41.920 -15.886   7.000  1.00  0.00     0.010 C 
HETATM   28  C   UNL     1      40.544 -15.949   6.352  1.00  0.00     0.006 C 
ENDBRANCH  26  27
ENDBRANCH  24  26
ENDBRANCH   1  24
TORSDOF 8
ENDMDL
MODEL 4
REMARK VINA RESULT:      -7.7      1.507      1.957
REMARK  8 active torsions:
REMARK  status: ('A' for Active; 'I' for Inactive)
REMARK    1  A    between atoms: C_2  and  C_3 
REMARK    2  A    between atoms: C_3  and  N_4 
REMARK    3  A    between atoms: N_4  and  C_5 
REMARK    4  A    between atoms: C_7  and  N_8 
REMARK    5  A    between atoms: N_8  and  C_9 
REMARK    6  A    between atoms: C_9  and  C_10 
REMARK    7  A    between atoms: C_10  and  C_11 
REMARK    8  A    between atoms: C_13  and  O_14 
ROOT
HETATM    1  C   UNL     1      43.760 -16.841   4.442  1.00  0.00     0.119 A 
HETATM    2  N   UNL     1      43.474 -15.979   3.446  1.00  0.00    -0.207 NA
HETATM    3  C   UNL     1      43.257 -16.488   2.229  1.00  0.00     0.181 A 
HETATM    4  N   UNL     1      43.336 -17.785   1.951  1.00  0.00    -0.330 N 
HETATM    5  H   UNL     1      43.227 -18.058   0.983  1.00  0.00     0.168 HD
HETATM    6  C   UNL     1      43.587 -18.684   2.908  1.00  0.00     0.048 A 
HETATM    7  C   UNL     1      43.801 -18.236   4.226  1.00  0.00     0.031 A 
HETATM    8  C   UNL     1      43.626 -20.051   2.595  1.00  0.00     0.030 A 
HETATM    9  C   UNL     1      43.862 -20.991   3.597  1.00  0.00     0.002 A 
HETATM   10  C   UNL     1      44.059 -20.572   4.909  1.00  0.00     0.001 A 
HETATM   11  C   UNL     1      44.030 -19.211   5.225  1.00  0.00     0.017 A 
ENDROOT
BRANCH   3  12
HETATM   12  N   UNL     1      42.994 -15.593   1.199  1.00  0.00    -0.262 NA
HETATM   13  H   UNL     1      43.919 -15.257   0.911  1.00  0.00     0.130 HD
BRANCH  12  14
HETATM   14  C   UNL     1      42.119 -14.476   1.565  1.00  0.00     0.100 C 
BRANCH  14  15
HETATM   15  C   UNL     1      40.647 -14.904   1.501  1.00  0.00     0.053 C 
BRANCH  15  16
HETATM   16  C   UNL     1      39.901 -14.138   0.438  1.00  0.00    -0.054 A 
HETATM   17  C   UNL     1      39.433 -12.836   0.684  1.00  0.00     0.044 A 
HETATM   18  C   UNL     1      38.703 -12.148  -0.288  1.00  0.00     0.068 A 
HETATM   19  C   UNL     1      38.446 -12.764  -1.514  1.00  0.00     0.037 A 
HETATM   20  C   UNL     1      38.916 -14.050  -1.775  1.00  0.00     0.003 A 
HETATM   21  C   UNL     1      39.640 -14.737  -0.803  1.00  0.00     0.007 A 
BRANCH  18  22
HETATM   22  O   UNL     1      38.179 -10.892  -0.164  1.00  0.00    -0.356 OA
HETATM   23  C   UNL     1      37.013 -10.745   0.634  1.00  0.00     0.210 C 
ENDBRANCH  18  22
ENDBRANCH  15  16
ENDBRANCH  14  15
ENDBRANCH  12  14
ENDBRANCH   3  12
BRANCH   1  24
HETATM   24  N   UNL     1      43.967 -16.339   5.734  1.00  0.00    -0.277 NA
HETATM   25  H   UNL     1      44.882 -15.899   5.809  1.00  0.00     0.129 HD
BRANCH  24  26
HETATM   26  C   UNL     1      42.918 -15.475   6.280  1.00  0.00     0.093 C 
BRANCH  26  27
HETATM   27  C   UNL     1      41.735 -16.323   6.753  1.00  0.00     0.010 C 
HETATM   28  C   UNL     1      40.390 -15.729   6.360  1.00  0.00     0.006 C 
ENDBRANCH  26  27
ENDBRANCH  24  26
ENDBRANCH   1  24
TORSDOF 8
ENDMDL
MODEL 5
REMARK VINA RESULT:      -7.7      4.717      7.937
REMARK  8 active torsions:
REMARK  status: ('A' for Active; 'I' for Inactive)
REMARK    1  A    between atoms: C_2  and  C_3 
REMARK    2  A    between atoms: C_3  and  N_4 
REMARK    3  A    between atoms: N_4  and  C_5 
REMARK    4  A    between atoms: C_7  and  N_8 
REMARK    5  A    between atoms: N_8  and  C_9 
REMARK    6  A    between atoms: C_9  and  C_10 
REMARK    7  A    between atoms: C_10  and  C_11 
REMARK    8  A    between atoms: C_13  and  O_14 
ROOT
HETATM    1  C   UNL     1      42.811 -14.882   2.856  1.00  0.00     0.119 A 
HETATM    2  N   UNL     1      42.641 -13.954   3.818  1.00  0.00    -0.207 NA
HETATM    3  C   UNL     1      42.793 -14.343   5.088  1.00  0.00     0.181 A 
HETATM    4  N   UNL     1      43.073 -15.592   5.445  1.00  0.00    -0.330 N 
HETATM    5  H   UNL     1      43.094 -15.796   6.435  1.00  0.00     0.168 HD
HETATM    6  C   UNL     1      43.281 -16.543   4.529  1.00  0.00     0.048 A 
HETATM    7  C   UNL     1      43.168 -16.213   3.164  1.00  0.00     0.031 A 
HETATM    8  C   UNL     1      43.615 -17.845   4.931  1.00  0.00     0.030 A 
HETATM    9  C   UNL     1      43.857 -18.831   3.976  1.00  0.00     0.002 A 
HETATM   10  C   UNL     1      43.767 -18.523   2.623  1.00  0.00     0.001 A 
HETATM   11  C   UNL     1      43.427 -17.230   2.216  1.00  0.00     0.017 A 
ENDROOT
BRANCH   3  12
HETATM   12  N   UNL     1      42.585 -13.390   6.078  1.00  0.00    -0.262 NA
HETATM   13  H   UNL     1      42.481 -12.509   5.566  1.00  0.00     0.130 HD
BRANCH  12  14
HETATM   14  C   UNL     1      43.656 -13.295   7.075  1.00  0.00     0.100 C 
BRANCH  14  15
HETATM   15  C   UNL     1      44.783 -12.387   6.565  1.00  0.00     0.053 C 
BRANCH  15  16
HETATM   16  C   UNL     1      45.002 -11.218   7.493  1.00  0.00    -0.054 A 
HETATM   17  C   UNL     1      44.077 -10.925   8.511  1.00  0.00     0.044 A 
HETATM   18  C   UNL     1      44.260  -9.814   9.337  1.00  0.00     0.068 A 
HETATM   19  C   UNL     1      45.376  -8.997   9.148  1.00  0.00     0.037 A 
HETATM   20  C   UNL     1      46.306  -9.284   8.150  1.00  0.00     0.003 A 
HETATM   21  C   UNL     1      46.120 -10.390   7.323  1.00  0.00     0.007 A 
BRANCH  18  22
HETATM   22  O   UNL     1      43.429  -9.414  10.345  1.00  0.00    -0.356 OA
HETATM   23  C   UNL     1      42.058  -9.223  10.025  1.00  0.00     0.210 C 
ENDBRANCH  18  22
ENDBRANCH  15  16
ENDBRANCH  14  15
ENDBRANCH  12  14
ENDBRANCH   3  12
BRANCH   1  24
HETATM   24  N   UNL     1      42.683 -14.498   1.514  1.00  0.00    -0.277 NA
HETATM   25  H   UNL     1      42.933 -15.265   0.893  1.00  0.00     0.129 HD
BRANCH  24  26
HETATM   26  C   UNL     1      41.408 -13.894   1.122  1.00  0.00     0.093 C 
BRANCH  26  27
HETATM   27  C   UNL     1      40.517 -14.940   0.447  1.00  0.00     0.010 C 
HETATM   28  C   UNL     1      39.811 -15.846   1.445  1.00  0.00     0.006 C 
ENDBRANCH  26  27
ENDBRANCH  24  26
ENDBRANCH   1  24
TORSDOF 8
ENDMDL
MODEL 6
REMARK VINA RESULT:      -7.5      4.683      8.103
REMARK  8 active torsions:
REMARK  status: ('A' for Active; 'I' for Inactive)
REMARK    1  A    between atoms: C_2  and  C_3 
REMARK    2  A    between atoms: C_3  and  N_4 
REMARK    3  A    between atoms: N_4  and  C_5 
REMARK    4  A    between atoms: C_7  and  N_8 
REMARK    5  A    between atoms: N_8  and  C_9 
REMARK    6  A    between atoms: C_9  and  C_10 
REMARK    7  A    between atoms: C_10  and  C_11 
REMARK    8  A    between atoms: C_13  and  O_14 
ROOT
HETATM    1  C   UNL     1      43.265 -16.717   3.936  1.00  0.00     0.119 A 
HETATM    2  N   UNL     1      43.808 -16.246   5.075  1.00  0.00    -0.207 NA
HETATM    3  C   UNL     1      43.241 -15.173   5.636  1.00  0.00     0.181 A 
HETATM    4  N   UNL     1      42.197 -14.538   5.115  1.00  0.00    -0.330 N 
HETATM    5  H   UNL     1      41.891 -13.693   5.578  1.00  0.00     0.168 HD
HETATM    6  C   UNL     1      41.602 -14.982   4.002  1.00  0.00     0.048 A 
HETATM    7  C   UNL     1      42.119 -16.125   3.361  1.00  0.00     0.031 A 
HETATM    8  C   UNL     1      40.476 -14.317   3.494  1.00  0.00     0.030 A 
HETATM    9  C   UNL     1      39.840 -14.794   2.349  1.00  0.00     0.002 A 
HETATM   10  C   UNL     1      40.323 -15.931   1.709  1.00  0.00     0.001 A 
HETATM   11  C   UNL     1      41.449 -16.593   2.206  1.00  0.00     0.017 A 
ENDROOT
BRANCH   3  12
HETATM   12  N   UNL     1      43.825 -14.672   6.793  1.00  0.00    -0.262 NA
HETATM   13  H   UNL     1      43.419 -15.235   7.547  1.00  0.00     0.130 HD
BRANCH  12  14
HETATM   14  C   UNL     1      43.600 -13.242   7.025  1.00  0.00     0.100 C 
BRANCH  14  15
HETATM   15  C   UNL     1      44.794 -12.422   6.517  1.00  0.00     0.053 C 
BRANCH  15  16
HETATM   16  C   UNL     1      44.913 -11.115   7.260  1.00  0.00    -0.054 A 
HETATM   17  C   UNL     1      43.766 -10.438   7.712  1.00  0.00     0.044 A 
HETATM   18  C   UNL     1      43.879  -9.205   8.358  1.00  0.00     0.068 A 
HETATM   19  C   UNL     1      45.145  -8.651   8.558  1.00  0.00     0.037 A 
HETATM   20  C   UNL     1      46.289  -9.318   8.125  1.00  0.00     0.003 A 
HETATM   21  C   UNL     1      46.175 -10.545   7.476  1.00  0.00     0.007 A 
BRANCH  18  22
HETATM   22  O   UNL     1      42.846  -8.443   8.826  1.00  0.00    -0.356 OA
HETATM   23  C   UNL     1      43.092  -7.643   9.974  1.00  0.00     0.210 C 
ENDBRANCH  18  22
ENDBRANCH  15  16
ENDBRANCH  14  15
ENDBRANCH  12  14
ENDBRANCH   3  12
BRANCH   1  24
HETATM   24  N   UNL     1      43.823 -17.856   3.339  1.00  0.00    -0.277 NA
HETATM   25  H   UNL     1      44.698 -17.629   2.872  1.00  0.00     0.129 HD
BRANCH  24  26
HETATM   26  C   UNL     1      43.969 -19.040   4.190  1.00  0.00     0.093 C 
BRANCH  26  27
HETATM   27  C   UNL     1      43.891 -20.309   3.340  1.00  0.00     0.010 C 
HETATM   28  C   UNL     1      43.175 -20.090   2.015  1.00  0.00     0.006 C 
ENDBRANCH  26  27
ENDBRANCH  24  26
ENDBRANCH   1  24
TORSDOF 8
ENDMDL
MODEL 7
REMARK VINA RESULT:      -7.5      2.782      4.061
REMARK  8 active torsions:
REMARK  status: ('A' for Active; 'I' for Inactive)
REMARK    1  A    between atoms: C_2  and  C_3 
REMARK    2  A    between atoms: C_3  and  N_4 
REMARK    3  A    between atoms: N_4  and  C_5 
REMARK    4  A    between atoms: C_7  and  N_8 
REMARK    5  A    between atoms: N_8  and  C_9 
REMARK    6  A    between atoms: C_9  and  C_10 
REMARK    7  A    between atoms: C_10  and  C_11 
REMARK    8  A    between atoms: C_13  and  O_14 
ROOT
HETATM    1  C   UNL     1      43.680 -16.907   4.461  1.00  0.00     0.119 A 
HETATM    2  N   UNL     1      43.392 -16.052   3.461  1.00  0.00    -0.207 NA
HETATM    3  C   UNL     1      43.218 -16.563   2.238  1.00  0.00     0.181 A 
HETATM    4  N   UNL     1      43.340 -17.857   1.959  1.00  0.00    -0.330 N 
HETATM    5  H   UNL     1      43.261 -18.130   0.988  1.00  0.00     0.168 HD
HETATM    6  C   UNL     1      43.594 -18.751   2.919  1.00  0.00     0.048 A 
HETATM    7  C   UNL     1      43.765 -18.301   4.243  1.00  0.00     0.031 A 
HETATM    8  C   UNL     1      43.679 -20.115   2.605  1.00  0.00     0.030 A 
HETATM    9  C   UNL     1      43.919 -21.051   3.611  1.00  0.00     0.002 A 
HETATM   10  C   UNL     1      44.074 -20.630   4.928  1.00  0.00     0.001 A 
HETATM   11  C   UNL     1      43.999 -19.271   5.246  1.00  0.00     0.017 A 
ENDROOT
BRANCH   3  12
HETATM   12  N   UNL     1      42.953 -15.674   1.204  1.00  0.00    -0.262 NA
HETATM   13  H   UNL     1      43.670 -14.947   1.303  1.00  0.00     0.130 HD
BRANCH  12  14
HETATM   14  C   UNL     1      41.608 -15.091   1.223  1.00  0.00     0.100 C 
BRANCH  14  15
HETATM   15  C   UNL     1      41.687 -13.561   1.315  1.00  0.00     0.053 C 
BRANCH  15  16
HETATM   16  C   UNL     1      41.624 -13.098   2.749  1.00  0.00    -0.054 A 
HETATM   17  C   UNL     1      40.403 -13.079   3.446  1.00  0.00     0.044 A 
HETATM   18  C   UNL     1      40.342 -12.605   4.758  1.00  0.00     0.068 A 
HETATM   19  C   UNL     1      41.509 -12.154   5.378  1.00  0.00     0.037 A 
HETATM   20  C   UNL     1      42.728 -12.180   4.702  1.00  0.00     0.003 A 
HETATM   21  C   UNL     1      42.786 -12.648   3.391  1.00  0.00     0.007 A 
BRANCH  18  22
HETATM   22  O   UNL     1      39.220 -12.518   5.532  1.00  0.00    -0.356 OA
HETATM   23  C   UNL     1      38.945 -11.268   6.149  1.00  0.00     0.210 C 
ENDBRANCH  18  22
ENDBRANCH  15  16
ENDBRANCH  14  15
ENDBRANCH  12  14
ENDBRANCH   3  12
BRANCH   1  24
HETATM   24  N   UNL     1      43.843 -16.403   5.759  1.00  0.00    -0.277 NA
HETATM   25  H   UNL     1      44.727 -15.906   5.845  1.00  0.00     0.129 HD
BRANCH  24  26
HETATM   26  C   UNL     1      42.736 -15.612   6.301  1.00  0.00     0.093 C 
BRANCH  26  27
HETATM   27  C   UNL     1      41.399 -16.237   5.897  1.00  0.00     0.010 C 
HETATM   28  C   UNL     1      40.229 -15.704   6.712  1.00  0.00     0.006 C 
ENDBRANCH  26  27
ENDBRANCH  24  26
ENDBRANCH   1  24
TORSDOF 8
ENDMDL
MODEL 8
REMARK VINA RESULT:      -7.4      1.715      3.838
REMARK  8 active torsions:
REMARK  status: ('A' for Active; 'I' for Inactive)
REMARK    1  A    between atoms: C_2  and  C_3 
REMARK    2  A    between atoms: C_3  and  N_4 
REMARK    3  A    between atoms: N_4  and  C_5 
REMARK    4  A    between atoms: C_7  and  N_8 
REMARK    5  A    between atoms: N_8  and  C_9 
REMARK    6  A    between atoms: C_9  and  C_10 
REMARK    7  A    between atoms: C_10  and  C_11 
REMARK    8  A    between atoms: C_13  and  O_14 
ROOT
HETATM    1  C   UNL     1      42.778 -17.422   3.424  1.00  0.00     0.119 A 
HETATM    2  N   UNL     1      41.973 -16.909   2.474  1.00  0.00    -0.207 NA
HETATM    3  C   UNL     1      41.078 -15.990   2.849  1.00  0.00     0.181 A 
HETATM    4  N   UNL     1      40.927 -15.581   4.104  1.00  0.00    -0.330 N 
HETATM    5  H   UNL     1      40.171 -14.937   4.293  1.00  0.00     0.168 HD
HETATM    6  C   UNL     1      41.719 -16.036   5.080  1.00  0.00     0.048 A 
HETATM    7  C   UNL     1      42.710 -16.989   4.767  1.00  0.00     0.031 A 
HETATM    8  C   UNL     1      41.566 -15.560   6.390  1.00  0.00     0.030 A 
HETATM    9  C   UNL     1      42.409 -16.014   7.403  1.00  0.00     0.002 A 
HETATM   10  C   UNL     1      43.404 -16.942   7.113  1.00  0.00     0.001 A 
HETATM   11  C   UNL     1      43.557 -17.426   5.811  1.00  0.00     0.017 A 
ENDROOT
BRANCH   3  12
HETATM   12  N   UNL     1      40.228 -15.488   1.870  1.00  0.00    -0.262 NA
HETATM   13  H   UNL     1      39.756 -16.315   1.494  1.00  0.00     0.130 HD
BRANCH  12  14
HETATM   14  C   UNL     1      40.896 -14.733   0.805  1.00  0.00     0.100 C 
BRANCH  14  15
HETATM   15  C   UNL     1      40.103 -13.462   0.471  1.00  0.00     0.053 C 
BRANCH  15  16
HETATM   16  C   UNL     1      39.313 -13.632  -0.802  1.00  0.00    -0.054 A 
HETATM   17  C   UNL     1      38.411 -12.640  -1.228  1.00  0.00     0.044 A 
HETATM   18  C   UNL     1      37.648 -12.824  -2.383  1.00  0.00     0.068 A 
HETATM   19  C   UNL     1      37.792 -14.001  -3.118  1.00  0.00     0.037 A 
HETATM   20  C   UNL     1      38.691 -14.986  -2.714  1.00  0.00     0.003 A 
HETATM   21  C   UNL     1      39.448 -14.805  -1.559  1.00  0.00     0.007 A 
BRANCH  18  22
HETATM   22  O   UNL     1      36.729 -11.948  -2.888  1.00  0.00    -0.356 OA
HETATM   23  C   UNL     1      36.847 -10.584  -2.507  1.00  0.00     0.210 C 
ENDBRANCH  18  22
ENDBRANCH  15  16
ENDBRANCH  14  15
ENDBRANCH  12  14
ENDBRANCH   3  12
BRANCH   1  24
HETATM   24  N   UNL     1      43.744 -18.370   3.057  1.00  0.00    -0.277 NA
HETATM   25  H   UNL     1      44.253 -18.703   3.872  1.00  0.00     0.129 HD
BRANCH  24  26
HETATM   26  C   UNL     1      43.286 -19.486   2.226  1.00  0.00     0.093 C 
BRANCH  26  27
HETATM   27  C   UNL     1      43.853 -20.803   2.759  1.00  0.00     0.010 C 
HETATM   28  C   UNL     1      43.920 -20.844   4.279  1.00  0.00     0.006 C 
ENDBRANCH  26  27
ENDBRANCH  24  26
ENDBRANCH   1  24
TORSDOF 8
ENDMDL
MODEL 9
REMARK VINA RESULT:      -7.1      3.261      8.195
REMARK  8 active torsions:
REMARK  status: ('A' for Active; 'I' for Inactive)
REMARK    1  A    between atoms: C_2  and  C_3 
REMARK    2  A    between atoms: C_3  and  N_4 
REMARK    3  A    between atoms: N_4  and  C_5 
REMARK    4  A    between atoms: C_7  and  N_8 
REMARK    5  A    between atoms: N_8  and  C_9 
REMARK    6  A    between atoms: C_9  and  C_10 
REMARK    7  A    between atoms: C_10  and  C_11 
REMARK    8  A    between atoms: C_13  and  O_14 
ROOT
HETATM    1  C   UNL     1      41.044 -12.025   0.706  1.00  0.00     0.119 A 
HETATM    2  N   UNL     1      40.643 -12.735   1.779  1.00  0.00    -0.207 NA
HETATM    3  C   UNL     1      39.958 -13.862   1.556  1.00  0.00     0.181 A 
HETATM    4  N   UNL     1      39.634 -14.297   0.343  1.00  0.00    -0.330 N 
HETATM    5  H   UNL     1      39.051 -15.121   0.288  1.00  0.00     0.168 HD
HETATM    6  C   UNL     1      40.033 -13.646  -0.754  1.00  0.00     0.048 A 
HETATM    7  C   UNL     1      40.784 -12.462  -0.612  1.00  0.00     0.031 A 
HETATM    8  C   UNL     1      39.712 -14.147  -2.024  1.00  0.00     0.030 A 
HETATM    9  C   UNL     1      40.150 -13.483  -3.169  1.00  0.00     0.002 A 
HETATM   10  C   UNL     1      40.906 -12.322  -3.052  1.00  0.00     0.001 A 
HETATM   11  C   UNL     1      41.223 -11.813  -1.789  1.00  0.00     0.017 A 
ENDROOT
BRANCH   3  12
HETATM   12  N   UNL     1      39.519 -14.573   2.666  1.00  0.00    -0.262 NA
HETATM   13  H   UNL     1      39.710 -13.952   3.459  1.00  0.00     0.130 HD
BRANCH  12  14
HETATM   14  C   UNL     1      40.161 -15.878   2.854  1.00  0.00     0.100 C 
BRANCH  14  15
HETATM   15  C   UNL     1      41.618 -15.833   2.372  1.00  0.00     0.053 C 
BRANCH  15  16
HETATM   16  C   UNL     1      42.451 -16.886   3.058  1.00  0.00    -0.054 A 
HETATM   17  C   UNL     1      42.691 -16.825   4.442  1.00  0.00     0.044 A 
HETATM   18  C   UNL     1      43.502 -17.777   5.064  1.00  0.00     0.068 A 
HETATM   19  C   UNL     1      44.070 -18.797   4.299  1.00  0.00     0.037 A 
HETATM   20  C   UNL     1      43.829 -18.876   2.928  1.00  0.00     0.003 A 
HETATM   21  C   UNL     1      43.024 -17.923   2.308  1.00  0.00     0.007 A 
BRANCH  18  22
HETATM   22  O   UNL     1      43.824 -17.817   6.391  1.00  0.00    -0.356 OA
HETATM   23  C   UNL     1      43.394 -16.732   7.201  1.00  0.00     0.210 C 
ENDBRANCH  18  22
ENDBRANCH  15  16
ENDBRANCH  14  15
ENDBRANCH  12  14
ENDBRANCH   3  12
BRANCH   1  24
HETATM   24  N   UNL     1      41.785 -10.853   0.908  1.00  0.00    -0.277 NA
HETATM   25  H   UNL     1      42.340 -10.629   0.084  1.00  0.00     0.129 HD
BRANCH  24  26
HETATM   26  C   UNL     1      41.046  -9.681   1.383  1.00  0.00     0.093 C 
BRANCH  26  27
HETATM   27  C   UNL     1      40.780  -8.723   0.221  1.00  0.00     0.010 C 
HETATM   28  C   UNL     1      42.018  -8.462  -0.625  1.00  0.00     0.006 C 
ENDBRANCH  26  27
ENDBRANCH  24  26
ENDBRANCH   1  24
TORSDOF 8
ENDMDL
MODEL 10
REMARK VINA RESULT:      -7.1      3.651      7.178
REMARK  8 active torsions:
REMARK  status: ('A' for Active; 'I' for Inactive)
REMARK    1  A    between atoms: C_2  and  C_3 
REMARK    2  A    between atoms: C_3  and  N_4 
REMARK    3  A    between atoms: N_4  and  C_5 
REMARK    4  A    between atoms: C_7  and  N_8 
REMARK    5  A    between atoms: N_8  and  C_9 
REMARK    6  A    between atoms: C_9  and  C_10 
REMARK    7  A    between atoms: C_10  and  C_11 
REMARK    8  A    between atoms: C_13  and  O_14 
ROOT
HETATM    1  C   UNL     1      43.491 -12.448   6.245  1.00  0.00     0.119 A 
HETATM    2  N   UNL     1      43.799 -13.594   6.883  1.00  0.00    -0.207 NA
HETATM    3  C   UNL     1      42.814 -14.477   7.082  1.00  0.00     0.181 A 
HETATM    4  N   UNL     1      41.556 -14.269   6.709  1.00  0.00    -0.330 N 
HETATM    5  H   UNL     1      40.874 -14.968   6.972  1.00  0.00     0.168 HD
HETATM    6  C   UNL     1      41.204 -13.163   6.047  1.00  0.00     0.048 A 
HETATM    7  C   UNL     1      42.186 -12.190   5.771  1.00  0.00     0.031 A 
HETATM    8  C   UNL     1      39.877 -12.986   5.629  1.00  0.00     0.030 A 
HETATM    9  C   UNL     1      39.514 -11.844   4.916  1.00  0.00     0.002 A 
HETATM   10  C   UNL     1      40.471 -10.879   4.618  1.00  0.00     0.001 A 
HETATM   11  C   UNL     1      41.793 -11.046   5.038  1.00  0.00     0.017 A 
ENDROOT
BRANCH   3  12
HETATM   12  N   UNL     1      43.130 -15.643   7.768  1.00  0.00    -0.262 NA
HETATM   13  H   UNL     1      43.500 -15.317   8.667  1.00  0.00     0.130 HD
BRANCH  12  14
HETATM   14  C   UNL     1      44.092 -16.515   7.089  1.00  0.00     0.100 C 
BRANCH  14  15
HETATM   15  C   UNL     1      43.396 -17.781   6.571  1.00  0.00     0.053 C 
BRANCH  15  16
HETATM   16  C   UNL     1      43.383 -17.817   5.063  1.00  0.00    -0.054 A 
HETATM   17  C   UNL     1      42.610 -16.900   4.328  1.00  0.00     0.044 A 
HETATM   18  C   UNL     1      42.565 -16.968   2.934  1.00  0.00     0.068 A 
HETATM   19  C   UNL     1      43.301 -17.953   2.273  1.00  0.00     0.037 A 
HETATM   20  C   UNL     1      44.080 -18.859   2.989  1.00  0.00     0.003 A 
HETATM   21  C   UNL     1      44.121 -18.794   4.380  1.00  0.00     0.007 A 
BRANCH  18  22
HETATM   22  O   UNL     1      41.842 -16.152   2.111  1.00  0.00    -0.356 OA
HETATM   23  C   UNL     1      42.375 -14.864   1.835  1.00  0.00     0.210 C 
ENDBRANCH  18  22
ENDBRANCH  15  16
ENDBRANCH  14  15
ENDBRANCH  12  14
ENDBRANCH   3  12
BRANCH   1  24
HETATM   24  N   UNL     1      44.508 -11.514   6.001  1.00  0.00    -0.277 NA
HETATM   25  H   UNL     1      44.123 -10.650   5.626  1.00  0.00     0.129 HD
BRANCH  24  26
HETATM   26  C   UNL     1      45.434 -11.247   7.103  1.00  0.00     0.093 C 
BRANCH  26  27
HETATM   27  C   UNL     1      44.934 -10.062   7.932  1.00  0.00     0.010 C 
HETATM   28  C   UNL     1      45.375 -10.132   9.387  1.00  0.00     0.006 C 
ENDBRANCH  26  27
ENDBRANCH  24  26
ENDBRANCH   1  24
TORSDOF 8
ENDMDL
