MODEL 1
REMARK VINA RESULT:      -8.6      0.000      0.000
REMARK  1 active torsions:
REMARK  status: ('A' for Active; 'I' for Inactive)
REMARK    1  A    between atoms: C_5  and  N_6 
ROOT
HETATM    1  N   UNL     1      42.234 -14.195   4.735  1.00  0.00    -0.320 N 
HETATM    2  C   UNL     1      40.988 -13.929   5.373  1.00  0.00     0.141 C 
HETATM    3  N   UNL     1      40.029 -14.806   5.459  1.00  0.00    -0.380 N 
HETATM    4  H   UNL     1      39.170 -14.563   5.934  1.00  0.00     0.158 HD
HETATM    5  H   UNL     1      40.153 -15.724   5.053  1.00  0.00     0.158 HD
HETATM    6  S   UNL     1      40.890 -12.352   6.041  1.00  0.00    -0.086 SA
HETATM    7  C   UNL     1      42.461 -11.846   5.213  1.00  0.00     0.093 C 
HETATM    8  C   UNL     1      43.256 -13.160   5.015  1.00  0.00     0.121 C 
HETATM    9  C   UNL     1      43.304 -10.868   6.004  1.00  0.00     0.158 C 
HETATM   10  S   UNL     1      44.405 -11.850   6.992  1.00  0.00     0.147 S 
HETATM   11  O   UNL     1      43.968 -11.806   8.369  1.00  0.00    -0.228 OA
HETATM   12  O   UNL     1      45.761 -11.543   6.594  1.00  0.00    -0.228 OA
HETATM   13  C   UNL     1      43.991 -13.441   6.326  1.00  0.00     0.167 C 
ENDROOT
BRANCH   1  14
HETATM   14  C   UNL     1      42.563 -15.263   3.871  1.00  0.00     0.048 A 
HETATM   15  C   UNL     1      43.002 -16.533   4.370  1.00  0.00     0.001 A 
HETATM   16  C   UNL     1      43.461 -17.515   3.451  1.00  0.00    -0.024 A 
HETATM   17  C   UNL     1      42.983 -16.904   5.738  1.00  0.00     0.014 A 
HETATM   18  C   UNL     1      43.944 -18.750   3.912  1.00  0.00     0.012 A 
HETATM   19  C   UNL     1      43.423 -17.261   2.077  1.00  0.00     0.012 A 
HETATM   20  C   UNL     1      43.956 -19.057   5.269  1.00  0.00     0.001 A 
HETATM   21  C   UNL     1      43.462 -18.139   6.183  1.00  0.00     0.001 A 
HETATM   22  C   UNL     1      42.937 -16.054   1.592  1.00  0.00     0.003 A 
HETATM   23  C   UNL     1      42.517 -15.067   2.480  1.00  0.00     0.030 A 
ENDBRANCH   1  14
TORSDOF 1
ENDMDL
MODEL 2
REMARK VINA RESULT:      -8.3      0.895      2.419
REMARK  1 active torsions:
REMARK  status: ('A' for Active; 'I' for Inactive)
REMARK    1  A    between atoms: C_5  and  N_6 
ROOT
HETATM    1  N   UNL     1      42.346 -14.474   5.793  1.00  0.00    -0.320 N 
HETATM    2  C   UNL     1      40.988 -14.058   5.895  1.00  0.00     0.141 C 
HETATM    3  N   UNL     1      40.018 -14.860   6.229  1.00  0.00    -0.380 N 
HETATM    4  H   UNL     1      39.074 -14.504   6.296  1.00  0.00     0.158 HD
HETATM    5  H   UNL     1      40.219 -15.832   6.424  1.00  0.00     0.158 HD
HETATM    6  S   UNL     1      40.762 -12.390   5.563  1.00  0.00    -0.086 SA
HETATM    7  C   UNL     1      42.499 -12.220   4.959  1.00  0.00     0.093 C 
HETATM    8  C   UNL     1      43.290 -13.337   5.684  1.00  0.00     0.121 C 
HETATM    9  C   UNL     1      43.142 -10.882   5.258  1.00  0.00     0.158 C 
HETATM   10  S   UNL     1      43.944 -11.058   6.832  1.00  0.00     0.147 S 
HETATM   11  O   UNL     1      43.182 -10.342   7.831  1.00  0.00    -0.228 OA
HETATM   12  O   UNL     1      45.363 -10.852   6.639  1.00  0.00    -0.228 OA
HETATM   13  C   UNL     1      43.673 -12.795   7.061  1.00  0.00     0.167 C 
ENDROOT
BRANCH   1  14
HETATM   14  C   UNL     1      42.855 -15.790   5.741  1.00  0.00     0.048 A 
HETATM   15  C   UNL     1      43.076 -16.469   4.499  1.00  0.00     0.001 A 
HETATM   16  C   UNL     1      43.446 -17.841   4.517  1.00  0.00    -0.024 A 
HETATM   17  C   UNL     1      42.983 -15.854   3.224  1.00  0.00     0.014 A 
HETATM   18  C   UNL     1      43.622 -18.547   3.316  1.00  0.00     0.012 A 
HETATM   19  C   UNL     1      43.650 -18.496   5.735  1.00  0.00     0.012 A 
HETATM   20  C   UNL     1      43.471 -17.919   2.083  1.00  0.00     0.001 A 
HETATM   21  C   UNL     1      43.165 -16.568   2.036  1.00  0.00     0.001 A 
HETATM   22  C   UNL     1      43.498 -17.820   6.938  1.00  0.00     0.003 A 
HETATM   23  C   UNL     1      43.101 -16.485   6.939  1.00  0.00     0.030 A 
ENDBRANCH   1  14
TORSDOF 1
ENDMDL
MODEL 3
REMARK VINA RESULT:      -8.2      2.059      2.524
REMARK  1 active torsions:
REMARK  status: ('A' for Active; 'I' for Inactive)
REMARK    1  A    between atoms: C_5  and  N_6 
ROOT
HETATM    1  N   UNL     1      41.806 -15.051   3.008  1.00  0.00    -0.320 N 
HETATM    2  C   UNL     1      40.422 -14.761   2.830  1.00  0.00     0.141 C 
HETATM    3  N   UNL     1      39.478 -15.634   3.036  1.00  0.00    -0.380 N 
HETATM    4  H   UNL     1      38.512 -15.367   2.904  1.00  0.00     0.158 HD
HETATM    5  H   UNL     1      39.719 -16.571   3.333  1.00  0.00     0.158 HD
HETATM    6  S   UNL     1      40.124 -13.143   2.344  1.00  0.00    -0.086 SA
HETATM    7  C   UNL     1      41.924 -12.841   2.059  1.00  0.00     0.093 C 
HETATM    8  C   UNL     1      42.654 -13.837   2.993  1.00  0.00     0.121 C 
HETATM    9  C   UNL     1      42.384 -11.433   2.374  1.00  0.00     0.158 C 
HETATM   10  S   UNL     1      42.886 -11.446   4.077  1.00  0.00     0.147 S 
HETATM   11  O   UNL     1      41.891 -10.754   4.866  1.00  0.00    -0.228 OA
HETATM   12  O   UNL     1      44.293 -11.117   4.134  1.00  0.00    -0.228 OA
HETATM   13  C   UNL     1      42.723 -13.187   4.376  1.00  0.00     0.167 C 
ENDROOT
BRANCH   1  14
HETATM   14  C   UNL     1      42.424 -16.313   3.144  1.00  0.00     0.048 A 
HETATM   15  C   UNL     1      42.717 -16.879   4.428  1.00  0.00     0.001 A 
HETATM   16  C   UNL     1      43.473 -18.080   4.497  1.00  0.00    -0.024 A 
HETATM   17  C   UNL     1      42.273 -16.337   5.660  1.00  0.00     0.014 A 
HETATM   18  C   UNL     1      43.819 -18.633   5.741  1.00  0.00     0.012 A 
HETATM   19  C   UNL     1      43.868 -18.729   3.324  1.00  0.00     0.012 A 
HETATM   20  C   UNL     1      43.406 -18.041   6.931  1.00  0.00     0.001 A 
HETATM   21  C   UNL     1      42.620 -16.899   6.892  1.00  0.00     0.001 A 
HETATM   22  C   UNL     1      43.529 -18.213   2.080  1.00  0.00     0.003 A 
HETATM   23  C   UNL     1      42.819 -17.018   1.993  1.00  0.00     0.030 A 
ENDBRANCH   1  14
TORSDOF 1
ENDMDL
MODEL 4
REMARK VINA RESULT:      -8.2      1.884      3.043
REMARK  1 active torsions:
REMARK  status: ('A' for Active; 'I' for Inactive)
REMARK    1  A    between atoms: C_5  and  N_6 
ROOT
HETATM    1  N   UNL     1      42.191 -15.416   4.258  1.00  0.00    -0.320 N 
HETATM    2  C   UNL     1      40.859 -15.258   3.780  1.00  0.00     0.141 C 
HETATM    3  N   UNL     1      39.893 -16.081   4.073  1.00  0.00    -0.380 N 
HETATM    4  H   UNL     1      38.964 -15.911   3.712  1.00  0.00     0.158 HD
HETATM    5  H   UNL     1      40.079 -16.880   4.663  1.00  0.00     0.158 HD
HETATM    6  S   UNL     1      40.649 -13.863   2.803  1.00  0.00    -0.086 SA
HETATM    7  C   UNL     1      42.470 -13.567   2.741  1.00  0.00     0.093 C 
HETATM    8  C   UNL     1      43.030 -14.216   4.031  1.00  0.00     0.121 C 
HETATM    9  C   UNL     1      42.870 -12.106   2.706  1.00  0.00     0.158 C 
HETATM   10  S   UNL     1      43.073 -11.607   4.397  1.00  0.00     0.147 S 
HETATM   11  O   UNL     1      41.959 -10.768   4.778  1.00  0.00    -0.228 OA
HETATM   12  O   UNL     1      44.450 -11.206   4.586  1.00  0.00    -0.228 OA
HETATM   13  C   UNL     1      42.861 -13.195   5.157  1.00  0.00     0.167 C 
ENDROOT
BRANCH   1  14
HETATM   14  C   UNL     1      42.777 -16.555   4.854  1.00  0.00     0.048 A 
HETATM   15  C   UNL     1      43.152 -17.704   4.084  1.00  0.00     0.001 A 
HETATM   16  C   UNL     1      43.596 -18.873   4.759  1.00  0.00    -0.024 A 
HETATM   17  C   UNL     1      43.146 -17.754   2.667  1.00  0.00     0.014 A 
HETATM   18  C   UNL     1      43.924 -20.031   4.037  1.00  0.00     0.012 A 
HETATM   19  C   UNL     1      43.721 -18.873   6.152  1.00  0.00     0.012 A 
HETATM   20  C   UNL     1      43.855 -20.056   2.647  1.00  0.00     0.001 A 
HETATM   21  C   UNL     1      43.478 -18.912   1.960  1.00  0.00     0.001 A 
HETATM   22  C   UNL     1      43.418 -17.738   6.892  1.00  0.00     0.003 A 
HETATM   23  C   UNL     1      42.947 -16.595   6.249  1.00  0.00     0.030 A 
ENDBRANCH   1  14
TORSDOF 1
ENDMDL
MODEL 5
REMARK VINA RESULT:      -7.4      3.702      4.721
REMARK  1 active torsions:
REMARK  status: ('A' for Active; 'I' for Inactive)
REMARK    1  A    between atoms: C_5  and  N_6 
ROOT
HETATM    1  N   UNL     1      41.222 -14.015   2.338  1.00  0.00    -0.320 N 
HETATM    2  C   UNL     1      39.964 -14.521   1.901  1.00  0.00     0.141 C 
HETATM    3  N   UNL     1      39.239 -15.340   2.607  1.00  0.00    -0.380 N 
HETATM    4  H   UNL     1      38.348 -15.657   2.249  1.00  0.00     0.158 HD
HETATM    5  H   UNL     1      39.572 -15.650   3.511  1.00  0.00     0.158 HD
HETATM    6  S   UNL     1      39.487 -13.920   0.366  1.00  0.00    -0.086 SA
HETATM    7  C   UNL     1      41.147 -13.160   0.089  1.00  0.00     0.093 C 
HETATM    8  C   UNL     1      41.712 -12.892   1.505  1.00  0.00     0.121 C 
HETATM    9  C   UNL     1      41.124 -11.863  -0.691  1.00  0.00     0.158 C 
HETATM   10  S   UNL     1      40.980 -10.565   0.511  1.00  0.00     0.147 S 
HETATM   11  O   UNL     1      39.639 -10.026   0.466  1.00  0.00    -0.228 OA
HETATM   12  O   UNL     1      42.158  -9.731   0.416  1.00  0.00    -0.228 OA
HETATM   13  C   UNL     1      41.134 -11.556   1.973  1.00  0.00     0.167 C 
ENDROOT
BRANCH   1  14
HETATM   14  C   UNL     1      42.029 -14.480   3.400  1.00  0.00     0.048 A 
HETATM   15  C   UNL     1      42.656 -15.768   3.368  1.00  0.00     0.001 A 
HETATM   16  C   UNL     1      43.330 -16.238   4.527  1.00  0.00    -0.024 A 
HETATM   17  C   UNL     1      42.684 -16.615   2.231  1.00  0.00     0.014 A 
HETATM   18  C   UNL     1      43.912 -17.516   4.543  1.00  0.00     0.012 A 
HETATM   19  C   UNL     1      43.429 -15.423   5.659  1.00  0.00     0.012 A 
HETATM   20  C   UNL     1      43.873 -18.339   3.422  1.00  0.00     0.001 A 
HETATM   21  C   UNL     1      43.271 -17.883   2.259  1.00  0.00     0.001 A 
HETATM   22  C   UNL     1      42.875 -14.150   5.667  1.00  0.00     0.003 A 
HETATM   23  C   UNL     1      42.181 -13.688   4.552  1.00  0.00     0.030 A 
ENDBRANCH   1  14
TORSDOF 1
ENDMDL
MODEL 6
REMARK VINA RESULT:      -7.1      2.756      3.512
REMARK  1 active torsions:
REMARK  status: ('A' for Active; 'I' for Inactive)
REMARK    1  A    between atoms: C_5  and  N_6 
ROOT
HETATM    1  N   UNL     1      41.674 -12.906   4.349  1.00  0.00    -0.320 N 
HETATM    2  C   UNL     1      42.473 -11.835   3.857  1.00  0.00     0.141 C 
HETATM    3  N   UNL     1      43.193 -11.920   2.775  1.00  0.00    -0.380 N 
HETATM    4  H   UNL     1      43.732 -11.122   2.468  1.00  0.00     0.158 HD
HETATM    5  H   UNL     1      43.203 -12.783   2.248  1.00  0.00     0.158 HD
HETATM    6  S   UNL     1      42.370 -10.415   4.815  1.00  0.00    -0.086 SA
HETATM    7  C   UNL     1      41.445 -11.311   6.138  1.00  0.00     0.093 C 
HETATM    8  C   UNL     1      40.735 -12.482   5.415  1.00  0.00     0.121 C 
HETATM    9  C   UNL     1      40.411 -10.473   6.861  1.00  0.00     0.158 C 
HETATM   10  S   UNL     1      38.891 -10.684   5.969  1.00  0.00     0.147 S 
HETATM   11  O   UNL     1      38.610  -9.476   5.226  1.00  0.00    -0.228 OA
HETATM   12  O   UNL     1      37.928 -11.294   6.859  1.00  0.00    -0.228 OA
HETATM   13  C   UNL     1      39.438 -11.926   4.827  1.00  0.00     0.167 C 
ENDROOT
BRANCH   1  14
HETATM   14  C   UNL     1      41.713 -14.268   3.978  1.00  0.00     0.048 A 
HETATM   15  C   UNL     1      42.588 -15.204   4.620  1.00  0.00     0.001 A 
HETATM   16  C   UNL     1      42.690 -16.523   4.102  1.00  0.00    -0.024 A 
HETATM   17  C   UNL     1      43.353 -14.917   5.778  1.00  0.00     0.014 A 
HETATM   18  C   UNL     1      43.575 -17.448   4.678  1.00  0.00     0.012 A 
HETATM   19  C   UNL     1      41.897 -16.914   3.018  1.00  0.00     0.012 A 
HETATM   20  C   UNL     1      44.349 -17.111   5.785  1.00  0.00     0.001 A 
HETATM   21  C   UNL     1      44.228 -15.848   6.345  1.00  0.00     0.001 A 
HETATM   22  C   UNL     1      41.003 -16.025   2.437  1.00  0.00     0.003 A 
HETATM   23  C   UNL     1      40.917 -14.717   2.910  1.00  0.00     0.030 A 
ENDBRANCH   1  14
TORSDOF 1
ENDMDL
MODEL 7
REMARK VINA RESULT:      -7.1      4.472      5.636
REMARK  1 active torsions:
REMARK  status: ('A' for Active; 'I' for Inactive)
REMARK    1  A    between atoms: C_5  and  N_6 
ROOT
HETATM    1  N   UNL     1      41.203 -12.858   2.491  1.00  0.00    -0.320 N 
HETATM    2  C   UNL     1      42.017 -11.692   2.418  1.00  0.00     0.141 C 
HETATM    3  N   UNL     1      43.164 -11.583   3.024  1.00  0.00    -0.380 N 
HETATM    4  H   UNL     1      43.704 -10.733   2.926  1.00  0.00     0.158 HD
HETATM    5  H   UNL     1      43.509 -12.352   3.584  1.00  0.00     0.158 HD
HETATM    6  S   UNL     1      41.349 -10.458   1.431  1.00  0.00    -0.086 SA
HETATM    7  C   UNL     1      39.744 -11.361   1.296  1.00  0.00     0.093 C 
HETATM    8  C   UNL     1      40.101 -12.854   1.500  1.00  0.00     0.121 C 
HETATM    9  C   UNL     1      39.038 -11.196  -0.034  1.00  0.00     0.158 C 
HETATM   10  S   UNL     1      39.613 -12.520  -1.067  1.00  0.00     0.147 S 
HETATM   11  O   UNL     1      40.520 -11.985  -2.058  1.00  0.00    -0.228 OA
HETATM   12  O   UNL     1      38.477 -13.345  -1.416  1.00  0.00    -0.228 OA
HETATM   13  C   UNL     1      40.566 -13.394   0.147  1.00  0.00     0.167 C 
ENDROOT
BRANCH   1  14
HETATM   14  C   UNL     1      41.305 -13.940   3.393  1.00  0.00     0.048 A 
HETATM   15  C   UNL     1      42.036 -15.129   3.071  1.00  0.00     0.001 A 
HETATM   16  C   UNL     1      41.976 -16.239   3.956  1.00  0.00    -0.024 A 
HETATM   17  C   UNL     1      42.860 -15.275   1.926  1.00  0.00     0.014 A 
HETATM   18  C   UNL     1      42.642 -17.436   3.644  1.00  0.00     0.012 A 
HETATM   19  C   UNL     1      41.262 -16.142   5.154  1.00  0.00     0.012 A 
HETATM   20  C   UNL     1      43.399 -17.556   2.483  1.00  0.00     0.001 A 
HETATM   21  C   UNL     1      43.520 -16.470   1.629  1.00  0.00     0.001 A 
HETATM   22  C   UNL     1      40.606 -14.967   5.496  1.00  0.00     0.003 A 
HETATM   23  C   UNL     1      40.625 -13.882   4.622  1.00  0.00     0.030 A 
ENDBRANCH   1  14
TORSDOF 1
ENDMDL
MODEL 8
REMARK VINA RESULT:      -7.1      6.539      9.789
REMARK  1 active torsions:
REMARK  status: ('A' for Active; 'I' for Inactive)
REMARK    1  A    between atoms: C_5  and  N_6 
ROOT
HETATM    1  N   UNL     1      41.810  -8.668  10.037  1.00  0.00    -0.320 N 
HETATM    2  C   UNL     1      41.533  -7.572   9.169  1.00  0.00     0.141 C 
HETATM    3  N   UNL     1      40.849  -6.526   9.536  1.00  0.00    -0.380 N 
HETATM    4  H   UNL     1      40.694  -5.774   8.879  1.00  0.00     0.158 HD
HETATM    5  H   UNL     1      40.483  -6.473  10.477  1.00  0.00     0.158 HD
HETATM    6  S   UNL     1      42.214  -7.756   7.605  1.00  0.00    -0.086 SA
HETATM    7  C   UNL     1      42.673  -9.510   7.953  1.00  0.00     0.093 C 
HETATM    8  C   UNL     1      42.833  -9.589   9.492  1.00  0.00     0.121 C 
HETATM    9  C   UNL     1      43.958  -9.967   7.295  1.00  0.00     0.158 C 
HETATM   10  S   UNL     1      45.256  -9.632   8.459  1.00  0.00     0.147 S 
HETATM   11  O   UNL     1      46.021  -8.495   7.997  1.00  0.00    -0.228 OA
HETATM   12  O   UNL     1      45.873 -10.890   8.820  1.00  0.00    -0.228 OA
HETATM   13  C   UNL     1      44.248  -9.111   9.821  1.00  0.00     0.167 C 
ENDROOT
BRANCH   1  14
HETATM   14  C   UNL     1      41.207  -8.974  11.277  1.00  0.00     0.048 A 
HETATM   15  C   UNL     1      41.692  -8.428  12.510  1.00  0.00     0.001 A 
HETATM   16  C   UNL     1      41.141  -8.890  13.735  1.00  0.00    -0.024 A 
HETATM   17  C   UNL     1      42.681  -7.416  12.602  1.00  0.00     0.014 A 
HETATM   18  C   UNL     1      41.629  -8.412  14.962  1.00  0.00     0.012 A 
HETATM   19  C   UNL     1      40.096  -9.819  13.727  1.00  0.00     0.012 A 
HETATM   20  C   UNL     1      42.638  -7.454  15.011  1.00  0.00     0.001 A 
HETATM   21  C   UNL     1      43.155  -6.945  13.830  1.00  0.00     0.001 A 
HETATM   22  C   UNL     1      39.583 -10.300  12.529  1.00  0.00     0.003 A 
HETATM   23  C   UNL     1      40.137  -9.884  11.321  1.00  0.00     0.030 A 
ENDBRANCH   1  14
TORSDOF 1
ENDMDL
MODEL 9
REMARK VINA RESULT:      -7.0     15.830     17.244
REMARK  1 active torsions:
REMARK  status: ('A' for Active; 'I' for Inactive)
REMARK    1  A    between atoms: C_5  and  N_6 
ROOT
HETATM    1  N   UNL     1      43.833 -30.176   1.226  1.00  0.00    -0.320 N 
HETATM    2  C   UNL     1      42.544 -29.736   1.640  1.00  0.00     0.141 C 
HETATM    3  N   UNL     1      42.097 -28.532   1.427  1.00  0.00    -0.380 N 
HETATM    4  H   UNL     1      41.168 -28.280   1.736  1.00  0.00     0.158 HD
HETATM    5  H   UNL     1      42.683 -27.859   0.951  1.00  0.00     0.158 HD
HETATM    6  S   UNL     1      41.628 -30.959   2.422  1.00  0.00    -0.086 SA
HETATM    7  C   UNL     1      43.093 -32.081   2.498  1.00  0.00     0.093 C 
HETATM    8  C   UNL     1      43.999 -31.645   1.320  1.00  0.00     0.121 C 
HETATM    9  C   UNL     1      42.767 -33.553   2.357  1.00  0.00     0.158 C 
HETATM   10  S   UNL     1      42.861 -33.917   0.622  1.00  0.00     0.147 S 
HETATM   11  O   UNL     1      41.523 -34.091   0.104  1.00  0.00    -0.228 OA
HETATM   12  O   UNL     1      43.907 -34.897   0.424  1.00  0.00    -0.228 OA
HETATM   13  C   UNL     1      43.475 -32.348   0.067  1.00  0.00     0.167 C 
ENDROOT
BRANCH   1  14
HETATM   14  C   UNL     1      44.928 -29.393   0.799  1.00  0.00     0.048 A 
HETATM   15  C   UNL     1      45.104 -29.019  -0.574  1.00  0.00     0.001 A 
HETATM   16  C   UNL     1      46.300 -28.360  -0.963  1.00  0.00    -0.024 A 
HETATM   17  C   UNL     1      44.138 -29.233  -1.590  1.00  0.00     0.014 A 
HETATM   18  C   UNL     1      46.524 -28.025  -2.308  1.00  0.00     0.012 A 
HETATM   19  C   UNL     1      47.262 -28.027  -0.004  1.00  0.00     0.012 A 
HETATM   20  C   UNL     1      45.571 -28.299  -3.286  1.00  0.00     0.001 A 
HETATM   21  C   UNL     1      44.371 -28.891  -2.925  1.00  0.00     0.001 A 
HETATM   22  C   UNL     1      47.062 -28.334   1.336  1.00  0.00     0.003 A 
HETATM   23  C   UNL     1      45.911 -29.011   1.729  1.00  0.00     0.030 A 
ENDBRANCH   1  14
TORSDOF 1
ENDMDL
MODEL 10
REMARK VINA RESULT:      -7.0      2.773      4.138
REMARK  1 active torsions:
REMARK  status: ('A' for Active; 'I' for Inactive)
REMARK    1  A    between atoms: C_5  and  N_6 
ROOT
HETATM    1  N   UNL     1      42.421 -12.499   5.143  1.00  0.00    -0.320 N 
HETATM    2  C   UNL     1      42.940 -11.438   4.347  1.00  0.00     0.141 C 
HETATM    3  N   UNL     1      43.794 -11.621   3.381  1.00  0.00    -0.380 N 
HETATM    4  H   UNL     1      44.118 -10.830   2.843  1.00  0.00     0.158 HD
HETATM    5  H   UNL     1      44.122 -12.556   3.175  1.00  0.00     0.158 HD
HETATM    6  S   UNL     1      42.306  -9.900   4.768  1.00  0.00    -0.086 SA
HETATM    7  C   UNL     1      41.505 -10.586   6.284  1.00  0.00     0.093 C 
HETATM    8  C   UNL     1      41.265 -12.084   5.972  1.00  0.00     0.121 C 
HETATM    9  C   UNL     1      40.186  -9.937   6.648  1.00  0.00     0.158 C 
HETATM   10  S   UNL     1      38.926 -10.880   5.828  1.00  0.00     0.147 S 
HETATM   11  O   UNL     1      38.414 -10.114   4.713  1.00  0.00    -0.228 OA
HETATM   12  O   UNL     1      38.065 -11.456   6.838  1.00  0.00    -0.228 OA
HETATM   13  C   UNL     1      39.955 -12.175   5.189  1.00  0.00     0.167 C 
ENDROOT
BRANCH   1  14
HETATM   14  C   UNL     1      42.898 -13.823   5.252  1.00  0.00     0.048 A 
HETATM   15  C   UNL     1      42.573 -14.828   4.284  1.00  0.00     0.001 A 
HETATM   16  C   UNL     1      42.958 -16.174   4.528  1.00  0.00    -0.024 A 
HETATM   17  C   UNL     1      41.910 -14.571   3.057  1.00  0.00     0.014 A 
HETATM   18  C   UNL     1      42.611 -17.189   3.622  1.00  0.00     0.012 A 
HETATM   19  C   UNL     1      43.698 -16.495   5.670  1.00  0.00     0.012 A 
HETATM   20  C   UNL     1      41.913 -16.903   2.452  1.00  0.00     0.001 A 
HETATM   21  C   UNL     1      41.574 -15.590   2.162  1.00  0.00     0.001 A 
HETATM   22  C   UNL     1      44.068 -15.510   6.576  1.00  0.00     0.003 A 
HETATM   23  C   UNL     1      43.668 -14.192   6.370  1.00  0.00     0.030 A 
ENDBRANCH   1  14
TORSDOF 1
ENDMDL
