MODEL 1
REMARK VINA RESULT:      -9.5      0.000      0.000
REMARK  5 active torsions:
REMARK  status: ('A' for Active; 'I' for Inactive)
REMARK    1  A    between atoms: C_4  and  C_5 
REMARK       I    between atoms: C_5  and  N_6 
REMARK    2  A    between atoms: C_9  and  C_10 
REMARK    3  A    between atoms: C_10  and  C_11 
REMARK    4  A    between atoms: N_20  and  C_21 
REMARK    5  A    between atoms: C_21  and  C_22 
ROOT
HETATM    1  C   UNL     1      42.389 -13.394   5.073  1.00  0.00     0.148 A 
HETATM    2  N   UNL     1      41.271 -14.288   4.784  1.00  0.00    -0.320 N 
HETATM    3  C   UNL     1      41.304 -15.453   5.507  1.00  0.00     0.326 A 
HETATM    4  O   UNL     1      40.423 -16.295   5.477  1.00  0.00    -0.247 OA
HETATM    5  N   UNL     1      42.468 -15.501   6.196  1.00  0.00    -0.263 N 
HETATM    6  C   UNL     1      43.192 -14.365   5.982  1.00  0.00     0.262 A 
HETATM    7  O   UNL     1      44.308 -14.158   6.442  1.00  0.00    -0.270 OA
HETATM    8  H   UNL     1      40.411 -14.025   4.320  1.00  0.00     0.166 HD
ENDROOT
BRANCH   1   9
HETATM    9  C   UNL     1      43.113 -12.999   3.740  1.00  0.00     0.031 C 
HETATM   10  C   UNL     1      43.228 -14.102   2.669  1.00  0.00     0.028 C 
HETATM   11  C   UNL     1      42.039 -14.234   1.723  1.00  0.00     0.126 C 
HETATM   12  N   UNL     1      41.549 -12.955   1.200  1.00  0.00    -0.350 N 
HETATM   13  C   UNL     1      40.730 -13.044   0.067  1.00  0.00     0.251 C 
HETATM   14  C   UNL     1      41.408 -11.870   2.170  1.00  0.00     0.126 C 
HETATM   15  O   UNL     1      40.461 -14.126  -0.460  1.00  0.00    -0.271 OA
HETATM   16  C   UNL     1      42.627 -11.702   3.066  1.00  0.00     0.028 C 
BRANCH  13  17
HETATM   17  C   UNL     1      40.206 -11.727  -0.572  1.00  0.00     0.279 C 
HETATM   18  N   UNL     1      38.663 -11.574  -0.599  1.00  0.00    -0.062 N 
HETATM   19  C   UNL     1      38.063 -11.590   0.781  1.00  0.00     0.270 C 
HETATM   20  H   UNL     1      38.474 -10.638  -0.979  1.00  0.00     0.280 HD
HETATM   21  C   UNL     1      37.970 -12.555  -1.515  1.00  0.00     0.235 C 
HETATM   22  C   UNL     1      38.522 -12.417  -2.925  1.00  0.00     0.028 C 
HETATM   23  C   UNL     1      40.038 -12.559  -2.966  1.00  0.00     0.004 C 
HETATM   24  C   UNL     1      40.715 -11.580  -2.011  1.00  0.00     0.043 C 
ENDBRANCH  13  17
ENDBRANCH   1   9
BRANCH   1  25
HETATM   25  C   UNL     1      41.848 -12.170   5.810  1.00  0.00    -0.003 A 
HETATM   26  C   UNL     1      42.671 -11.228   6.428  1.00  0.00     0.126 A 
HETATM   27  N   UNL     1      42.223 -10.122   7.066  1.00  0.00    -0.272 NA
HETATM   28  C   UNL     1      40.890  -9.930   7.111  1.00  0.00     0.116 A 
HETATM   29  C   UNL     1      39.978 -10.791   6.531  1.00  0.00     0.020 A 
HETATM   30  C   UNL     1      40.465 -11.917   5.872  1.00  0.00     0.013 A 
ENDBRANCH   1  25
BRANCH   5  31
HETATM   31  C   UNL     1      42.870 -16.588   7.059  1.00  0.00     0.175 C 
BRANCH  31  32
HETATM   32  C   UNL     1      43.351 -17.783   6.272  1.00  0.00    -0.040 A 
HETATM   33  C   UNL     1      43.940 -17.610   5.010  1.00  0.00     0.012 A 
HETATM   34  C   UNL     1      44.375 -18.716   4.278  1.00  0.00     0.043 A 
HETATM   35  C   UNL     1      44.210 -19.994   4.800  1.00  0.00     0.116 A 
HETATM   36  F   UNL     1      44.629 -21.054   4.097  1.00  0.00    -0.206 F 
HETATM   37  C   UNL     1      43.615 -20.188   6.041  1.00  0.00     0.043 A 
HETATM   38  C   UNL     1      43.182 -19.084   6.776  1.00  0.00     0.012 A 
ENDBRANCH  31  32
ENDBRANCH   5  31
TORSDOF 5
ENDMDL
MODEL 2
REMARK VINA RESULT:      -9.5      3.501      7.305
REMARK  5 active torsions:
REMARK  status: ('A' for Active; 'I' for Inactive)
REMARK    1  A    between atoms: C_4  and  C_5 
REMARK       I    between atoms: C_5  and  N_6 
REMARK    2  A    between atoms: C_9  and  C_10 
REMARK    3  A    between atoms: C_10  and  C_11 
REMARK    4  A    between atoms: N_20  and  C_21 
REMARK    5  A    between atoms: C_21  and  C_22 
ROOT
HETATM    1  C   UNL     1      41.468 -12.217   5.328  1.00  0.00     0.148 A 
HETATM    2  N   UNL     1      40.959 -13.062   6.404  1.00  0.00    -0.320 N 
HETATM    3  C   UNL     1      40.599 -14.319   5.986  1.00  0.00     0.326 A 
HETATM    4  O   UNL     1      40.230 -15.204   6.738  1.00  0.00    -0.247 OA
HETATM    5  N   UNL     1      40.693 -14.368   4.637  1.00  0.00    -0.263 N 
HETATM    6  C   UNL     1      41.154 -13.180   4.150  1.00  0.00     0.262 A 
HETATM    7  O   UNL     1      41.291 -12.926   2.960  1.00  0.00    -0.270 OA
HETATM    8  H   UNL     1      41.080 -12.893   7.395  1.00  0.00     0.166 HD
ENDROOT
BRANCH   1   9
HETATM    9  C   UNL     1      40.677 -10.865   5.294  1.00  0.00     0.031 C 
HETATM   10  C   UNL     1      39.225 -10.906   5.812  1.00  0.00     0.028 C 
HETATM   11  C   UNL     1      39.053 -10.711   7.316  1.00  0.00     0.126 C 
HETATM   12  N   UNL     1      39.844  -9.608   7.868  1.00  0.00    -0.350 N 
HETATM   13  C   UNL     1      39.445  -9.157   9.133  1.00  0.00     0.251 C 
HETATM   14  C   UNL     1      41.233  -9.520   7.422  1.00  0.00     0.126 C 
HETATM   15  O   UNL     1      38.480  -9.647   9.725  1.00  0.00    -0.271 OA
HETATM   16  C   UNL     1      41.390  -9.648   5.914  1.00  0.00     0.028 C 
BRANCH  13  17
HETATM   17  C   UNL     1      40.209  -7.960   9.767  1.00  0.00     0.279 C 
HETATM   18  N   UNL     1      40.938  -8.273  11.099  1.00  0.00    -0.062 N 
HETATM   19  C   UNL     1      41.982  -9.346  10.941  1.00  0.00     0.270 C 
HETATM   20  H   UNL     1      41.448  -7.418  11.355  1.00  0.00     0.280 HD
HETATM   21  C   UNL     1      40.005  -8.574  12.249  1.00  0.00     0.235 C 
HETATM   22  C   UNL     1      39.050  -7.409  12.450  1.00  0.00     0.028 C 
HETATM   23  C   UNL     1      38.299  -7.051  11.175  1.00  0.00     0.004 C 
HETATM   24  C   UNL     1      39.260  -6.782  10.020  1.00  0.00     0.043 C 
ENDBRANCH  13  17
ENDBRANCH   1   9
BRANCH   1  25
HETATM   25  C   UNL     1      42.963 -11.995   5.557  1.00  0.00    -0.003 A 
HETATM   26  C   UNL     1      43.820 -11.508   4.570  1.00  0.00     0.126 A 
HETATM   27  N   UNL     1      45.141 -11.277   4.750  1.00  0.00    -0.272 NA
HETATM   28  C   UNL     1      45.657 -11.549   5.965  1.00  0.00     0.116 A 
HETATM   29  C   UNL     1      44.906 -12.029   7.020  1.00  0.00     0.020 A 
HETATM   30  C   UNL     1      43.546 -12.248   6.812  1.00  0.00     0.013 A 
ENDBRANCH   1  25
BRANCH   5  31
HETATM   31  C   UNL     1      40.378 -15.526   3.831  1.00  0.00     0.175 C 
BRANCH  31  32
HETATM   32  C   UNL     1      41.585 -16.407   3.616  1.00  0.00    -0.040 A 
HETATM   33  C   UNL     1      41.882 -16.902   2.337  1.00  0.00     0.012 A 
HETATM   34  C   UNL     1      42.992 -17.725   2.140  1.00  0.00     0.043 A 
HETATM   35  C   UNL     1      43.796 -18.063   3.223  1.00  0.00     0.116 A 
HETATM   36  F   UNL     1      44.862 -18.852   3.032  1.00  0.00    -0.206 F 
HETATM   37  C   UNL     1      43.511 -17.597   4.500  1.00  0.00     0.043 A 
HETATM   38  C   UNL     1      42.404 -16.771   4.699  1.00  0.00     0.012 A 
ENDBRANCH  31  32
ENDBRANCH   5  31
TORSDOF 5
ENDMDL
MODEL 3
REMARK VINA RESULT:      -9.4      2.412      6.866
REMARK  5 active torsions:
REMARK  status: ('A' for Active; 'I' for Inactive)
REMARK    1  A    between atoms: C_4  and  C_5 
REMARK       I    between atoms: C_5  and  N_6 
REMARK    2  A    between atoms: C_9  and  C_10 
REMARK    3  A    between atoms: C_10  and  C_11 
REMARK    4  A    between atoms: N_20  and  C_21 
REMARK    5  A    between atoms: C_21  and  C_22 
ROOT
HETATM    1  C   UNL     1      40.923 -13.079   3.579  1.00  0.00     0.148 A 
HETATM    2  N   UNL     1      42.333 -12.874   3.262  1.00  0.00    -0.320 N 
HETATM    3  C   UNL     1      42.888 -13.908   2.550  1.00  0.00     0.326 A 
HETATM    4  O   UNL     1      44.026 -13.898   2.114  1.00  0.00    -0.247 OA
HETATM    5  N   UNL     1      41.980 -14.908   2.464  1.00  0.00    -0.263 N 
HETATM    6  C   UNL     1      40.813 -14.542   3.067  1.00  0.00     0.262 A 
HETATM    7  O   UNL     1      39.834 -15.269   3.181  1.00  0.00    -0.270 OA
HETATM    8  H   UNL     1      42.825 -11.990   3.302  1.00  0.00     0.166 HD
ENDROOT
BRANCH   1   9
HETATM    9  C   UNL     1      40.694 -12.909   5.121  1.00  0.00     0.031 C 
HETATM   10  C   UNL     1      41.617 -13.728   6.046  1.00  0.00     0.028 C 
HETATM   11  C   UNL     1      42.951 -13.075   6.398  1.00  0.00     0.126 C 
HETATM   12  N   UNL     1      42.842 -11.664   6.776  1.00  0.00    -0.350 N 
HETATM   13  C   UNL     1      43.948 -11.136   7.455  1.00  0.00     0.251 C 
HETATM   14  C   UNL     1      41.987 -10.831   5.931  1.00  0.00     0.126 C 
HETATM   15  O   UNL     1      44.934 -11.826   7.728  1.00  0.00    -0.271 OA
HETATM   16  C   UNL     1      40.633 -11.460   5.639  1.00  0.00     0.028 C 
BRANCH  13  17
HETATM   17  C   UNL     1      43.890  -9.656   7.926  1.00  0.00     0.279 C 
HETATM   18  N   UNL     1      45.148  -9.152   8.679  1.00  0.00    -0.062 N 
HETATM   19  C   UNL     1      46.391  -9.231   7.834  1.00  0.00     0.270 C 
HETATM   20  H   UNL     1      44.992  -8.154   8.862  1.00  0.00     0.280 HD
HETATM   21  C   UNL     1      45.353  -9.806  10.027  1.00  0.00     0.235 C 
HETATM   22  C   UNL     1      44.120  -9.594  10.891  1.00  0.00     0.028 C 
HETATM   23  C   UNL     1      42.847 -10.070  10.205  1.00  0.00     0.004 C 
HETATM   24  C   UNL     1      42.677  -9.421   8.833  1.00  0.00     0.043 C 
ENDBRANCH  13  17
ENDBRANCH   1   9
BRANCH   1  25
HETATM   25  C   UNL     1      40.098 -12.080   2.769  1.00  0.00    -0.003 A 
HETATM   26  C   UNL     1      40.660 -10.996   2.097  1.00  0.00     0.126 A 
HETATM   27  N   UNL     1      39.960 -10.110   1.352  1.00  0.00    -0.272 NA
HETATM   28  C   UNL     1      38.626 -10.290   1.267  1.00  0.00     0.116 A 
HETATM   29  C   UNL     1      37.959 -11.330   1.885  1.00  0.00     0.020 A 
HETATM   30  C   UNL     1      38.705 -12.234   2.638  1.00  0.00     0.013 A 
ENDBRANCH   1  25
BRANCH   5  31
HETATM   31  C   UNL     1      42.208 -16.172   1.801  1.00  0.00     0.175 C 
BRANCH  31  32
HETATM   32  C   UNL     1      42.875 -17.173   2.713  1.00  0.00    -0.040 A 
HETATM   33  C   UNL     1      43.199 -18.454   2.241  1.00  0.00     0.012 A 
HETATM   34  C   UNL     1      43.806 -19.384   3.087  1.00  0.00     0.043 A 
HETATM   35  C   UNL     1      44.077 -19.038   4.406  1.00  0.00     0.116 A 
HETATM   36  F   UNL     1      44.661 -19.931   5.216  1.00  0.00    -0.206 F 
HETATM   37  C   UNL     1      43.749 -17.780   4.898  1.00  0.00     0.043 A 
HETATM   38  C   UNL     1      43.145 -16.848   4.053  1.00  0.00     0.012 A 
ENDBRANCH  31  32
ENDBRANCH   5  31
TORSDOF 5
ENDMDL
MODEL 4
REMARK VINA RESULT:      -9.4      2.150      6.721
REMARK  5 active torsions:
REMARK  status: ('A' for Active; 'I' for Inactive)
REMARK    1  A    between atoms: C_4  and  C_5 
REMARK       I    between atoms: C_5  and  N_6 
REMARK    2  A    between atoms: C_9  and  C_10 
REMARK    3  A    between atoms: C_10  and  C_11 
REMARK    4  A    between atoms: N_20  and  C_21 
REMARK    5  A    between atoms: C_21  and  C_22 
ROOT
HETATM    1  C   UNL     1      40.635 -13.797   1.074  1.00  0.00     0.148 A 
HETATM    2  N   UNL     1      42.089 -13.684   1.135  1.00  0.00    -0.320 N 
HETATM    3  C   UNL     1      42.712 -14.849   1.507  1.00  0.00     0.326 A 
HETATM    4  O   UNL     1      43.922 -14.992   1.538  1.00  0.00    -0.247 OA
HETATM    5  N   UNL     1      41.765 -15.752   1.853  1.00  0.00    -0.263 N 
HETATM    6  C   UNL     1      40.520 -15.226   1.674  1.00  0.00     0.262 A 
HETATM    7  O   UNL     1      39.477 -15.804   1.952  1.00  0.00    -0.270 OA
HETATM    8  H   UNL     1      42.642 -12.948   0.713  1.00  0.00     0.166 HD
ENDROOT
BRANCH   1   9
HETATM    9  C   UNL     1      39.977 -12.670   1.942  1.00  0.00     0.031 C 
HETATM   10  C   UNL     1      39.431 -13.096   3.320  1.00  0.00     0.028 C 
HETATM   11  C   UNL     1      40.438 -13.081   4.466  1.00  0.00     0.126 C 
HETATM   12  N   UNL     1      41.271 -11.877   4.511  1.00  0.00    -0.350 N 
HETATM   13  C   UNL     1      41.929 -11.646   5.726  1.00  0.00     0.251 C 
HETATM   14  C   UNL     1      41.828 -11.427   3.236  1.00  0.00     0.126 C 
HETATM   15  O   UNL     1      41.794 -12.400   6.693  1.00  0.00    -0.271 OA
HETATM   16  C   UNL     1      40.801 -11.380   2.114  1.00  0.00     0.028 C 
BRANCH  13  17
HETATM   17  C   UNL     1      42.799 -10.365   5.865  1.00  0.00     0.279 C 
HETATM   18  N   UNL     1      44.070 -10.521   6.739  1.00  0.00    -0.062 N 
HETATM   19  C   UNL     1      45.013 -11.561   6.196  1.00  0.00     0.270 C 
HETATM   20  H   UNL     1      44.571  -9.626   6.679  1.00  0.00     0.280 HD
HETATM   21  C   UNL     1      43.778 -10.750   8.204  1.00  0.00     0.235 C 
HETATM   22  C   UNL     1      42.926  -9.611   8.739  1.00  0.00     0.028 C 
HETATM   23  C   UNL     1      41.657  -9.406   7.922  1.00  0.00     0.004 C 
HETATM   24  C   UNL     1      41.974  -9.208   6.442  1.00  0.00     0.043 C 
ENDBRANCH  13  17
ENDBRANCH   1   9
BRANCH   1  25
HETATM   25  C   UNL     1      40.206 -13.710  -0.390  1.00  0.00    -0.003 A 
HETATM   26  C   UNL     1      40.523 -12.629  -1.212  1.00  0.00     0.126 A 
HETATM   27  N   UNL     1      40.180 -12.534  -2.518  1.00  0.00    -0.272 NA
HETATM   28  C   UNL     1      39.475 -13.554  -3.048  1.00  0.00     0.116 A 
HETATM   29  C   UNL     1      39.109 -14.678  -2.333  1.00  0.00     0.020 A 
HETATM   30  C   UNL     1      39.484 -14.755  -0.994  1.00  0.00     0.013 A 
ENDBRANCH   1  25
BRANCH   5  31
HETATM   31  C   UNL     1      42.037 -17.094   2.317  1.00  0.00     0.175 C 
BRANCH  31  32
HETATM   32  C   UNL     1      42.497 -17.110   3.754  1.00  0.00    -0.040 A 
HETATM   33  C   UNL     1      41.703 -16.536   4.759  1.00  0.00     0.012 A 
HETATM   34  C   UNL     1      42.133 -16.541   6.087  1.00  0.00     0.043 A 
HETATM   35  C   UNL     1      43.361 -17.108   6.409  1.00  0.00     0.116 A 
HETATM   36  F   UNL     1      43.772 -17.113   7.683  1.00  0.00    -0.206 F 
HETATM   37  C   UNL     1      44.171 -17.666   5.427  1.00  0.00     0.043 A 
HETATM   38  C   UNL     1      43.741 -17.665   4.099  1.00  0.00     0.012 A 
ENDBRANCH  31  32
ENDBRANCH   5  31
TORSDOF 5
ENDMDL
MODEL 5
REMARK VINA RESULT:      -9.2      2.713      5.738
REMARK  5 active torsions:
REMARK  status: ('A' for Active; 'I' for Inactive)
REMARK    1  A    between atoms: C_4  and  C_5 
REMARK       I    between atoms: C_5  and  N_6 
REMARK    2  A    between atoms: C_9  and  C_10 
REMARK    3  A    between atoms: C_10  and  C_11 
REMARK    4  A    between atoms: N_20  and  C_21 
REMARK    5  A    between atoms: C_21  and  C_22 
ROOT
HETATM    1  C   UNL     1      42.847 -15.610   4.100  1.00  0.00     0.148 A 
HETATM    2  N   UNL     1      43.450 -14.665   5.035  1.00  0.00    -0.320 N 
HETATM    3  C   UNL     1      42.539 -14.061   5.864  1.00  0.00     0.326 A 
HETATM    4  O   UNL     1      42.843 -13.304   6.770  1.00  0.00    -0.247 OA
HETATM    5  N   UNL     1      41.294 -14.423   5.473  1.00  0.00    -0.263 N 
HETATM    6  C   UNL     1      41.361 -15.294   4.427  1.00  0.00     0.262 A 
HETATM    7  O   UNL     1      40.387 -15.749   3.841  1.00  0.00    -0.270 OA
HETATM    8  H   UNL     1      44.433 -14.614   5.270  1.00  0.00     0.166 HD
ENDROOT
BRANCH   1   9
HETATM    9  C   UNL     1      43.281 -15.261   2.635  1.00  0.00     0.031 C 
HETATM   10  C   UNL     1      42.562 -16.025   1.506  1.00  0.00     0.028 C 
HETATM   11  C   UNL     1      41.248 -15.415   1.024  1.00  0.00     0.126 C 
HETATM   12  N   UNL     1      41.308 -13.967   0.809  1.00  0.00    -0.350 N 
HETATM   13  C   UNL     1      40.275 -13.432   0.028  1.00  0.00     0.251 C 
HETATM   14  C   UNL     1      41.970 -13.184   1.851  1.00  0.00     0.126 C 
HETATM   15  O   UNL     1      39.391 -14.143  -0.457  1.00  0.00    -0.271 OA
HETATM   16  C   UNL     1      43.311 -13.762   2.278  1.00  0.00     0.028 C 
BRANCH  13  17
HETATM   17  C   UNL     1      40.292 -11.909  -0.280  1.00  0.00     0.279 C 
HETATM   18  N   UNL     1      38.921 -11.296  -0.664  1.00  0.00    -0.062 N 
HETATM   19  C   UNL     1      37.900 -11.448   0.432  1.00  0.00     0.270 C 
HETATM   20  H   UNL     1      39.077 -10.286  -0.768  1.00  0.00     0.280 HD
HETATM   21  C   UNL     1      38.386 -11.783  -1.990  1.00  0.00     0.235 C 
HETATM   22  C   UNL     1      39.399 -11.497  -3.087  1.00  0.00     0.028 C 
HETATM   23  C   UNL     1      40.771 -12.075  -2.770  1.00  0.00     0.004 C 
HETATM   24  C   UNL     1      41.278 -11.594  -1.412  1.00  0.00     0.043 C 
ENDBRANCH  13  17
ENDBRANCH   1   9
BRANCH   1  25
HETATM   25  C   UNL     1      43.277 -17.021   4.498  1.00  0.00    -0.003 A 
HETATM   26  C   UNL     1      43.128 -17.526   5.790  1.00  0.00     0.126 A 
HETATM   27  N   UNL     1      43.475 -18.778   6.167  1.00  0.00    -0.272 NA
HETATM   28  C   UNL     1      44.010 -19.582   5.226  1.00  0.00     0.116 A 
HETATM   29  C   UNL     1      44.201 -19.195   3.914  1.00  0.00     0.020 A 
HETATM   30  C   UNL     1      43.825 -17.904   3.549  1.00  0.00     0.013 A 
ENDBRANCH   1  25
BRANCH   5  31
HETATM   31  C   UNL     1      40.072 -13.972   6.098  1.00  0.00     0.175 C 
BRANCH  31  32
HETATM   32  C   UNL     1      39.665 -12.601   5.614  1.00  0.00    -0.040 A 
HETATM   33  C   UNL     1      39.471 -12.362   4.245  1.00  0.00     0.012 A 
HETATM   34  C   UNL     1      39.106 -11.091   3.797  1.00  0.00     0.043 A 
HETATM   35  C   UNL     1      38.945 -10.059   4.714  1.00  0.00     0.116 A 
HETATM   36  F   UNL     1      38.593  -8.841   4.282  1.00  0.00    -0.206 F 
HETATM   37  C   UNL     1      39.148 -10.271   6.072  1.00  0.00     0.043 A 
HETATM   38  C   UNL     1      39.510 -11.541   6.523  1.00  0.00     0.012 A 
ENDBRANCH  31  32
ENDBRANCH   5  31
TORSDOF 5
ENDMDL
MODEL 6
REMARK VINA RESULT:      -9.1      2.068      3.008
REMARK  5 active torsions:
REMARK  status: ('A' for Active; 'I' for Inactive)
REMARK    1  A    between atoms: C_4  and  C_5 
REMARK       I    between atoms: C_5  and  N_6 
REMARK    2  A    between atoms: C_9  and  C_10 
REMARK    3  A    between atoms: C_10  and  C_11 
REMARK    4  A    between atoms: N_20  and  C_21 
REMARK    5  A    between atoms: C_21  and  C_22 
ROOT
HETATM    1  C   UNL     1      41.515 -12.226   4.950  1.00  0.00     0.148 A 
HETATM    2  N   UNL     1      40.726 -12.747   6.062  1.00  0.00    -0.320 N 
HETATM    3  C   UNL     1      40.386 -14.068   5.917  1.00  0.00     0.326 A 
HETATM    4  O   UNL     1      39.802 -14.715   6.768  1.00  0.00    -0.247 OA
HETATM    5  N   UNL     1      40.772 -14.480   4.687  1.00  0.00    -0.263 N 
HETATM    6  C   UNL     1      41.406 -13.470   4.026  1.00  0.00     0.262 A 
HETATM    7  O   UNL     1      41.820 -13.547   2.876  1.00  0.00    -0.270 OA
HETATM    8  H   UNL     1      40.636 -12.316   6.974  1.00  0.00     0.166 HD
ENDROOT
BRANCH   1   9
HETATM    9  C   UNL     1      40.842 -10.930   4.381  1.00  0.00     0.031 C 
HETATM   10  C   UNL     1      41.680 -10.101   3.387  1.00  0.00     0.028 C 
HETATM   11  C   UNL     1      41.584 -10.525   1.924  1.00  0.00     0.126 C 
HETATM   12  N   UNL     1      40.216 -10.783   1.467  1.00  0.00    -0.350 N 
HETATM   13  C   UNL     1      40.041 -10.804   0.077  1.00  0.00     0.251 C 
HETATM   14  C   UNL     1      39.372 -11.573   2.363  1.00  0.00     0.126 C 
HETATM   15  O   UNL     1      40.976 -10.599  -0.701  1.00  0.00    -0.271 OA
HETATM   16  C   UNL     1      39.422 -11.101   3.808  1.00  0.00     0.028 C 
BRANCH  13  17
HETATM   17  C   UNL     1      38.609 -11.030  -0.484  1.00  0.00     0.279 C 
HETATM   18  N   UNL     1      38.511 -12.035  -1.661  1.00  0.00    -0.062 N 
HETATM   19  C   UNL     1      38.989 -13.410  -1.280  1.00  0.00     0.270 C 
HETATM   20  H   UNL     1      37.511 -12.131  -1.874  1.00  0.00     0.280 HD
HETATM   21  C   UNL     1      39.173 -11.552  -2.931  1.00  0.00     0.235 C 
HETATM   22  C   UNL     1      38.572 -10.218  -3.346  1.00  0.00     0.028 C 
HETATM   23  C   UNL     1      38.638  -9.184  -2.230  1.00  0.00     0.004 C 
HETATM   24  C   UNL     1      37.991  -9.705  -0.949  1.00  0.00     0.043 C 
ENDBRANCH  13  17
ENDBRANCH   1   9
BRANCH   1  25
HETATM   25  C   UNL     1      42.934 -11.955   5.451  1.00  0.00    -0.003 A 
HETATM   26  C   UNL     1      43.985 -11.603   4.606  1.00  0.00     0.126 A 
HETATM   27  N   UNL     1      45.244 -11.333   5.022  1.00  0.00    -0.272 NA
HETATM   28  C   UNL     1      45.492 -11.424   6.344  1.00  0.00     0.116 A 
HETATM   29  C   UNL     1      44.530 -11.759   7.276  1.00  0.00     0.020 A 
HETATM   30  C   UNL     1      43.239 -12.022   6.823  1.00  0.00     0.013 A 
ENDBRANCH   1  25
BRANCH   5  31
HETATM   31  C   UNL     1      40.567 -15.811   4.163  1.00  0.00     0.175 C 
BRANCH  31  32
HETATM   32  C   UNL     1      41.843 -16.619   4.164  1.00  0.00    -0.040 A 
HETATM   33  C   UNL     1      42.584 -16.773   5.346  1.00  0.00     0.012 A 
HETATM   34  C   UNL     1      43.769 -17.510   5.344  1.00  0.00     0.043 A 
HETATM   35  C   UNL     1      44.220 -18.082   4.159  1.00  0.00     0.116 A 
HETATM   36  F   UNL     1      45.357 -18.790   4.159  1.00  0.00    -0.206 F 
HETATM   37  C   UNL     1      43.511 -17.927   2.975  1.00  0.00     0.043 A 
HETATM   38  C   UNL     1      42.324 -17.194   2.975  1.00  0.00     0.012 A 
ENDBRANCH  31  32
ENDBRANCH   5  31
TORSDOF 5
ENDMDL
MODEL 7
REMARK VINA RESULT:      -8.9      3.001      6.009
REMARK  5 active torsions:
REMARK  status: ('A' for Active; 'I' for Inactive)
REMARK    1  A    between atoms: C_4  and  C_5 
REMARK       I    between atoms: C_5  and  N_6 
REMARK    2  A    between atoms: C_9  and  C_10 
REMARK    3  A    between atoms: C_10  and  C_11 
REMARK    4  A    between atoms: N_20  and  C_21 
REMARK    5  A    between atoms: C_21  and  C_22 
ROOT
HETATM    1  C   UNL     1      42.148 -15.194   3.316  1.00  0.00     0.148 A 
HETATM    2  N   UNL     1      43.028 -14.124   2.856  1.00  0.00    -0.320 N 
HETATM    3  C   UNL     1      43.127 -13.080   3.741  1.00  0.00     0.326 A 
HETATM    4  O   UNL     1      43.871 -12.127   3.587  1.00  0.00    -0.247 OA
HETATM    5  N   UNL     1      42.248 -13.286   4.750  1.00  0.00    -0.263 N 
HETATM    6  C   UNL     1      41.598 -14.472   4.578  1.00  0.00     0.262 A 
HETATM    7  O   UNL     1      40.714 -14.891   5.314  1.00  0.00    -0.270 OA
HETATM    8  H   UNL     1      43.712 -14.201   2.114  1.00  0.00     0.166 HD
ENDROOT
BRANCH   1   9
HETATM    9  C   UNL     1      41.071 -15.505   2.221  1.00  0.00     0.031 C 
HETATM   10  C   UNL     1      39.627 -15.064   2.534  1.00  0.00     0.028 C 
HETATM   11  C   UNL     1      39.275 -13.628   2.154  1.00  0.00     0.126 C 
HETATM   12  N   UNL     1      39.733 -13.237   0.818  1.00  0.00    -0.350 N 
HETATM   13  C   UNL     1      39.124 -12.093   0.286  1.00  0.00     0.251 C 
HETATM   14  C   UNL     1      41.100 -13.618   0.464  1.00  0.00     0.126 C 
HETATM   15  O   UNL     1      38.250 -11.475   0.899  1.00  0.00    -0.271 OA
HETATM   16  C   UNL     1      41.421 -15.071   0.785  1.00  0.00     0.028 C 
BRANCH  13  17
HETATM   17  C   UNL     1      39.527 -11.638  -1.145  1.00  0.00     0.279 C 
HETATM   18  N   UNL     1      39.203 -10.161  -1.485  1.00  0.00    -0.062 N 
HETATM   19  C   UNL     1      39.908  -9.195  -0.570  1.00  0.00     0.270 C 
HETATM   20  H   UNL     1      39.585  -9.992  -2.423  1.00  0.00     0.280 HD
HETATM   21  C   UNL     1      37.723  -9.865  -1.567  1.00  0.00     0.235 C 
HETATM   22  C   UNL     1      37.076 -10.780  -2.594  1.00  0.00     0.028 C 
HETATM   23  C   UNL     1      37.356 -12.250  -2.315  1.00  0.00     0.004 C 
HETATM   24  C   UNL     1      38.856 -12.520  -2.205  1.00  0.00     0.043 C 
ENDBRANCH  13  17
ENDBRANCH   1   9
BRANCH   1  25
HETATM   25  C   UNL     1      43.005 -16.418   3.634  1.00  0.00    -0.003 A 
HETATM   26  C   UNL     1      43.616 -16.619   4.871  1.00  0.00     0.126 A 
HETATM   27  N   UNL     1      44.359 -17.704   5.191  1.00  0.00    -0.272 NA
HETATM   28  C   UNL     1      44.523 -18.644   4.239  1.00  0.00     0.116 A 
HETATM   29  C   UNL     1      43.963 -18.557   2.979  1.00  0.00     0.020 A 
HETATM   30  C   UNL     1      43.194 -17.435   2.680  1.00  0.00     0.013 A 
ENDBRANCH   1  25
BRANCH   5  31
HETATM   31  C   UNL     1      42.051 -12.389   5.866  1.00  0.00     0.175 C 
BRANCH  31  32
HETATM   32  C   UNL     1      40.851 -11.496   5.664  1.00  0.00    -0.040 A 
HETATM   33  C   UNL     1      40.891 -10.454   4.725  1.00  0.00     0.012 A 
HETATM   34  C   UNL     1      39.785  -9.622   4.546  1.00  0.00     0.043 A 
HETATM   35  C   UNL     1      38.644  -9.822   5.315  1.00  0.00     0.116 A 
HETATM   36  F   UNL     1      37.583  -9.023   5.142  1.00  0.00    -0.206 F 
HETATM   37  C   UNL     1      38.589 -10.836   6.263  1.00  0.00     0.043 A 
HETATM   38  C   UNL     1      39.692 -11.672   6.441  1.00  0.00     0.012 A 
ENDBRANCH  31  32
ENDBRANCH   5  31
TORSDOF 5
ENDMDL
MODEL 8
REMARK VINA RESULT:      -8.9      2.934      5.583
REMARK  5 active torsions:
REMARK  status: ('A' for Active; 'I' for Inactive)
REMARK    1  A    between atoms: C_4  and  C_5 
REMARK       I    between atoms: C_5  and  N_6 
REMARK    2  A    between atoms: C_9  and  C_10 
REMARK    3  A    between atoms: C_10  and  C_11 
REMARK    4  A    between atoms: N_20  and  C_21 
REMARK    5  A    between atoms: C_21  and  C_22 
ROOT
HETATM    1  C   UNL     1      42.088 -13.949   4.659  1.00  0.00     0.148 A 
HETATM    2  N   UNL     1      43.089 -13.379   3.764  1.00  0.00    -0.320 N 
HETATM    3  C   UNL     1      43.426 -12.086   4.076  1.00  0.00     0.326 A 
HETATM    4  O   UNL     1      44.300 -11.456   3.506  1.00  0.00    -0.247 OA
HETATM    5  N   UNL     1      42.609 -11.654   5.065  1.00  0.00    -0.263 N 
HETATM    6  C   UNL     1      41.764 -12.652   5.451  1.00  0.00     0.262 A 
HETATM    7  O   UNL     1      40.886 -12.528   6.295  1.00  0.00    -0.270 OA
HETATM    8  H   UNL     1      43.690 -13.903   3.141  1.00  0.00     0.166 HD
ENDROOT
BRANCH   1   9
HETATM    9  C   UNL     1      40.890 -14.519   3.824  1.00  0.00     0.031 C 
HETATM   10  C   UNL     1      39.605 -13.667   3.797  1.00  0.00     0.028 C 
HETATM   11  C   UNL     1      39.550 -12.585   2.723  1.00  0.00     0.126 C 
HETATM   12  N   UNL     1      39.981 -13.039   1.398  1.00  0.00    -0.350 N 
HETATM   13  C   UNL     1      39.601 -12.218   0.328  1.00  0.00     0.251 C 
HETATM   14  C   UNL     1      41.201 -13.845   1.355  1.00  0.00     0.126 C 
HETATM   15  O   UNL     1      38.931 -11.196   0.497  1.00  0.00    -0.271 OA
HETATM   16  C   UNL     1      41.219 -14.963   2.386  1.00  0.00     0.028 C 
BRANCH  13  17
HETATM   17  C   UNL     1      39.986 -12.655  -1.113  1.00  0.00     0.279 C 
HETATM   18  N   UNL     1      40.258 -11.496  -2.105  1.00  0.00    -0.062 N 
HETATM   19  C   UNL     1      41.396 -10.617  -1.660  1.00  0.00     0.270 C 
HETATM   20  H   UNL     1      40.565 -11.934  -2.982  1.00  0.00     0.280 HD
HETATM   21  C   UNL     1      39.030 -10.681  -2.442  1.00  0.00     0.235 C 
HETATM   22  C   UNL     1      37.951 -11.592  -3.004  1.00  0.00     0.028 C 
HETATM   23  C   UNL     1      37.635 -12.755  -2.073  1.00  0.00     0.004 C 
HETATM   24  C   UNL     1      38.895 -13.545  -1.721  1.00  0.00     0.043 C 
ENDBRANCH  13  17
ENDBRANCH   1   9
BRANCH   1  25
HETATM   25  C   UNL     1      42.757 -15.033   5.503  1.00  0.00    -0.003 A 
HETATM   26  C   UNL     1      42.643 -15.095   6.892  1.00  0.00     0.126 A 
HETATM   27  N   UNL     1      43.203 -16.056   7.663  1.00  0.00    -0.272 NA
HETATM   28  C   UNL     1      43.927 -17.006   7.040  1.00  0.00     0.116 A 
HETATM   29  C   UNL     1      44.107 -17.050   5.671  1.00  0.00     0.020 A 
HETATM   30  C   UNL     1      43.511 -16.056   4.899  1.00  0.00     0.013 A 
ENDBRANCH   1  25
BRANCH   5  31
HETATM   31  C   UNL     1      42.650 -10.332   5.648  1.00  0.00     0.175 C 
BRANCH  31  32
HETATM   32  C   UNL     1      43.455 -10.305   6.925  1.00  0.00    -0.040 A 
HETATM   33  C   UNL     1      44.769 -10.796   6.945  1.00  0.00     0.012 A 
HETATM   34  C   UNL     1      45.510 -10.781   8.128  1.00  0.00     0.043 A 
HETATM   35  C   UNL     1      44.932 -10.288   9.293  1.00  0.00     0.116 A 
HETATM   36  F   UNL     1      45.645 -10.273  10.427  1.00  0.00    -0.206 F 
HETATM   37  C   UNL     1      43.627  -9.813   9.299  1.00  0.00     0.043 A 
HETATM   38  C   UNL     1      42.886  -9.824   8.117  1.00  0.00     0.012 A 
ENDBRANCH  31  32
ENDBRANCH   5  31
TORSDOF 5
ENDMDL
MODEL 9
REMARK VINA RESULT:      -8.8      3.524      6.091
REMARK  5 active torsions:
REMARK  status: ('A' for Active; 'I' for Inactive)
REMARK    1  A    between atoms: C_4  and  C_5 
REMARK       I    between atoms: C_5  and  N_6 
REMARK    2  A    between atoms: C_9  and  C_10 
REMARK    3  A    between atoms: C_10  and  C_11 
REMARK    4  A    between atoms: N_20  and  C_21 
REMARK    5  A    between atoms: C_21  and  C_22 
ROOT
HETATM    1  C   UNL     1      42.239 -13.301   4.151  1.00  0.00     0.148 A 
HETATM    2  N   UNL     1      43.148 -12.312   3.580  1.00  0.00    -0.320 N 
HETATM    3  C   UNL     1      44.149 -11.932   4.437  1.00  0.00     0.326 A 
HETATM    4  O   UNL     1      45.058 -11.181   4.129  1.00  0.00    -0.247 OA
HETATM    5  N   UNL     1      43.918 -12.496   5.646  1.00  0.00    -0.263 N 
HETATM    6  C   UNL     1      42.806 -13.283   5.597  1.00  0.00     0.262 A 
HETATM    7  O   UNL     1      42.336 -13.878   6.558  1.00  0.00    -0.270 OA
HETATM    8  H   UNL     1      43.239 -12.093   2.595  1.00  0.00     0.166 HD
ENDROOT
BRANCH   1   9
HETATM    9  C   UNL     1      40.759 -12.800   4.024  1.00  0.00     0.031 C 
HETATM   10  C   UNL     1      40.563 -11.287   3.802  1.00  0.00     0.028 C 
HETATM   11  C   UNL     1      40.611 -10.819   2.350  1.00  0.00     0.126 C 
HETATM   12  N   UNL     1      39.834 -11.654   1.430  1.00  0.00    -0.350 N 
HETATM   13  C   UNL     1      39.541 -11.070   0.191  1.00  0.00     0.251 C 
HETATM   14  C   UNL     1      39.984 -13.100   1.584  1.00  0.00     0.126 C 
HETATM   15  O   UNL     1      39.900  -9.923  -0.090  1.00  0.00    -0.271 OA
HETATM   16  C   UNL     1      39.869 -13.566   3.028  1.00  0.00     0.028 C 
BRANCH  13  17
HETATM   17  C   UNL     1      38.685 -11.877  -0.824  1.00  0.00     0.279 C 
HETATM   18  N   UNL     1      39.327 -12.076  -2.221  1.00  0.00    -0.062 N 
HETATM   19  C   UNL     1      40.632 -12.823  -2.150  1.00  0.00     0.270 C 
HETATM   20  H   UNL     1      38.684 -12.678  -2.750  1.00  0.00     0.280 HD
HETATM   21  C   UNL     1      39.464 -10.798  -3.016  1.00  0.00     0.235 C 
HETATM   22  C   UNL     1      38.102 -10.142  -3.168  1.00  0.00     0.028 C 
HETATM   23  C   UNL     1      37.416  -9.918  -1.827  1.00  0.00     0.004 C 
HETATM   24  C   UNL     1      37.316 -11.216  -1.029  1.00  0.00     0.043 C 
ENDBRANCH  13  17
ENDBRANCH   1   9
BRANCH   1  25
HETATM   25  C   UNL     1      42.453 -14.628   3.424  1.00  0.00    -0.003 A 
HETATM   26  C   UNL     1      41.956 -15.843   3.894  1.00  0.00     0.126 A 
HETATM   27  N   UNL     1      42.107 -17.029   3.261  1.00  0.00    -0.272 NA
HETATM   28  C   UNL     1      42.796 -17.028   2.102  1.00  0.00     0.116 A 
HETATM   29  C   UNL     1      43.332 -15.888   1.537  1.00  0.00     0.020 A 
HETATM   30  C   UNL     1      43.152 -14.678   2.203  1.00  0.00     0.013 A 
ENDBRANCH   1  25
BRANCH   5  31
HETATM   31  C   UNL     1      44.752 -12.312   6.812  1.00  0.00     0.175 C 
BRANCH  31  32
HETATM   32  C   UNL     1      44.619 -10.922   7.386  1.00  0.00    -0.040 A 
HETATM   33  C   UNL     1      45.759 -10.206   7.779  1.00  0.00     0.012 A 
HETATM   34  C   UNL     1      45.635  -8.925   8.320  1.00  0.00     0.043 A 
HETATM   35  C   UNL     1      44.372  -8.366   8.479  1.00  0.00     0.116 A 
HETATM   36  F   UNL     1      44.255  -7.136   8.996  1.00  0.00    -0.206 F 
HETATM   37  C   UNL     1      43.229  -9.065   8.111  1.00  0.00     0.043 A 
HETATM   38  C   UNL     1      43.351 -10.344   7.568  1.00  0.00     0.012 A 
ENDBRANCH  31  32
ENDBRANCH   5  31
TORSDOF 5
ENDMDL
MODEL 10
REMARK VINA RESULT:      -8.8      2.108      2.857
REMARK  5 active torsions:
REMARK  status: ('A' for Active; 'I' for Inactive)
REMARK    1  A    between atoms: C_4  and  C_5 
REMARK       I    between atoms: C_5  and  N_6 
REMARK    2  A    between atoms: C_9  and  C_10 
REMARK    3  A    between atoms: C_10  and  C_11 
REMARK    4  A    between atoms: N_20  and  C_21 
REMARK    5  A    between atoms: C_21  and  C_22 
ROOT
HETATM    1  C   UNL     1      40.727 -13.808   3.863  1.00  0.00     0.148 A 
HETATM    2  N   UNL     1      40.189 -14.746   4.843  1.00  0.00    -0.320 N 
HETATM    3  C   UNL     1      41.136 -15.586   5.372  1.00  0.00     0.326 A 
HETATM    4  O   UNL     1      40.912 -16.386   6.264  1.00  0.00    -0.247 OA
HETATM    5  N   UNL     1      42.302 -15.390   4.713  1.00  0.00    -0.263 N 
HETATM    6  C   UNL     1      42.162 -14.401   3.785  1.00  0.00     0.262 A 
HETATM    7  O   UNL     1      43.042 -14.045   3.012  1.00  0.00    -0.270 OA
HETATM    8  H   UNL     1      39.295 -14.662   5.311  1.00  0.00     0.166 HD
ENDROOT
BRANCH   1   9
HETATM    9  C   UNL     1      39.909 -13.902   2.530  1.00  0.00     0.031 C 
HETATM   10  C   UNL     1      38.790 -12.860   2.336  1.00  0.00     0.028 C 
HETATM   11  C   UNL     1      39.219 -11.533   1.718  1.00  0.00     0.126 C 
HETATM   12  N   UNL     1      40.097 -11.675   0.554  1.00  0.00    -0.350 N 
HETATM   13  C   UNL     1      40.209 -10.538  -0.257  1.00  0.00     0.251 C 
HETATM   14  C   UNL     1      41.186 -12.643   0.678  1.00  0.00     0.126 C 
HETATM   15  O   UNL     1      39.590  -9.499  -0.011  1.00  0.00    -0.271 OA
HETATM   16  C   UNL     1      40.737 -13.986   1.233  1.00  0.00     0.028 C 
BRANCH  13  17
HETATM   17  C   UNL     1      41.090 -10.624  -1.535  1.00  0.00     0.279 C 
HETATM   18  N   UNL     1      41.577  -9.263  -2.095  1.00  0.00    -0.062 N 
HETATM   19  C   UNL     1      42.421  -8.506  -1.104  1.00  0.00     0.270 C 
HETATM   20  H   UNL     1      42.196  -9.482  -2.885  1.00  0.00     0.280 HD
HETATM   21  C   UNL     1      40.468  -8.399  -2.649  1.00  0.00     0.235 C 
HETATM   22  C   UNL     1      39.721  -9.160  -3.733  1.00  0.00     0.028 C 
HETATM   23  C   UNL     1      39.214 -10.510  -3.245  1.00  0.00     0.004 C 
HETATM   24  C   UNL     1      40.346 -11.353  -2.661  1.00  0.00     0.043 C 
ENDBRANCH  13  17
ENDBRANCH   1   9
BRANCH   1  25
HETATM   25  C   UNL     1      40.676 -12.403   4.463  1.00  0.00    -0.003 A 
HETATM   26  C   UNL     1      41.590 -11.402   4.137  1.00  0.00     0.126 A 
HETATM   27  N   UNL     1      41.555 -10.143   4.631  1.00  0.00    -0.272 NA
HETATM   28  C   UNL     1      40.573  -9.848   5.505  1.00  0.00     0.116 A 
HETATM   29  C   UNL     1      39.608 -10.755   5.900  1.00  0.00     0.020 A 
HETATM   30  C   UNL     1      39.660 -12.042   5.368  1.00  0.00     0.013 A 
ENDBRANCH   1  25
BRANCH   5  31
HETATM   31  C   UNL     1      43.528 -16.108   4.978  1.00  0.00     0.175 C 
BRANCH  31  32
HETATM   32  C   UNL     1      43.583 -17.422   4.236  1.00  0.00    -0.040 A 
HETATM   33  C   UNL     1      44.157 -18.552   4.838  1.00  0.00     0.012 A 
HETATM   34  C   UNL     1      44.217 -19.764   4.148  1.00  0.00     0.043 A 
HETATM   35  C   UNL     1      43.716 -19.843   2.854  1.00  0.00     0.116 A 
HETATM   36  F   UNL     1      43.773 -21.007   2.194  1.00  0.00    -0.206 F 
HETATM   37  C   UNL     1      43.159 -18.731   2.234  1.00  0.00     0.043 A 
HETATM   38  C   UNL     1      43.094 -17.520   2.922  1.00  0.00     0.012 A 
ENDBRANCH  31  32
ENDBRANCH   5  31
TORSDOF 5
ENDMDL
