MODEL 1
REMARK VINA RESULT:      -7.6      0.000      0.000
REMARK  9 active torsions:
REMARK  status: ('A' for Active; 'I' for Inactive)
REMARK    1  A    between atoms: C_2  and  O_3 
REMARK    2  A    between atoms: O_3  and  C_4 
REMARK    3  A    between atoms: C_4  and  C_5 
REMARK    4  A    between atoms: C_10  and  N_11 
REMARK       I    between atoms: N_11  and  C_12 
REMARK    5  A    between atoms: C_12  and  C_13 
REMARK    6  A    between atoms: C_13  and  N_14 
REMARK    7  A    between atoms: C_16  and  C_17 
REMARK    8  A    between atoms: C_17  and  C_18 
REMARK    9  A    between atoms: C_18  and  O_19 
ROOT
HETATM    1  C   UNL     1      42.691 -14.747   3.841  1.00  0.00     0.137 A 
HETATM    2  N   UNL     1      43.265 -15.561   4.785  1.00  0.00    -0.349 N 
HETATM    3  H   UNL     1      43.510 -15.267   5.721  1.00  0.00     0.166 HD
HETATM    4  C   UNL     1      43.472 -16.820   4.279  1.00  0.00     0.045 A 
HETATM    5  C   UNL     1      43.015 -16.822   2.956  1.00  0.00     0.021 A 
HETATM    6  C   UNL     1      42.499 -15.508   2.694  1.00  0.00     0.080 A 
HETATM    7  C   UNL     1      44.039 -17.939   4.903  1.00  0.00     0.032 A 
HETATM    8  C   UNL     1      44.164 -19.110   4.154  1.00  0.00     0.026 A 
HETATM    9  C   UNL     1      43.745 -19.145   2.831  1.00  0.00     0.035 A 
HETATM   10 CL   UNL     1      43.929 -20.594   1.919  1.00  0.00    -0.084 Cl
HETATM   11  C   UNL     1      43.180 -18.019   2.221  1.00  0.00     0.040 A 
ENDROOT
BRANCH   6  12
HETATM   12  N   UNL     1      41.910 -14.926   1.572  1.00  0.00    -0.323 N 
HETATM   13  C   UNL     1      40.624 -15.082   1.124  1.00  0.00     0.248 C 
HETATM   14  O   UNL     1      39.706 -15.709   1.649  1.00  0.00    -0.271 OA
HETATM   15  H   UNL     1      42.499 -14.216   1.132  1.00  0.00     0.169 HD
BRANCH  13  16
HETATM   16  C   UNL     1      40.317 -14.313  -0.164  1.00  0.00     0.338 C 
BRANCH  16  17
HETATM   17  N   UNL     1      39.263 -13.225   0.093  1.00  0.00    -0.059 N 
HETATM   18  H   UNL     1      38.503 -13.771   0.537  1.00  0.00     0.280 HD
HETATM   19  C   UNL     1      39.648 -12.192   1.161  1.00  0.00     0.190 C 
HETATM   20  C   UNL     1      38.386 -11.372   1.468  1.00  0.00     0.033 C 
HETATM   21  C   UNL     1      37.777 -10.736   0.221  1.00  0.00     0.004 C 
HETATM   22  C   UNL     1      37.488 -11.785  -0.848  1.00  0.00     0.028 C 
HETATM   23  C   UNL     1      38.705 -12.638  -1.173  1.00  0.00     0.236 C 
BRANCH  19  24
HETATM   24  C   UNL     1      40.859 -11.357   0.723  1.00  0.00     0.059 C 
BRANCH  24  25
HETATM   25  C   UNL     1      41.258 -10.293   1.740  1.00  0.00     0.166 C 
BRANCH  25  26
HETATM   26  O   UNL     1      42.556 -10.623   2.211  1.00  0.00    -0.401 OA
HETATM   27  H   UNL     1      42.495 -10.786   3.170  1.00  0.00     0.209 HD
ENDBRANCH  25  26
ENDBRANCH  24  25
ENDBRANCH  19  24
ENDBRANCH  16  17
ENDBRANCH  13  16
ENDBRANCH   6  12
BRANCH   1  28
HETATM   28  C   UNL     1      42.345 -13.363   4.058  1.00  0.00     0.312 C 
HETATM   29  O   UNL     1      41.194 -12.940   4.025  1.00  0.00    -0.258 OA
BRANCH  28  30
HETATM   30  O   UNL     1      43.463 -12.631   4.298  1.00  0.00    -0.317 OA
BRANCH  30  31
HETATM   31  C   UNL     1      43.442 -11.831   5.491  1.00  0.00     0.175 C 
HETATM   32  C   UNL     1      44.301 -12.462   6.569  1.00  0.00     0.034 C 
ENDBRANCH  30  31
ENDBRANCH  28  30
ENDBRANCH   1  28
TORSDOF 9
ENDMDL
MODEL 2
REMARK VINA RESULT:      -7.6      1.475      2.056
REMARK  9 active torsions:
REMARK  status: ('A' for Active; 'I' for Inactive)
REMARK    1  A    between atoms: C_2  and  O_3 
REMARK    2  A    between atoms: O_3  and  C_4 
REMARK    3  A    between atoms: C_4  and  C_5 
REMARK    4  A    between atoms: C_10  and  N_11 
REMARK       I    between atoms: N_11  and  C_12 
REMARK    5  A    between atoms: C_12  and  C_13 
REMARK    6  A    between atoms: C_13  and  N_14 
REMARK    7  A    between atoms: C_16  and  C_17 
REMARK    8  A    between atoms: C_17  and  C_18 
REMARK    9  A    between atoms: C_18  and  O_19 
ROOT
HETATM    1  C   UNL     1      42.694 -14.748   4.004  1.00  0.00     0.137 A 
HETATM    2  N   UNL     1      43.318 -15.589   4.892  1.00  0.00    -0.349 N 
HETATM    3  H   UNL     1      43.608 -15.322   5.824  1.00  0.00     0.166 HD
HETATM    4  C   UNL     1      43.504 -16.830   4.337  1.00  0.00     0.045 A 
HETATM    5  C   UNL     1      42.982 -16.793   3.039  1.00  0.00     0.021 A 
HETATM    6  C   UNL     1      42.448 -15.474   2.844  1.00  0.00     0.080 A 
HETATM    7  C   UNL     1      44.106 -17.965   4.896  1.00  0.00     0.032 A 
HETATM    8  C   UNL     1      44.199 -19.111   4.105  1.00  0.00     0.026 A 
HETATM    9  C   UNL     1      43.714 -19.106   2.804  1.00  0.00     0.035 A 
HETATM   10 CL   UNL     1      43.858 -20.525   1.839  1.00  0.00    -0.084 Cl
HETATM   11  C   UNL     1      43.115 -17.965   2.259  1.00  0.00     0.040 A 
ENDROOT
BRANCH   6  12
HETATM   12  N   UNL     1      41.802 -14.860   1.772  1.00  0.00    -0.323 N 
HETATM   13  C   UNL     1      40.575 -15.169   1.245  1.00  0.00     0.248 C 
HETATM   14  O   UNL     1      39.762 -16.000   1.644  1.00  0.00    -0.271 OA
HETATM   15  H   UNL     1      42.275 -14.013   1.450  1.00  0.00     0.169 HD
BRANCH  13  16
HETATM   16  C   UNL     1      40.180 -14.304   0.044  1.00  0.00     0.338 C 
BRANCH  16  17
HETATM   17  N   UNL     1      40.329 -12.812   0.379  1.00  0.00    -0.059 N 
HETATM   18  H   UNL     1      41.030 -12.838   1.142  1.00  0.00     0.280 HD
HETATM   19  C   UNL     1      41.000 -11.968  -0.712  1.00  0.00     0.190 C 
HETATM   20  C   UNL     1      41.304 -10.595  -0.096  1.00  0.00     0.033 C 
HETATM   21  C   UNL     1      40.065  -9.925   0.493  1.00  0.00     0.004 C 
HETATM   22  C   UNL     1      39.380 -10.830   1.512  1.00  0.00     0.028 C 
HETATM   23  C   UNL     1      39.075 -12.212   0.953  1.00  0.00     0.236 C 
BRANCH  19  24
HETATM   24  C   UNL     1      40.147 -11.919  -1.987  1.00  0.00     0.059 C 
BRANCH  24  25
HETATM   25  C   UNL     1      40.972 -11.980  -3.268  1.00  0.00     0.166 C 
BRANCH  25  26
HETATM   26  O   UNL     1      41.515 -13.289  -3.360  1.00  0.00    -0.401 OA
HETATM   27  H   UNL     1      41.036 -13.764  -4.064  1.00  0.00     0.209 HD
ENDBRANCH  25  26
ENDBRANCH  24  25
ENDBRANCH  19  24
ENDBRANCH  16  17
ENDBRANCH  13  16
ENDBRANCH   6  12
BRANCH   1  28
HETATM   28  C   UNL     1      42.354 -13.373   4.282  1.00  0.00     0.312 C 
HETATM   29  O   UNL     1      41.817 -12.632   3.465  1.00  0.00    -0.258 OA
BRANCH  28  30
HETATM   30  O   UNL     1      42.712 -13.047   5.550  1.00  0.00    -0.317 OA
BRANCH  30  31
HETATM   31  C   UNL     1      43.627 -11.947   5.677  1.00  0.00     0.175 C 
HETATM   32  C   UNL     1      44.723 -12.280   6.671  1.00  0.00     0.034 C 
ENDBRANCH  30  31
ENDBRANCH  28  30
ENDBRANCH   1  28
TORSDOF 9
ENDMDL
MODEL 3
REMARK VINA RESULT:      -7.5      1.701      2.937
REMARK  9 active torsions:
REMARK  status: ('A' for Active; 'I' for Inactive)
REMARK    1  A    between atoms: C_2  and  O_3 
REMARK    2  A    between atoms: O_3  and  C_4 
REMARK    3  A    between atoms: C_4  and  C_5 
REMARK    4  A    between atoms: C_10  and  N_11 
REMARK       I    between atoms: N_11  and  C_12 
REMARK    5  A    between atoms: C_12  and  C_13 
REMARK    6  A    between atoms: C_13  and  N_14 
REMARK    7  A    between atoms: C_16  and  C_17 
REMARK    8  A    between atoms: C_17  and  C_18 
REMARK    9  A    between atoms: C_18  and  O_19 
ROOT
HETATM    1  C   UNL     1      42.374 -15.111   4.486  1.00  0.00     0.137 A 
HETATM    2  N   UNL     1      43.256 -15.926   5.148  1.00  0.00    -0.349 N 
HETATM    3  H   UNL     1      43.707 -15.689   6.023  1.00  0.00     0.166 HD
HETATM    4  C   UNL     1      43.452 -17.095   4.456  1.00  0.00     0.045 A 
HETATM    5  C   UNL     1      42.665 -17.035   3.299  1.00  0.00     0.021 A 
HETATM    6  C   UNL     1      41.966 -15.782   3.338  1.00  0.00     0.080 A 
HETATM    7  C   UNL     1      44.275 -18.182   4.776  1.00  0.00     0.032 A 
HETATM    8  C   UNL     1      44.320 -19.253   3.882  1.00  0.00     0.026 A 
HETATM    9  C   UNL     1      43.573 -19.220   2.711  1.00  0.00     0.035 A 
HETATM   10 CL   UNL     1      43.659 -20.543   1.611  1.00  0.00    -0.084 Cl
HETATM   11  C   UNL     1      42.754 -18.127   2.405  1.00  0.00     0.040 A 
ENDROOT
BRANCH   6  12
HETATM   12  N   UNL     1      41.046 -15.182   2.480  1.00  0.00    -0.323 N 
HETATM   13  C   UNL     1      41.279 -14.190   1.563  1.00  0.00     0.248 C 
HETATM   14  O   UNL     1      42.351 -13.671   1.259  1.00  0.00    -0.271 OA
HETATM   15  H   UNL     1      40.135 -15.645   2.479  1.00  0.00     0.169 HD
BRANCH  13  16
HETATM   16  C   UNL     1      40.029 -13.741   0.801  1.00  0.00     0.338 C 
BRANCH  16  17
HETATM   17  N   UNL     1      40.417 -12.971  -0.471  1.00  0.00    -0.059 N 
HETATM   18  H   UNL     1      41.451 -12.960  -0.401  1.00  0.00     0.280 HD
HETATM   19  C   UNL     1      40.143 -13.714  -1.785  1.00  0.00     0.190 C 
HETATM   20  C   UNL     1      40.836 -12.921  -2.903  1.00  0.00     0.033 C 
HETATM   21  C   UNL     1      40.400 -11.458  -2.947  1.00  0.00     0.004 C 
HETATM   22  C   UNL     1      40.611 -10.779  -1.598  1.00  0.00     0.028 C 
HETATM   23  C   UNL     1      39.958 -11.540  -0.453  1.00  0.00     0.236 C 
BRANCH  19  24
HETATM   24  C   UNL     1      38.639 -13.936  -2.000  1.00  0.00     0.059 C 
BRANCH  24  25
HETATM   25  C   UNL     1      38.330 -14.927  -3.118  1.00  0.00     0.166 C 
BRANCH  25  26
HETATM   26  O   UNL     1      38.355 -16.228  -2.550  1.00  0.00    -0.401 OA
HETATM   27  H   UNL     1      39.158 -16.679  -2.869  1.00  0.00     0.209 HD
ENDBRANCH  25  26
ENDBRANCH  24  25
ENDBRANCH  19  24
ENDBRANCH  16  17
ENDBRANCH  13  16
ENDBRANCH   6  12
BRANCH   1  28
HETATM   28  C   UNL     1      41.956 -13.810   4.950  1.00  0.00     0.312 C 
HETATM   29  O   UNL     1      40.781 -13.492   5.105  1.00  0.00    -0.258 OA
BRANCH  28  30
HETATM   30  O   UNL     1      43.038 -13.024   5.181  1.00  0.00    -0.317 OA
BRANCH  30  31
HETATM   31  C   UNL     1      43.285 -12.691   6.557  1.00  0.00     0.175 C 
HETATM   32  C   UNL     1      44.655 -12.057   6.712  1.00  0.00     0.034 C 
ENDBRANCH  30  31
ENDBRANCH  28  30
ENDBRANCH   1  28
TORSDOF 9
ENDMDL
MODEL 4
REMARK VINA RESULT:      -7.2      2.639      4.866
REMARK  9 active torsions:
REMARK  status: ('A' for Active; 'I' for Inactive)
REMARK    1  A    between atoms: C_2  and  O_3 
REMARK    2  A    between atoms: O_3  and  C_4 
REMARK    3  A    between atoms: C_4  and  C_5 
REMARK    4  A    between atoms: C_10  and  N_11 
REMARK       I    between atoms: N_11  and  C_12 
REMARK    5  A    between atoms: C_12  and  C_13 
REMARK    6  A    between atoms: C_13  and  N_14 
REMARK    7  A    between atoms: C_16  and  C_17 
REMARK    8  A    between atoms: C_17  and  C_18 
REMARK    9  A    between atoms: C_18  and  O_19 
ROOT
HETATM    1  C   UNL     1      43.065 -15.838   2.629  1.00  0.00     0.137 A 
HETATM    2  N   UNL     1      43.046 -16.945   1.819  1.00  0.00    -0.349 N 
HETATM    3  H   UNL     1      42.820 -16.926   0.832  1.00  0.00     0.166 HD
HETATM    4  C   UNL     1      43.360 -18.075   2.531  1.00  0.00     0.045 A 
HETATM    5  C   UNL     1      43.592 -17.686   3.856  1.00  0.00     0.021 A 
HETATM    6  C   UNL     1      43.425 -16.261   3.904  1.00  0.00     0.080 A 
HETATM    7  C   UNL     1      43.441 -19.402   2.089  1.00  0.00     0.032 A 
HETATM    8  C   UNL     1      43.756 -20.384   3.028  1.00  0.00     0.026 A 
HETATM    9  C   UNL     1      43.969 -20.042   4.357  1.00  0.00     0.035 A 
HETATM   10 CL   UNL     1      44.335 -21.273   5.504  1.00  0.00    -0.084 Cl
HETATM   11  C   UNL     1      43.884 -18.711   4.784  1.00  0.00     0.040 A 
ENDROOT
BRANCH   6  12
HETATM   12  N   UNL     1      43.538 -15.327   4.933  1.00  0.00    -0.323 N 
HETATM   13  C   UNL     1      42.798 -15.255   6.085  1.00  0.00     0.248 C 
HETATM   14  O   UNL     1      41.932 -16.031   6.482  1.00  0.00    -0.271 OA
HETATM   15  H   UNL     1      44.355 -14.719   4.837  1.00  0.00     0.169 HD
BRANCH  13  16
HETATM   16  C   UNL     1      43.171 -14.077   6.990  1.00  0.00     0.338 C 
BRANCH  16  17
HETATM   17  N   UNL     1      42.283 -12.860   6.687  1.00  0.00    -0.059 N 
HETATM   18  H   UNL     1      41.694 -12.814   7.538  1.00  0.00     0.280 HD
HETATM   19  C   UNL     1      43.017 -11.513   6.670  1.00  0.00     0.190 C 
HETATM   20  C   UNL     1      41.944 -10.416   6.628  1.00  0.00     0.033 C 
HETATM   21  C   UNL     1      40.980 -10.579   5.455  1.00  0.00     0.004 C 
HETATM   22  C   UNL     1      40.334 -11.961   5.460  1.00  0.00     0.028 C 
HETATM   23  C   UNL     1      41.359 -13.084   5.522  1.00  0.00     0.236 C 
BRANCH  19  24
HETATM   24  C   UNL     1      44.042 -11.446   5.529  1.00  0.00     0.059 C 
BRANCH  24  25
HETATM   25  C   UNL     1      45.478 -11.280   6.016  1.00  0.00     0.166 C 
BRANCH  25  26
HETATM   26  O   UNL     1      46.296 -11.105   4.870  1.00  0.00    -0.401 OA
HETATM   27  H   UNL     1      46.635 -10.191   4.880  1.00  0.00     0.209 HD
ENDBRANCH  25  26
ENDBRANCH  24  25
ENDBRANCH  19  24
ENDBRANCH  16  17
ENDBRANCH  13  16
ENDBRANCH   6  12
BRANCH   1  28
HETATM   28  C   UNL     1      42.780 -14.494   2.186  1.00  0.00     0.312 C 
HETATM   29  O   UNL     1      43.398 -13.509   2.575  1.00  0.00    -0.258 OA
BRANCH  28  30
HETATM   30  O   UNL     1      41.753 -14.500   1.299  1.00  0.00    -0.317 OA
BRANCH  30  31
HETATM   31  C   UNL     1      40.451 -14.244   1.849  1.00  0.00     0.175 C 
HETATM   32  C   UNL     1      39.697 -15.543   2.059  1.00  0.00     0.034 C 
ENDBRANCH  30  31
ENDBRANCH  28  30
ENDBRANCH   1  28
TORSDOF 9
ENDMDL
MODEL 5
REMARK VINA RESULT:      -6.7      2.321      3.671
REMARK  9 active torsions:
REMARK  status: ('A' for Active; 'I' for Inactive)
REMARK    1  A    between atoms: C_2  and  O_3 
REMARK    2  A    between atoms: O_3  and  C_4 
REMARK    3  A    between atoms: C_4  and  C_5 
REMARK    4  A    between atoms: C_10  and  N_11 
REMARK       I    between atoms: N_11  and  C_12 
REMARK    5  A    between atoms: C_12  and  C_13 
REMARK    6  A    between atoms: C_13  and  N_14 
REMARK    7  A    between atoms: C_16  and  C_17 
REMARK    8  A    between atoms: C_17  and  C_18 
REMARK    9  A    between atoms: C_18  and  O_19 
ROOT
HETATM    1  C   UNL     1      42.134 -13.061   4.367  1.00  0.00     0.137 A 
HETATM    2  N   UNL     1      42.913 -13.276   5.476  1.00  0.00    -0.349 N 
HETATM    3  H   UNL     1      43.224 -12.547   6.106  1.00  0.00     0.166 HD
HETATM    4  C   UNL     1      43.221 -14.607   5.603  1.00  0.00     0.045 A 
HETATM    5  C   UNL     1      42.618 -15.282   4.535  1.00  0.00     0.021 A 
HETATM    6  C   UNL     1      41.911 -14.296   3.769  1.00  0.00     0.080 A 
HETATM    7  C   UNL     1      43.995 -15.244   6.583  1.00  0.00     0.032 A 
HETATM    8  C   UNL     1      44.183 -16.622   6.471  1.00  0.00     0.026 A 
HETATM    9  C   UNL     1      43.623 -17.323   5.412  1.00  0.00     0.035 A 
HETATM   10 CL   UNL     1      43.886 -19.020   5.282  1.00  0.00    -0.084 Cl
HETATM   11  C   UNL     1      42.851 -16.673   4.441  1.00  0.00     0.040 A 
ENDROOT
BRANCH   6  12
HETATM   12  N   UNL     1      41.127 -14.371   2.618  1.00  0.00    -0.323 N 
HETATM   13  C   UNL     1      41.473 -14.899   1.401  1.00  0.00     0.248 C 
HETATM   14  O   UNL     1      42.514 -15.473   1.089  1.00  0.00    -0.271 OA
HETATM   15  H   UNL     1      40.153 -14.103   2.776  1.00  0.00     0.169 HD
BRANCH  13  16
HETATM   16  C   UNL     1      40.373 -14.792   0.342  1.00  0.00     0.338 C 
BRANCH  16  17
HETATM   17  N   UNL     1      40.706 -13.689  -0.675  1.00  0.00    -0.059 N 
HETATM   18  H   UNL     1      41.740 -13.742  -0.709  1.00  0.00     0.280 HD
HETATM   19  C   UNL     1      40.271 -13.985  -2.116  1.00  0.00     0.190 C 
HETATM   20  C   UNL     1      40.921 -12.919  -3.010  1.00  0.00     0.033 C 
HETATM   21  C   UNL     1      40.587 -11.496  -2.571  1.00  0.00     0.004 C 
HETATM   22  C   UNL     1      40.957 -11.268  -1.109  1.00  0.00     0.028 C 
HETATM   23  C   UNL     1      40.351 -12.313  -0.184  1.00  0.00     0.236 C 
BRANCH  19  24
HETATM   24  C   UNL     1      38.743 -14.069  -2.234  1.00  0.00     0.059 C 
BRANCH  24  25
HETATM   25  C   UNL     1      38.270 -15.183  -3.163  1.00  0.00     0.166 C 
BRANCH  25  26
HETATM   26  O   UNL     1      38.254 -16.385  -2.408  1.00  0.00    -0.401 OA
HETATM   27  H   UNL     1      38.799 -16.247  -1.611  1.00  0.00     0.209 HD
ENDBRANCH  25  26
ENDBRANCH  24  25
ENDBRANCH  19  24
ENDBRANCH  16  17
ENDBRANCH  13  16
ENDBRANCH   6  12
BRANCH   1  28
HETATM   28  C   UNL     1      41.640 -11.770   3.953  1.00  0.00     0.312 C 
HETATM   29  O   UNL     1      41.821 -11.304   2.833  1.00  0.00    -0.258 OA
BRANCH  28  30
HETATM   30  O   UNL     1      40.965 -11.176   4.971  1.00  0.00    -0.317 OA
BRANCH  30  31
HETATM   31  C   UNL     1      39.597 -11.584   5.134  1.00  0.00     0.175 C 
HETATM   32  C   UNL     1      39.073 -11.157   6.491  1.00  0.00     0.034 C 
ENDBRANCH  30  31
ENDBRANCH  28  30
ENDBRANCH   1  28
TORSDOF 9
ENDMDL
MODEL 6
REMARK VINA RESULT:      -6.7      2.987      5.254
REMARK  9 active torsions:
REMARK  status: ('A' for Active; 'I' for Inactive)
REMARK    1  A    between atoms: C_2  and  O_3 
REMARK    2  A    between atoms: O_3  and  C_4 
REMARK    3  A    between atoms: C_4  and  C_5 
REMARK    4  A    between atoms: C_10  and  N_11 
REMARK       I    between atoms: N_11  and  C_12 
REMARK    5  A    between atoms: C_12  and  C_13 
REMARK    6  A    between atoms: C_13  and  N_14 
REMARK    7  A    between atoms: C_16  and  C_17 
REMARK    8  A    between atoms: C_17  and  C_18 
REMARK    9  A    between atoms: C_18  and  O_19 
ROOT
HETATM    1  C   UNL     1      42.531 -15.796   4.009  1.00  0.00     0.137 A 
HETATM    2  N   UNL     1      43.360 -15.701   5.098  1.00  0.00    -0.349 N 
HETATM    3  H   UNL     1      43.919 -16.464   5.459  1.00  0.00     0.166 HD
HETATM    4  C   UNL     1      43.316 -14.438   5.633  1.00  0.00     0.045 A 
HETATM    5  C   UNL     1      42.423 -13.685   4.862  1.00  0.00     0.021 A 
HETATM    6  C   UNL     1      41.947 -14.549   3.819  1.00  0.00     0.080 A 
HETATM    7  C   UNL     1      43.998 -13.928   6.746  1.00  0.00     0.032 A 
HETATM    8  C   UNL     1      43.756 -12.602   7.108  1.00  0.00     0.026 A 
HETATM    9  C   UNL     1      42.858 -11.830   6.383  1.00  0.00     0.035 A 
HETATM   10 CL   UNL     1      42.559 -10.202   6.860  1.00  0.00    -0.084 Cl
HETATM   11  C   UNL     1      42.185 -12.353   5.272  1.00  0.00     0.040 A 
ENDROOT
BRANCH   6  12
HETATM   12  N   UNL     1      41.061 -14.358   2.759  1.00  0.00    -0.323 N 
HETATM   13  C   UNL     1      41.104 -13.382   1.797  1.00  0.00     0.248 C 
HETATM   14  O   UNL     1      41.960 -12.517   1.627  1.00  0.00    -0.271 OA
HETATM   15  H   UNL     1      40.392 -15.122   2.651  1.00  0.00     0.169 HD
BRANCH  13  16
HETATM   16  C   UNL     1      39.950 -13.450   0.792  1.00  0.00     0.338 C 
BRANCH  16  17
HETATM   17  N   UNL     1      40.345 -12.774  -0.531  1.00  0.00    -0.059 N 
HETATM   18  H   UNL     1      41.375 -12.711  -0.434  1.00  0.00     0.280 HD
HETATM   19  C   UNL     1      40.142 -13.636  -1.783  1.00  0.00     0.190 C 
HETATM   20  C   UNL     1      40.835 -12.911  -2.946  1.00  0.00     0.033 C 
HETATM   21  C   UNL     1      40.340 -11.478  -3.127  1.00  0.00     0.004 C 
HETATM   22  C   UNL     1      40.481 -10.679  -1.835  1.00  0.00     0.028 C 
HETATM   23  C   UNL     1      39.826 -11.368  -0.648  1.00  0.00     0.236 C 
BRANCH  19  24
HETATM   24  C   UNL     1      38.656 -13.943  -2.019  1.00  0.00     0.059 C 
BRANCH  24  25
HETATM   25  C   UNL     1      38.417 -14.930  -3.156  1.00  0.00     0.166 C 
BRANCH  25  26
HETATM   26  O   UNL     1      38.309 -16.223  -2.579  1.00  0.00    -0.401 OA
HETATM   27  H   UNL     1      38.662 -16.868  -3.218  1.00  0.00     0.209 HD
ENDBRANCH  25  26
ENDBRANCH  24  25
ENDBRANCH  19  24
ENDBRANCH  16  17
ENDBRANCH  13  16
ENDBRANCH   6  12
BRANCH   1  28
HETATM   28  C   UNL     1      42.350 -16.992   3.221  1.00  0.00     0.312 C 
HETATM   29  O   UNL     1      41.611 -17.052   2.244  1.00  0.00    -0.258 OA
BRANCH  28  30
HETATM   30  O   UNL     1      43.107 -18.002   3.720  1.00  0.00    -0.317 OA
BRANCH  30  31
HETATM   31  C   UNL     1      44.005 -18.628   2.789  1.00  0.00     0.175 C 
HETATM   32  C   UNL     1      43.449 -19.962   2.329  1.00  0.00     0.034 C 
ENDBRANCH  30  31
ENDBRANCH  28  30
ENDBRANCH   1  28
TORSDOF 9
ENDMDL
MODEL 7
REMARK VINA RESULT:      -6.6      2.879      6.638
REMARK  9 active torsions:
REMARK  status: ('A' for Active; 'I' for Inactive)
REMARK    1  A    between atoms: C_2  and  O_3 
REMARK    2  A    between atoms: O_3  and  C_4 
REMARK    3  A    between atoms: C_4  and  C_5 
REMARK    4  A    between atoms: C_10  and  N_11 
REMARK       I    between atoms: N_11  and  C_12 
REMARK    5  A    between atoms: C_12  and  C_13 
REMARK    6  A    between atoms: C_13  and  N_14 
REMARK    7  A    between atoms: C_16  and  C_17 
REMARK    8  A    between atoms: C_17  and  C_18 
REMARK    9  A    between atoms: C_18  and  O_19 
ROOT
HETATM    1  C   UNL     1      42.177 -13.044   2.260  1.00  0.00     0.137 A 
HETATM    2  N   UNL     1      42.466 -14.118   1.456  1.00  0.00    -0.349 N 
HETATM    3  H   UNL     1      42.387 -14.114   0.447  1.00  0.00     0.166 HD
HETATM    4  C   UNL     1      42.864 -15.194   2.208  1.00  0.00     0.045 A 
HETATM    5  C   UNL     1      42.831 -14.805   3.551  1.00  0.00     0.021 A 
HETATM    6  C   UNL     1      42.416 -13.431   3.574  1.00  0.00     0.080 A 
HETATM    7  C   UNL     1      43.237 -16.477   1.783  1.00  0.00     0.032 A 
HETATM    8  C   UNL     1      43.577 -17.414   2.760  1.00  0.00     0.026 A 
HETATM    9  C   UNL     1      43.533 -17.073   4.105  1.00  0.00     0.035 A 
HETATM   10 CL   UNL     1      43.936 -18.252   5.294  1.00  0.00    -0.084 Cl
HETATM   11  C   UNL     1      43.159 -15.787   4.514  1.00  0.00     0.040 A 
ENDROOT
BRANCH   6  12
HETATM   12  N   UNL     1      42.214 -12.517   4.607  1.00  0.00    -0.323 N 
HETATM   13  C   UNL     1      43.084 -11.558   5.060  1.00  0.00     0.248 C 
HETATM   14  O   UNL     1      44.189 -11.260   4.611  1.00  0.00    -0.271 OA
HETATM   15  H   UNL     1      41.255 -12.512   4.960  1.00  0.00     0.169 HD
BRANCH  13  16
HETATM   16  C   UNL     1      42.548 -10.739   6.237  1.00  0.00     0.338 C 
BRANCH  16  17
HETATM   17  N   UNL     1      43.706 -10.185   7.083  1.00  0.00    -0.059 N 
HETATM   18  H   UNL     1      44.312  -9.763   6.356  1.00  0.00     0.280 HD
HETATM   19  C   UNL     1      43.336  -9.004   7.989  1.00  0.00     0.190 C 
HETATM   20  C   UNL     1      44.652  -8.426   8.531  1.00  0.00     0.033 C 
HETATM   21  C   UNL     1      45.508  -9.471   9.241  1.00  0.00     0.004 C 
HETATM   22  C   UNL     1      45.782 -10.667   8.335  1.00  0.00     0.028 C 
HETATM   23  C   UNL     1      44.508 -11.264   7.756  1.00  0.00     0.236 C 
BRANCH  19  24
HETATM   24  C   UNL     1      42.330  -9.420   9.071  1.00  0.00     0.059 C 
BRANCH  24  25
HETATM   25  C   UNL     1      40.939  -8.830   8.859  1.00  0.00     0.166 C 
BRANCH  25  26
HETATM   26  O   UNL     1      40.027  -9.914   8.777  1.00  0.00    -0.401 OA
HETATM   27  H   UNL     1      40.107 -10.308   7.888  1.00  0.00     0.209 HD
ENDBRANCH  25  26
ENDBRANCH  24  25
ENDBRANCH  19  24
ENDBRANCH  16  17
ENDBRANCH  13  16
ENDBRANCH   6  12
BRANCH   1  28
HETATM   28  C   UNL     1      41.731 -11.759   1.778  1.00  0.00     0.312 C 
HETATM   29  O   UNL     1      42.370 -10.723   1.927  1.00  0.00    -0.258 OA
BRANCH  28  30
HETATM   30  O   UNL     1      40.531 -11.881   1.155  1.00  0.00    -0.317 OA
BRANCH  30  31
HETATM   31  C   UNL     1      40.455 -11.326  -0.168  1.00  0.00     0.175 C 
HETATM   32  C   UNL     1      40.630 -12.412  -1.212  1.00  0.00     0.034 C 
ENDBRANCH  30  31
ENDBRANCH  28  30
ENDBRANCH   1  28
TORSDOF 9
ENDMDL
MODEL 8
REMARK VINA RESULT:      -6.6      2.766      6.922
REMARK  9 active torsions:
REMARK  status: ('A' for Active; 'I' for Inactive)
REMARK    1  A    between atoms: C_2  and  O_3 
REMARK    2  A    between atoms: O_3  and  C_4 
REMARK    3  A    between atoms: C_4  and  C_5 
REMARK    4  A    between atoms: C_10  and  N_11 
REMARK       I    between atoms: N_11  and  C_12 
REMARK    5  A    between atoms: C_12  and  C_13 
REMARK    6  A    between atoms: C_13  and  N_14 
REMARK    7  A    between atoms: C_16  and  C_17 
REMARK    8  A    between atoms: C_17  and  C_18 
REMARK    9  A    between atoms: C_18  and  O_19 
ROOT
HETATM    1  C   UNL     1      41.784 -10.551   2.487  1.00  0.00     0.137 A 
HETATM    2  N   UNL     1      41.640  -9.726   1.400  1.00  0.00    -0.349 N 
HETATM    3  H   UNL     1      41.730  -8.718   1.432  1.00  0.00     0.166 HD
HETATM    4  C   UNL     1      41.345 -10.453   0.274  1.00  0.00     0.045 A 
HETATM    5  C   UNL     1      41.296 -11.801   0.644  1.00  0.00     0.021 A 
HETATM    6  C   UNL     1      41.599 -11.857   2.047  1.00  0.00     0.080 A 
HETATM    7  C   UNL     1      41.112 -10.000  -1.032  1.00  0.00     0.032 A 
HETATM    8  C   UNL     1      40.800 -10.950  -2.005  1.00  0.00     0.026 A 
HETATM    9  C   UNL     1      40.717 -12.295  -1.672  1.00  0.00     0.035 A 
HETATM   10 CL   UNL     1      40.310 -13.448  -2.885  1.00  0.00    -0.084 Cl
HETATM   11  C   UNL     1      40.954 -12.732  -0.363  1.00  0.00     0.040 A 
ENDROOT
BRANCH   6  12
HETATM   12  N   UNL     1      41.708 -12.911   2.953  1.00  0.00    -0.323 N 
HETATM   13  C   UNL     1      42.640 -13.915   2.963  1.00  0.00     0.248 C 
HETATM   14  O   UNL     1      43.609 -14.061   2.222  1.00  0.00    -0.271 OA
HETATM   15  H   UNL     1      41.078 -12.819   3.754  1.00  0.00     0.169 HD
BRANCH  13  16
HETATM   16  C   UNL     1      42.448 -14.930   4.094  1.00  0.00     0.338 C 
BRANCH  16  17
HETATM   17  N   UNL     1      43.128 -16.264   3.745  1.00  0.00    -0.059 N 
HETATM   18  H   UNL     1      43.917 -15.947   3.154  1.00  0.00     0.280 HD
HETATM   19  C   UNL     1      43.808 -16.970   4.925  1.00  0.00     0.190 C 
HETATM   20  C   UNL     1      44.648 -18.115   4.340  1.00  0.00     0.033 C 
HETATM   21  C   UNL     1      43.827 -19.066   3.473  1.00  0.00     0.004 C 
HETATM   22  C   UNL     1      43.100 -18.313   2.364  1.00  0.00     0.028 C 
HETATM   23  C   UNL     1      42.268 -17.155   2.893  1.00  0.00     0.236 C 
BRANCH  19  24
HETATM   24  C   UNL     1      42.785 -17.407   5.982  1.00  0.00     0.059 C 
BRANCH  24  25
HETATM   25  C   UNL     1      42.799 -16.534   7.233  1.00  0.00     0.166 C 
BRANCH  25  26
HETATM   26  O   UNL     1      43.792 -17.055   8.102  1.00  0.00    -0.401 OA
HETATM   27  H   UNL     1      43.513 -16.877   9.019  1.00  0.00     0.209 HD
ENDBRANCH  25  26
ENDBRANCH  24  25
ENDBRANCH  19  24
ENDBRANCH  16  17
ENDBRANCH  13  16
ENDBRANCH   6  12
BRANCH   1  28
HETATM   28  C   UNL     1      42.097 -10.098   3.821  1.00  0.00     0.312 C 
HETATM   29  O   UNL     1      41.419  -9.281   4.434  1.00  0.00    -0.258 OA
BRANCH  28  30
HETATM   30  O   UNL     1      43.225 -10.706   4.271  1.00  0.00    -0.317 OA
BRANCH  30  31
HETATM   31  C   UNL     1      43.262 -10.990   5.679  1.00  0.00     0.175 C 
HETATM   32  C   UNL     1      44.337 -12.015   5.987  1.00  0.00     0.034 C 
ENDBRANCH  30  31
ENDBRANCH  28  30
ENDBRANCH   1  28
TORSDOF 9
ENDMDL
MODEL 9
REMARK VINA RESULT:      -6.5      2.182      5.344
REMARK  9 active torsions:
REMARK  status: ('A' for Active; 'I' for Inactive)
REMARK    1  A    between atoms: C_2  and  O_3 
REMARK    2  A    between atoms: O_3  and  C_4 
REMARK    3  A    between atoms: C_4  and  C_5 
REMARK    4  A    between atoms: C_10  and  N_11 
REMARK       I    between atoms: N_11  and  C_12 
REMARK    5  A    between atoms: C_12  and  C_13 
REMARK    6  A    between atoms: C_13  and  N_14 
REMARK    7  A    between atoms: C_16  and  C_17 
REMARK    8  A    between atoms: C_17  and  C_18 
REMARK    9  A    between atoms: C_18  and  O_19 
ROOT
HETATM    1  C   UNL     1      42.793 -16.036   2.714  1.00  0.00     0.137 A 
HETATM    2  N   UNL     1      42.984 -17.092   1.859  1.00  0.00    -0.349 N 
HETATM    3  H   UNL     1      42.868 -17.042   0.855  1.00  0.00     0.166 HD
HETATM    4  C   UNL     1      43.338 -18.222   2.553  1.00  0.00     0.045 A 
HETATM    5  C   UNL     1      43.377 -17.886   3.911  1.00  0.00     0.021 A 
HETATM    6  C   UNL     1      43.053 -16.490   4.003  1.00  0.00     0.080 A 
HETATM    7  C   UNL     1      43.611 -19.507   2.066  1.00  0.00     0.032 A 
HETATM    8  C   UNL     1      43.924 -20.503   2.992  1.00  0.00     0.026 A 
HETATM    9  C   UNL     1      43.950 -20.215   4.350  1.00  0.00     0.035 A 
HETATM   10 CL   UNL     1      44.318 -21.464   5.476  1.00  0.00    -0.084 Cl
HETATM   11  C   UNL     1      43.675 -18.926   4.822  1.00  0.00     0.040 A 
ENDROOT
BRANCH   6  12
HETATM   12  N   UNL     1      42.949 -15.608   5.078  1.00  0.00    -0.323 N 
HETATM   13  C   UNL     1      43.783 -15.505   6.161  1.00  0.00     0.248 C 
HETATM   14  O   UNL     1      44.826 -16.116   6.379  1.00  0.00    -0.271 OA
HETATM   15  H   UNL     1      42.228 -14.896   4.945  1.00  0.00     0.169 HD
BRANCH  13  16
HETATM   16  C   UNL     1      43.355 -14.440   7.174  1.00  0.00     0.338 C 
BRANCH  16  17
HETATM   17  N   UNL     1      43.501 -13.033   6.575  1.00  0.00    -0.059 N 
HETATM   18  H   UNL     1      44.389 -13.122   6.047  1.00  0.00     0.280 HD
HETATM   19  C   UNL     1      42.466 -12.676   5.500  1.00  0.00     0.190 C 
HETATM   20  C   UNL     1      42.934 -11.372   4.840  1.00  0.00     0.033 C 
HETATM   21  C   UNL     1      43.153 -10.245   5.847  1.00  0.00     0.004 C 
HETATM   22  C   UNL     1      44.124 -10.669   6.945  1.00  0.00     0.028 C 
HETATM   23  C   UNL     1      43.713 -11.970   7.617  1.00  0.00     0.236 C 
BRANCH  19  24
HETATM   24  C   UNL     1      41.048 -12.622   6.084  1.00  0.00     0.059 C 
BRANCH  24  25
HETATM   25  C   UNL     1      39.971 -13.064   5.098  1.00  0.00     0.166 C 
BRANCH  25  26
HETATM   26  O   UNL     1      40.129 -14.460   4.897  1.00  0.00    -0.401 OA
HETATM   27  H   UNL     1      40.613 -14.822   5.663  1.00  0.00     0.209 HD
ENDBRANCH  25  26
ENDBRANCH  24  25
ENDBRANCH  19  24
ENDBRANCH  16  17
ENDBRANCH  13  16
ENDBRANCH   6  12
BRANCH   1  28
HETATM   28  C   UNL     1      42.415 -14.707   2.300  1.00  0.00     0.312 C 
HETATM   29  O   UNL     1      43.204 -13.771   2.228  1.00  0.00    -0.258 OA
BRANCH  28  30
HETATM   30  O   UNL     1      41.088 -14.663   2.013  1.00  0.00    -0.317 OA
BRANCH  30  31
HETATM   31  C   UNL     1      40.719 -13.839   0.896  1.00  0.00     0.175 C 
HETATM   32  C   UNL     1      39.806 -12.714   1.344  1.00  0.00     0.034 C 
ENDBRANCH  30  31
ENDBRANCH  28  30
ENDBRANCH   1  28
TORSDOF 9
ENDMDL
MODEL 10
REMARK VINA RESULT:      -6.5      3.316      6.936
REMARK  9 active torsions:
REMARK  status: ('A' for Active; 'I' for Inactive)
REMARK    1  A    between atoms: C_2  and  O_3 
REMARK    2  A    between atoms: O_3  and  C_4 
REMARK    3  A    between atoms: C_4  and  C_5 
REMARK    4  A    between atoms: C_10  and  N_11 
REMARK       I    between atoms: N_11  and  C_12 
REMARK    5  A    between atoms: C_12  and  C_13 
REMARK    6  A    between atoms: C_13  and  N_14 
REMARK    7  A    between atoms: C_16  and  C_17 
REMARK    8  A    between atoms: C_17  and  C_18 
REMARK    9  A    between atoms: C_18  and  O_19 
ROOT
HETATM    1  C   UNL     1      40.604 -13.734   4.698  1.00  0.00     0.137 A 
HETATM    2  N   UNL     1      40.238 -14.448   3.585  1.00  0.00    -0.349 N 
HETATM    3  H   UNL     1      39.413 -14.258   3.030  1.00  0.00     0.166 HD
HETATM    4  C   UNL     1      41.134 -15.458   3.339  1.00  0.00     0.045 A 
HETATM    5  C   UNL     1      42.119 -15.397   4.332  1.00  0.00     0.021 A 
HETATM    6  C   UNL     1      41.787 -14.284   5.176  1.00  0.00     0.080 A 
HETATM    7  C   UNL     1      41.125 -16.416   2.316  1.00  0.00     0.032 A 
HETATM    8  C   UNL     1      42.147 -17.365   2.303  1.00  0.00     0.026 A 
HETATM    9  C   UNL     1      43.129 -17.353   3.284  1.00  0.00     0.035 A 
HETATM   10 CL   UNL     1      44.370 -18.547   3.260  1.00  0.00    -0.084 Cl
HETATM   11  C   UNL     1      43.126 -16.389   4.300  1.00  0.00     0.040 A 
ENDROOT
BRANCH   6  12
HETATM   12  N   UNL     1      42.396 -13.734   6.304  1.00  0.00    -0.323 N 
HETATM   13  C   UNL     1      43.267 -12.677   6.355  1.00  0.00     0.248 C 
HETATM   14  O   UNL     1      43.642 -11.955   5.434  1.00  0.00    -0.271 OA
HETATM   15  H   UNL     1      42.031 -14.111   7.182  1.00  0.00     0.169 HD
BRANCH  13  16
HETATM   16  C   UNL     1      43.768 -12.352   7.765  1.00  0.00     0.338 C 
BRANCH  16  17
HETATM   17  N   UNL     1      44.262 -10.899   7.842  1.00  0.00    -0.059 N 
HETATM   18  H   UNL     1      44.022 -10.547   6.898  1.00  0.00     0.280 HD
HETATM   19  C   UNL     1      43.464  -9.995   8.790  1.00  0.00     0.190 C 
HETATM   20  C   UNL     1      43.922  -8.553   8.527  1.00  0.00     0.033 C 
HETATM   21  C   UNL     1      45.431  -8.377   8.671  1.00  0.00     0.004 C 
HETATM   22  C   UNL     1      46.189  -9.352   7.775  1.00  0.00     0.028 C 
HETATM   23  C   UNL     1      45.755 -10.795   7.986  1.00  0.00     0.236 C 
BRANCH  19  24
HETATM   24  C   UNL     1      43.602 -10.451  10.249  1.00  0.00     0.059 C 
BRANCH  24  25
HETATM   25  C   UNL     1      42.548  -9.848  11.172  1.00  0.00     0.166 C 
BRANCH  25  26
HETATM   26  O   UNL     1      43.234  -9.135  12.190  1.00  0.00    -0.401 OA
HETATM   27  H   UNL     1      43.389  -9.746  12.933  1.00  0.00     0.209 HD
ENDBRANCH  25  26
ENDBRANCH  24  25
ENDBRANCH  19  24
ENDBRANCH  16  17
ENDBRANCH  13  16
ENDBRANCH   6  12
BRANCH   1  28
HETATM   28  C   UNL     1      39.872 -12.606   5.223  1.00  0.00     0.312 C 
HETATM   29  O   UNL     1      39.157 -12.668   6.218  1.00  0.00    -0.258 OA
BRANCH  28  30
HETATM   30  O   UNL     1      40.097 -11.504   4.462  1.00  0.00    -0.317 OA
BRANCH  30  31
HETATM   31  C   UNL     1      38.943 -10.947   3.813  1.00  0.00     0.175 C 
HETATM   32  C   UNL     1      38.542  -9.640   4.472  1.00  0.00     0.034 C 
ENDBRANCH  30  31
ENDBRANCH  28  30
ENDBRANCH   1  28
TORSDOF 9
ENDMDL
