MODEL 1
REMARK VINA RESULT:      -7.6      0.000      0.000
REMARK  7 active torsions:
REMARK  status: ('A' for Active; 'I' for Inactive)
REMARK    1  A    between atoms: C_6  and  C_7 
REMARK       I    between atoms: C_7  and  N_8 
REMARK    2  A    between atoms: N_8  and  N_9 
REMARK       I    between atoms: N_9  and  C_10 
REMARK    3  A    between atoms: C_10  and  C_11 
REMARK    4  A    between atoms: C_11  and  C_12 
REMARK    5  A    between atoms: C_12  and  C_13 
REMARK    6  A    between atoms: C_13  and  O_14 
REMARK    7  A    between atoms: O_14  and  C_15 
ROOT
HETATM    1  N   UNL     1      40.188 -14.214   4.864  1.00  0.00    -0.267 N 
HETATM    2  C   UNL     1      40.572 -15.443   5.364  1.00  0.00     0.236 C 
HETATM    3  O   UNL     1      40.441 -16.496   4.747  1.00  0.00    -0.272 OA
HETATM    4  H   UNL     1      40.461 -13.333   5.297  1.00  0.00     0.190 HD
ENDROOT
BRANCH   2   5
HETATM    5  C   UNL     1      41.139 -15.345   6.766  1.00  0.00     0.107 C 
BRANCH   5   6
HETATM    6  C   UNL     1      42.647 -15.122   6.807  1.00  0.00     0.036 C 
BRANCH   6   7
HETATM    7  C   UNL     1      43.440 -16.430   6.856  1.00  0.00     0.176 C 
BRANCH   7   8
HETATM    8  O   UNL     1      44.300 -16.451   5.720  1.00  0.00    -0.349 OA
BRANCH   8   9
HETATM    9  C   UNL     1      44.006 -17.252   4.653  1.00  0.00     0.090 A 
HETATM   10  C   UNL     1      43.538 -16.919   3.373  1.00  0.00     0.069 A 
HETATM   11 CL   UNL     1      43.242 -15.312   2.811  1.00  0.00    -0.081 Cl
HETATM   12  C   UNL     1      43.328 -17.929   2.419  1.00  0.00     0.050 A 
HETATM   13  C   UNL     1      43.595 -19.259   2.727  1.00  0.00     0.035 A 
HETATM   14 CL   UNL     1      43.347 -20.481   1.542  1.00  0.00    -0.084 Cl
HETATM   15  C   UNL     1      44.074 -19.604   3.984  1.00  0.00     0.026 A 
HETATM   16  C   UNL     1      44.279 -18.603   4.935  1.00  0.00     0.040 A 
ENDBRANCH   8   9
ENDBRANCH   7   8
ENDBRANCH   6   7
ENDBRANCH   5   6
ENDBRANCH   2   5
BRANCH   1  17
HETATM   17  N   UNL     1      39.754 -14.139   3.539  1.00  0.00    -0.262 N 
HETATM   18  C   UNL     1      40.362 -13.256   2.671  1.00  0.00     0.290 C 
HETATM   19  O   UNL     1      41.242 -12.471   3.026  1.00  0.00    -0.264 OA
HETATM   20  H   UNL     1      39.097 -14.837   3.187  1.00  0.00     0.190 HD
BRANCH  18  21
HETATM   21  C   UNL     1      39.860 -13.344   1.294  1.00  0.00     0.147 A 
HETATM   22  N   UNL     1      39.035 -12.414   0.769  1.00  0.00    -0.169 NA
HETATM   23  N   UNL     1      38.815 -12.839  -0.486  1.00  0.00    -0.282 N 
HETATM   24  C   UNL     1      39.461 -14.003  -0.796  1.00  0.00     0.026 A 
HETATM   25  H   UNL     1      38.212 -12.281  -1.082  1.00  0.00     0.189 HD
HETATM   26  C   UNL     1      39.364 -14.647  -2.123  1.00  0.00     0.070 C 
HETATM   27  C   UNL     1      40.145 -14.359   0.345  1.00  0.00     0.065 A 
ENDBRANCH  18  21
ENDBRANCH   1  17
TORSDOF 7
ENDMDL
MODEL 2
REMARK VINA RESULT:      -7.1      5.991      8.684
REMARK  7 active torsions:
REMARK  status: ('A' for Active; 'I' for Inactive)
REMARK    1  A    between atoms: C_6  and  C_7 
REMARK       I    between atoms: C_7  and  N_8 
REMARK    2  A    between atoms: N_8  and  N_9 
REMARK       I    between atoms: N_9  and  C_10 
REMARK    3  A    between atoms: C_10  and  C_11 
REMARK    4  A    between atoms: C_11  and  C_12 
REMARK    5  A    between atoms: C_12  and  C_13 
REMARK    6  A    between atoms: C_13  and  O_14 
REMARK    7  A    between atoms: O_14  and  C_15 
ROOT
HETATM    1  N   UNL     1      43.492 -11.224   8.727  1.00  0.00    -0.267 N 
HETATM    2  C   UNL     1      44.294 -10.585   7.802  1.00  0.00     0.236 C 
HETATM    3  O   UNL     1      44.493  -9.373   7.802  1.00  0.00    -0.272 OA
HETATM    4  H   UNL     1      43.475 -12.238   8.833  1.00  0.00     0.190 HD
ENDROOT
BRANCH   2   5
HETATM    5  C   UNL     1      44.869 -11.539   6.776  1.00  0.00     0.107 C 
BRANCH   5   6
HETATM    6  C   UNL     1      44.147 -12.881   6.709  1.00  0.00     0.036 C 
BRANCH   6   7
HETATM    7  C   UNL     1      43.274 -13.023   5.460  1.00  0.00     0.176 C 
BRANCH   7   8
HETATM    8  O   UNL     1      42.475 -14.191   5.629  1.00  0.00    -0.349 OA
BRANCH   8   9
HETATM    9  C   UNL     1      42.753 -15.320   4.911  1.00  0.00     0.090 A 
HETATM   10  C   UNL     1      43.710 -16.322   5.134  1.00  0.00     0.069 A 
HETATM   11 CL   UNL     1      44.799 -16.374   6.476  1.00  0.00    -0.081 Cl
HETATM   12  C   UNL     1      43.794 -17.418   4.259  1.00  0.00     0.050 A 
HETATM   13  C   UNL     1      42.926 -17.527   3.177  1.00  0.00     0.035 A 
HETATM   14 CL   UNL     1      43.034 -18.884   2.125  1.00  0.00    -0.084 Cl
HETATM   15  C   UNL     1      41.963 -16.553   2.952  1.00  0.00     0.026 A 
HETATM   16  C   UNL     1      41.881 -15.461   3.817  1.00  0.00     0.040 A 
ENDBRANCH   8   9
ENDBRANCH   7   8
ENDBRANCH   6   7
ENDBRANCH   5   6
ENDBRANCH   2   5
BRANCH   1  17
HETATM   17  N   UNL     1      42.988 -10.486   9.798  1.00  0.00    -0.262 N 
HETATM   18  C   UNL     1      43.618 -10.543  11.024  1.00  0.00     0.290 C 
HETATM   19  O   UNL     1      44.585 -11.274  11.243  1.00  0.00    -0.264 OA
HETATM   20  H   UNL     1      42.251  -9.798   9.630  1.00  0.00     0.190 HD
BRANCH  18  21
HETATM   21  C   UNL     1      43.028  -9.653  12.032  1.00  0.00     0.147 A 
HETATM   22  N   UNL     1      41.888  -9.962  12.683  1.00  0.00    -0.169 NA
HETATM   23  N   UNL     1      41.688  -8.922  13.510  1.00  0.00    -0.282 N 
HETATM   24  C   UNL     1      42.649  -7.954  13.421  1.00  0.00     0.026 A 
HETATM   25  H   UNL     1      40.872  -8.939  14.113  1.00  0.00     0.189 HD
HETATM   26  C   UNL     1      42.630  -6.725  14.243  1.00  0.00     0.070 C 
HETATM   27  C   UNL     1      43.533  -8.399  12.464  1.00  0.00     0.065 A 
ENDBRANCH  18  21
ENDBRANCH   1  17
TORSDOF 7
ENDMDL
MODEL 3
REMARK VINA RESULT:      -7.1      4.779      7.473
REMARK  7 active torsions:
REMARK  status: ('A' for Active; 'I' for Inactive)
REMARK    1  A    between atoms: C_6  and  C_7 
REMARK       I    between atoms: C_7  and  N_8 
REMARK    2  A    between atoms: N_8  and  N_9 
REMARK       I    between atoms: N_9  and  C_10 
REMARK    3  A    between atoms: C_10  and  C_11 
REMARK    4  A    between atoms: C_11  and  C_12 
REMARK    5  A    between atoms: C_12  and  C_13 
REMARK    6  A    between atoms: C_13  and  O_14 
REMARK    7  A    between atoms: O_14  and  C_15 
ROOT
HETATM    1  N   UNL     1      43.892 -12.095   6.657  1.00  0.00    -0.267 N 
HETATM    2  C   UNL     1      42.819 -12.213   5.795  1.00  0.00     0.236 C 
HETATM    3  O   UNL     1      41.651 -12.074   6.147  1.00  0.00    -0.272 OA
HETATM    4  H   UNL     1      44.856 -12.031   6.330  1.00  0.00     0.190 HD
ENDROOT
BRANCH   2   5
HETATM    5  C   UNL     1      43.245 -12.564   4.385  1.00  0.00     0.107 C 
BRANCH   5   6
HETATM    6  C   UNL     1      42.080 -12.800   3.429  1.00  0.00     0.036 C 
BRANCH   6   7
HETATM    7  C   UNL     1      41.878 -14.279   3.093  1.00  0.00     0.176 C 
BRANCH   7   8
HETATM    8  O   UNL     1      42.570 -15.039   4.080  1.00  0.00    -0.349 OA
BRANCH   8   9
HETATM    9  C   UNL     1      43.002 -16.303   3.792  1.00  0.00     0.090 A 
HETATM   10  C   UNL     1      43.865 -17.149   4.505  1.00  0.00     0.069 A 
HETATM   11 CL   UNL     1      44.595 -16.770   6.025  1.00  0.00    -0.081 Cl
HETATM   12  C   UNL     1      44.148 -18.435   4.016  1.00  0.00     0.050 A 
HETATM   13  C   UNL     1      43.568 -18.886   2.834  1.00  0.00     0.035 A 
HETATM   14 CL   UNL     1      43.914 -20.469   2.258  1.00  0.00    -0.084 Cl
HETATM   15  C   UNL     1      42.700 -18.067   2.125  1.00  0.00     0.026 A 
HETATM   16  C   UNL     1      42.420 -16.787   2.607  1.00  0.00     0.040 A 
ENDBRANCH   8   9
ENDBRANCH   7   8
ENDBRANCH   6   7
ENDBRANCH   5   6
ENDBRANCH   2   5
BRANCH   1  17
HETATM   17  N   UNL     1      43.656 -11.662   7.962  1.00  0.00    -0.262 N 
HETATM   18  C   UNL     1      44.534 -10.780   8.559  1.00  0.00     0.290 C 
HETATM   19  O   UNL     1      45.568 -10.396   8.012  1.00  0.00    -0.264 OA
HETATM   20  H   UNL     1      42.765 -11.882   8.409  1.00  0.00     0.190 HD
BRANCH  18  21
HETATM   21  C   UNL     1      44.116 -10.350   9.899  1.00  0.00     0.147 A 
HETATM   22  N   UNL     1      43.835 -11.231  10.881  1.00  0.00    -0.169 NA
HETATM   23  N   UNL     1      43.508 -10.460  11.932  1.00  0.00    -0.282 N 
HETATM   24  C   UNL     1      43.565  -9.119  11.672  1.00  0.00     0.026 A 
HETATM   25  H   UNL     1      43.256 -10.917  12.803  1.00  0.00     0.189 HD
HETATM   26  C   UNL     1      43.251  -8.090  12.686  1.00  0.00     0.070 C 
HETATM   27  C   UNL     1      43.953  -9.016  10.355  1.00  0.00     0.065 A 
ENDBRANCH  18  21
ENDBRANCH   1  17
TORSDOF 7
ENDMDL
MODEL 4
REMARK VINA RESULT:      -6.9      5.715      8.046
REMARK  7 active torsions:
REMARK  status: ('A' for Active; 'I' for Inactive)
REMARK    1  A    between atoms: C_6  and  C_7 
REMARK       I    between atoms: C_7  and  N_8 
REMARK    2  A    between atoms: N_8  and  N_9 
REMARK       I    between atoms: N_9  and  C_10 
REMARK    3  A    between atoms: C_10  and  C_11 
REMARK    4  A    between atoms: C_11  and  C_12 
REMARK    5  A    between atoms: C_12  and  C_13 
REMARK    6  A    between atoms: C_13  and  O_14 
REMARK    7  A    between atoms: O_14  and  C_15 
ROOT
HETATM    1  N   UNL     1      42.941 -10.876   7.946  1.00  0.00    -0.267 N 
HETATM    2  C   UNL     1      44.102 -11.548   7.616  1.00  0.00     0.236 C 
HETATM    3  O   UNL     1      45.161 -11.402   8.218  1.00  0.00    -0.272 OA
HETATM    4  H   UNL     1      42.031 -11.130   7.565  1.00  0.00     0.190 HD
ENDROOT
BRANCH   2   5
HETATM    5  C   UNL     1      43.925 -12.452   6.414  1.00  0.00     0.107 C 
BRANCH   5   6
HETATM    6  C   UNL     1      43.210 -13.762   6.727  1.00  0.00     0.036 C 
BRANCH   6   7
HETATM    7  C   UNL     1      42.282 -14.216   5.598  1.00  0.00     0.176 C 
BRANCH   7   8
HETATM    8  O   UNL     1      43.095 -14.491   4.461  1.00  0.00    -0.349 OA
BRANCH   8   9
HETATM    9  C   UNL     1      43.264 -15.779   4.035  1.00  0.00     0.090 A 
HETATM   10  C   UNL     1      43.896 -16.864   4.663  1.00  0.00     0.069 A 
HETATM   11 CL   UNL     1      44.620 -16.819   6.232  1.00  0.00    -0.081 Cl
HETATM   12  C   UNL     1      43.925 -18.118   4.032  1.00  0.00     0.050 A 
HETATM   13  C   UNL     1      43.317 -18.301   2.793  1.00  0.00     0.035 A 
HETATM   14 CL   UNL     1      43.348 -19.848   2.042  1.00  0.00    -0.084 Cl
HETATM   15  C   UNL     1      42.674 -17.242   2.167  1.00  0.00     0.026 A 
HETATM   16  C   UNL     1      42.648 -15.993   2.790  1.00  0.00     0.040 A 
ENDBRANCH   8   9
ENDBRANCH   7   8
ENDBRANCH   6   7
ENDBRANCH   5   6
ENDBRANCH   2   5
BRANCH   1  17
HETATM   17  N   UNL     1      42.927 -10.095   9.103  1.00  0.00    -0.262 N 
HETATM   18  C   UNL     1      42.965  -8.720   9.000  1.00  0.00     0.290 C 
HETATM   19  O   UNL     1      43.077  -8.135   7.921  1.00  0.00    -0.264 OA
HETATM   20  H   UNL     1      42.739 -10.538  10.003  1.00  0.00     0.190 HD
BRANCH  18  21
HETATM   21  C   UNL     1      42.861  -8.029  10.291  1.00  0.00     0.147 A 
HETATM   22  N   UNL     1      42.354  -6.784  10.401  1.00  0.00    -0.169 NA
HETATM   23  N   UNL     1      42.420  -6.516  11.716  1.00  0.00    -0.282 N 
HETATM   24  C   UNL     1      42.948  -7.533  12.461  1.00  0.00     0.026 A 
HETATM   25  H   UNL     1      42.083  -5.614  12.039  1.00  0.00     0.189 HD
HETATM   26  C   UNL     1      43.109  -7.454  13.928  1.00  0.00     0.070 C 
HETATM   27  C   UNL     1      43.250  -8.530  11.560  1.00  0.00     0.065 A 
ENDBRANCH  18  21
ENDBRANCH   1  17
TORSDOF 7
ENDMDL
MODEL 5
REMARK VINA RESULT:      -6.8      3.552      6.104
REMARK  7 active torsions:
REMARK  status: ('A' for Active; 'I' for Inactive)
REMARK    1  A    between atoms: C_6  and  C_7 
REMARK       I    between atoms: C_7  and  N_8 
REMARK    2  A    between atoms: N_8  and  N_9 
REMARK       I    between atoms: N_9  and  C_10 
REMARK    3  A    between atoms: C_10  and  C_11 
REMARK    4  A    between atoms: C_11  and  C_12 
REMARK    5  A    between atoms: C_12  and  C_13 
REMARK    6  A    between atoms: C_13  and  O_14 
REMARK    7  A    between atoms: O_14  and  C_15 
ROOT
HETATM    1  N   UNL     1      42.570 -13.503   4.403  1.00  0.00    -0.267 N 
HETATM    2  C   UNL     1      41.202 -13.324   4.349  1.00  0.00     0.236 C 
HETATM    3  O   UNL     1      40.609 -12.453   4.979  1.00  0.00    -0.272 OA
HETATM    4  H   UNL     1      43.073 -14.101   3.748  1.00  0.00     0.190 HD
ENDROOT
BRANCH   2   5
HETATM    5  C   UNL     1      40.520 -14.339   3.456  1.00  0.00     0.107 C 
BRANCH   5   6
HETATM    6  C   UNL     1      41.137 -14.452   2.066  1.00  0.00     0.036 C 
BRANCH   6   7
HETATM    7  C   UNL     1      41.664 -15.856   1.762  1.00  0.00     0.176 C 
BRANCH   7   8
HETATM    8  O   UNL     1      42.913 -15.997   2.433  1.00  0.00    -0.349 OA
BRANCH   8   9
HETATM    9  C   UNL     1      43.285 -17.211   2.941  1.00  0.00     0.090 A 
HETATM   10  C   UNL     1      43.832 -17.540   4.190  1.00  0.00     0.069 A 
HETATM   11 CL   UNL     1      44.148 -16.414   5.463  1.00  0.00    -0.081 Cl
HETATM   12  C   UNL     1      44.114 -18.881   4.500  1.00  0.00     0.050 A 
HETATM   13  C   UNL     1      43.842 -19.891   3.583  1.00  0.00     0.035 A 
HETATM   14 CL   UNL     1      44.179 -21.529   3.986  1.00  0.00    -0.084 Cl
HETATM   15  C   UNL     1      43.285 -19.583   2.349  1.00  0.00     0.026 A 
HETATM   16  C   UNL     1      43.008 -18.252   2.037  1.00  0.00     0.040 A 
ENDBRANCH   8   9
ENDBRANCH   7   8
ENDBRANCH   6   7
ENDBRANCH   5   6
ENDBRANCH   2   5
BRANCH   1  17
HETATM   17  N   UNL     1      43.339 -12.569   5.097  1.00  0.00    -0.262 N 
HETATM   18  C   UNL     1      43.700 -12.817   6.406  1.00  0.00     0.290 C 
HETATM   19  O   UNL     1      43.319 -13.811   7.025  1.00  0.00    -0.264 OA
HETATM   20  H   UNL     1      43.752 -11.784   4.590  1.00  0.00     0.190 HD
BRANCH  18  21
HETATM   21  C   UNL     1      44.576 -11.788   6.981  1.00  0.00     0.147 A 
HETATM   22  N   UNL     1      45.732 -11.419   6.393  1.00  0.00    -0.169 NA
HETATM   23  N   UNL     1      46.225 -10.468   7.204  1.00  0.00    -0.282 N 
HETATM   24  C   UNL     1      45.438 -10.207   8.291  1.00  0.00     0.026 A 
HETATM   25  H   UNL     1      47.108 -10.034   6.953  1.00  0.00     0.189 HD
HETATM   26  C   UNL     1      45.787  -9.194   9.311  1.00  0.00     0.070 C 
HETATM   27  C   UNL     1      44.360 -11.055   8.176  1.00  0.00     0.065 A 
ENDBRANCH  18  21
ENDBRANCH   1  17
TORSDOF 7
ENDMDL
MODEL 6
REMARK VINA RESULT:      -6.7      5.593      8.132
REMARK  7 active torsions:
REMARK  status: ('A' for Active; 'I' for Inactive)
REMARK    1  A    between atoms: C_6  and  C_7 
REMARK       I    between atoms: C_7  and  N_8 
REMARK    2  A    between atoms: N_8  and  N_9 
REMARK       I    between atoms: N_9  and  C_10 
REMARK    3  A    between atoms: C_10  and  C_11 
REMARK    4  A    between atoms: C_11  and  C_12 
REMARK    5  A    between atoms: C_12  and  C_13 
REMARK    6  A    between atoms: C_13  and  O_14 
REMARK    7  A    between atoms: O_14  and  C_15 
ROOT
HETATM    1  N   UNL     1      43.112 -11.064   7.819  1.00  0.00    -0.267 N 
HETATM    2  C   UNL     1      44.277 -11.532   7.242  1.00  0.00     0.236 C 
HETATM    3  O   UNL     1      45.369 -11.499   7.800  1.00  0.00    -0.272 OA
HETATM    4  H   UNL     1      42.190 -11.257   7.431  1.00  0.00     0.190 HD
ENDROOT
BRANCH   2   5
HETATM    5  C   UNL     1      44.057 -12.056   5.837  1.00  0.00     0.107 C 
BRANCH   5   6
HETATM    6  C   UNL     1      42.623 -12.494   5.560  1.00  0.00     0.036 C 
BRANCH   6   7
HETATM    7  C   UNL     1      42.422 -14.003   5.718  1.00  0.00     0.176 C 
BRANCH   7   8
HETATM    8  O   UNL     1      41.753 -14.470   4.549  1.00  0.00    -0.349 OA
BRANCH   8   9
HETATM    9  C   UNL     1      42.135 -15.644   3.965  1.00  0.00     0.090 A 
HETATM   10  C   UNL     1      41.609 -16.312   2.848  1.00  0.00     0.069 A 
HETATM   11 CL   UNL     1      40.296 -15.744   1.879  1.00  0.00    -0.081 Cl
HETATM   12  C   UNL     1      42.192 -17.513   2.411  1.00  0.00     0.050 A 
HETATM   13  C   UNL     1      43.300 -18.041   3.068  1.00  0.00     0.035 A 
HETATM   14 CL   UNL     1      44.011 -19.505   2.509  1.00  0.00    -0.084 Cl
HETATM   15  C   UNL     1      43.842 -17.384   4.164  1.00  0.00     0.026 A 
HETATM   16  C   UNL     1      43.261 -16.193   4.602  1.00  0.00     0.040 A 
ENDBRANCH   8   9
ENDBRANCH   7   8
ENDBRANCH   6   7
ENDBRANCH   5   6
ENDBRANCH   2   5
BRANCH   1  17
HETATM   17  N   UNL     1      43.145 -10.658   9.153  1.00  0.00    -0.262 N 
HETATM   18  C   UNL     1      42.766  -9.373   9.486  1.00  0.00     0.290 C 
HETATM   19  O   UNL     1      42.455  -8.531   8.643  1.00  0.00    -0.264 OA
HETATM   20  H   UNL     1      43.304 -11.353   9.885  1.00  0.00     0.190 HD
BRANCH  18  21
HETATM   21  C   UNL     1      42.772  -9.113  10.931  1.00  0.00     0.147 A 
HETATM   22  N   UNL     1      42.480 -10.072  11.834  1.00  0.00    -0.169 NA
HETATM   23  N   UNL     1      42.601  -9.454  13.022  1.00  0.00    -0.282 N 
HETATM   24  C   UNL     1      42.957  -8.137  12.925  1.00  0.00     0.026 A 
HETATM   25  H   UNL     1      42.427  -9.994  13.863  1.00  0.00     0.189 HD
HETATM   26  C   UNL     1      43.151  -7.269  14.106  1.00  0.00     0.070 C 
HETATM   27  C   UNL     1      43.071  -7.886  11.576  1.00  0.00     0.065 A 
ENDBRANCH  18  21
ENDBRANCH   1  17
TORSDOF 7
ENDMDL
MODEL 7
REMARK VINA RESULT:      -6.6      5.351      7.530
REMARK  7 active torsions:
REMARK  status: ('A' for Active; 'I' for Inactive)
REMARK    1  A    between atoms: C_6  and  C_7 
REMARK       I    between atoms: C_7  and  N_8 
REMARK    2  A    between atoms: N_8  and  N_9 
REMARK       I    between atoms: N_9  and  C_10 
REMARK    3  A    between atoms: C_10  and  C_11 
REMARK    4  A    between atoms: C_11  and  C_12 
REMARK    5  A    between atoms: C_12  and  C_13 
REMARK    6  A    between atoms: C_13  and  O_14 
REMARK    7  A    between atoms: O_14  and  C_15 
ROOT
HETATM    1  N   UNL     1      43.666 -11.781   8.129  1.00  0.00    -0.267 N 
HETATM    2  C   UNL     1      43.554 -11.881   6.756  1.00  0.00     0.236 C 
HETATM    3  O   UNL     1      43.038 -11.016   6.055  1.00  0.00    -0.272 OA
HETATM    4  H   UNL     1      44.249 -12.409   8.681  1.00  0.00     0.190 HD
ENDROOT
BRANCH   2   5
HETATM    5  C   UNL     1      44.106 -13.188   6.224  1.00  0.00     0.107 C 
BRANCH   5   6
HETATM    6  C   UNL     1      43.435 -14.426   6.810  1.00  0.00     0.036 C 
BRANCH   6   7
HETATM    7  C   UNL     1      44.247 -15.703   6.586  1.00  0.00     0.176 C 
BRANCH   7   8
HETATM    8  O   UNL     1      43.323 -16.758   6.334  1.00  0.00    -0.349 OA
BRANCH   8   9
HETATM    9  C   UNL     1      43.422 -17.495   5.187  1.00  0.00     0.090 A 
HETATM   10  C   UNL     1      43.231 -17.117   3.849  1.00  0.00     0.069 A 
HETATM   11 CL   UNL     1      42.836 -15.522   3.315  1.00  0.00    -0.081 Cl
HETATM   12  C   UNL     1      43.414 -18.058   2.822  1.00  0.00     0.050 A 
HETATM   13  C   UNL     1      43.800 -19.362   3.119  1.00  0.00     0.035 A 
HETATM   14 CL   UNL     1      44.035 -20.497   1.848  1.00  0.00    -0.084 Cl
HETATM   15  C   UNL     1      44.009 -19.747   4.436  1.00  0.00     0.026 A 
HETATM   16  C   UNL     1      43.822 -18.815   5.458  1.00  0.00     0.040 A 
ENDBRANCH   8   9
ENDBRANCH   7   8
ENDBRANCH   6   7
ENDBRANCH   5   6
ENDBRANCH   2   5
BRANCH   1  17
HETATM   17  N   UNL     1      43.302 -10.582   8.743  1.00  0.00    -0.262 N 
HETATM   18  C   UNL     1      43.717 -10.322  10.033  1.00  0.00     0.290 C 
HETATM   19  O   UNL     1      44.351 -11.136  10.707  1.00  0.00    -0.264 OA
HETATM   20  H   UNL     1      42.862  -9.848   8.186  1.00  0.00     0.190 HD
BRANCH  18  21
HETATM   21  C   UNL     1      43.330  -8.992  10.519  1.00  0.00     0.147 A 
HETATM   22  N   UNL     1      43.089  -8.745  11.823  1.00  0.00    -0.169 NA
HETATM   23  N   UNL     1      42.781  -7.438  11.860  1.00  0.00    -0.282 N 
HETATM   24  C   UNL     1      42.812  -6.829  10.637  1.00  0.00     0.026 A 
HETATM   25  H   UNL     1      42.561  -7.023  12.760  1.00  0.00     0.189 HD
HETATM   26  C   UNL     1      42.511  -5.394  10.447  1.00  0.00     0.070 C 
HETATM   27  C   UNL     1      43.161  -7.816   9.743  1.00  0.00     0.065 A 
ENDBRANCH  18  21
ENDBRANCH   1  17
TORSDOF 7
ENDMDL
MODEL 8
REMARK VINA RESULT:      -6.5      6.710      9.867
REMARK  7 active torsions:
REMARK  status: ('A' for Active; 'I' for Inactive)
REMARK    1  A    between atoms: C_6  and  C_7 
REMARK       I    between atoms: C_7  and  N_8 
REMARK    2  A    between atoms: N_8  and  N_9 
REMARK       I    between atoms: N_9  and  C_10 
REMARK    3  A    between atoms: C_10  and  C_11 
REMARK    4  A    between atoms: C_11  and  C_12 
REMARK    5  A    between atoms: C_12  and  C_13 
REMARK    6  A    between atoms: C_13  and  O_14 
REMARK    7  A    between atoms: O_14  and  C_15 
ROOT
HETATM    1  N   UNL     1      43.048 -13.053   7.215  1.00  0.00    -0.267 N 
HETATM    2  C   UNL     1      44.038 -12.089   7.197  1.00  0.00     0.236 C 
HETATM    3  O   UNL     1      45.165 -12.285   6.753  1.00  0.00    -0.272 OA
HETATM    4  H   UNL     1      42.073 -12.837   7.414  1.00  0.00     0.190 HD
ENDROOT
BRANCH   2   5
HETATM    5  C   UNL     1      43.584 -10.783   7.816  1.00  0.00     0.107 C 
BRANCH   5   6
HETATM    6  C   UNL     1      44.572 -10.200   8.821  1.00  0.00     0.036 C 
BRANCH   6   7
HETATM    7  C   UNL     1      44.024  -8.969   9.547  1.00  0.00     0.176 C 
BRANCH   7   8
HETATM    8  O   UNL     1      42.687  -9.265   9.940  1.00  0.00    -0.349 OA
BRANCH   8   9
HETATM    9  C   UNL     1      42.280  -9.020  11.221  1.00  0.00     0.090 A 
HETATM   10  C   UNL     1      41.053  -9.287  11.848  1.00  0.00     0.069 A 
HETATM   11 CL   UNL     1      39.705 -10.068  11.100  1.00  0.00    -0.081 Cl
HETATM   12  C   UNL     1      40.872  -8.961  13.203  1.00  0.00     0.050 A 
HETATM   13  C   UNL     1      41.907  -8.388  13.936  1.00  0.00     0.035 A 
HETATM   14 CL   UNL     1      41.673  -8.010  15.598  1.00  0.00    -0.084 Cl
HETATM   15  C   UNL     1      43.132  -8.133  13.335  1.00  0.00     0.026 A 
HETATM   16  C   UNL     1      43.312  -8.451  11.988  1.00  0.00     0.040 A 
ENDBRANCH   8   9
ENDBRANCH   7   8
ENDBRANCH   6   7
ENDBRANCH   5   6
ENDBRANCH   2   5
BRANCH   1  17
HETATM   17  N   UNL     1      43.290 -14.269   6.575  1.00  0.00    -0.262 N 
HETATM   18  C   UNL     1      43.309 -15.437   7.310  1.00  0.00     0.290 C 
HETATM   19  O   UNL     1      43.184 -15.455   8.535  1.00  0.00    -0.264 OA
HETATM   20  H   UNL     1      43.301 -14.304   5.554  1.00  0.00     0.190 HD
BRANCH  18  21
HETATM   21  C   UNL     1      43.491 -16.643   6.494  1.00  0.00     0.147 A 
HETATM   22  N   UNL     1      43.295 -17.882   6.991  1.00  0.00    -0.169 NA
HETATM   23  N   UNL     1      43.548 -18.697   5.953  1.00  0.00    -0.282 N 
HETATM   24  C   UNL     1      43.901 -18.039   4.808  1.00  0.00     0.026 A 
HETATM   25  H   UNL     1      43.459 -19.698   6.096  1.00  0.00     0.189 HD
HETATM   26  C   UNL     1      44.218 -18.739   3.545  1.00  0.00     0.070 C 
HETATM   27  C   UNL     1      43.878 -16.701   5.131  1.00  0.00     0.065 A 
ENDBRANCH  18  21
ENDBRANCH   1  17
TORSDOF 7
ENDMDL
MODEL 9
REMARK VINA RESULT:      -6.5      5.581      8.173
REMARK  7 active torsions:
REMARK  status: ('A' for Active; 'I' for Inactive)
REMARK    1  A    between atoms: C_6  and  C_7 
REMARK       I    between atoms: C_7  and  N_8 
REMARK    2  A    between atoms: N_8  and  N_9 
REMARK       I    between atoms: N_9  and  C_10 
REMARK    3  A    between atoms: C_10  and  C_11 
REMARK    4  A    between atoms: C_11  and  C_12 
REMARK    5  A    between atoms: C_12  and  C_13 
REMARK    6  A    between atoms: C_13  and  O_14 
REMARK    7  A    between atoms: O_14  and  C_15 
ROOT
HETATM    1  N   UNL     1      43.107 -10.795   7.965  1.00  0.00    -0.267 N 
HETATM    2  C   UNL     1      42.297 -10.698   6.851  1.00  0.00     0.236 C 
HETATM    3  O   UNL     1      41.191 -10.167   6.863  1.00  0.00    -0.272 OA
HETATM    4  H   UNL     1      44.086 -11.071   7.911  1.00  0.00     0.190 HD
ENDROOT
BRANCH   2   5
HETATM    5  C   UNL     1      42.913 -11.348   5.629  1.00  0.00     0.107 C 
BRANCH   5   6
HETATM    6  C   UNL     1      43.588 -12.685   5.916  1.00  0.00     0.036 C 
BRANCH   6   7
HETATM    7  C   UNL     1      42.711 -13.884   5.548  1.00  0.00     0.176 C 
BRANCH   7   8
HETATM    8  O   UNL     1      42.943 -14.177   4.173  1.00  0.00    -0.349 OA
BRANCH   8   9
HETATM    9  C   UNL     1      43.043 -15.475   3.757  1.00  0.00     0.090 A 
HETATM   10  C   UNL     1      42.653 -16.070   2.547  1.00  0.00     0.069 A 
HETATM   11 CL   UNL     1      41.942 -15.232   1.213  1.00  0.00    -0.081 Cl
HETATM   12  C   UNL     1      42.883 -17.439   2.334  1.00  0.00     0.050 A 
HETATM   13  C   UNL     1      43.511 -18.211   3.307  1.00  0.00     0.035 A 
HETATM   14 CL   UNL     1      43.799 -19.882   3.022  1.00  0.00    -0.084 Cl
HETATM   15  C   UNL     1      43.917 -17.634   4.502  1.00  0.00     0.026 A 
HETATM   16  C   UNL     1      43.685 -16.275   4.719  1.00  0.00     0.040 A 
ENDBRANCH   8   9
ENDBRANCH   7   8
ENDBRANCH   6   7
ENDBRANCH   5   6
ENDBRANCH   2   5
BRANCH   1  17
HETATM   17  N   UNL     1      42.716 -10.140   9.134  1.00  0.00    -0.262 N 
HETATM   18  C   UNL     1      43.405 -10.368  10.308  1.00  0.00     0.290 C 
HETATM   19  O   UNL     1      44.324 -11.183  10.394  1.00  0.00    -0.264 OA
HETATM   20  H   UNL     1      42.025  -9.390   9.080  1.00  0.00     0.190 HD
BRANCH  18  21
HETATM   21  C   UNL     1      42.936  -9.550  11.434  1.00  0.00     0.147 A 
HETATM   22  N   UNL     1      41.710  -9.707  11.974  1.00  0.00    -0.169 NA
HETATM   23  N   UNL     1      41.668  -8.799  12.964  1.00  0.00    -0.282 N 
HETATM   24  C   UNL     1      42.813  -8.062  13.087  1.00  0.00     0.026 A 
HETATM   25  H   UNL     1      40.822  -8.737  13.522  1.00  0.00     0.189 HD
HETATM   26  C   UNL     1      42.986  -7.012  14.113  1.00  0.00     0.070 C 
HETATM   27  C   UNL     1      43.655  -8.525  12.101  1.00  0.00     0.065 A 
ENDBRANCH  18  21
ENDBRANCH   1  17
TORSDOF 7
ENDMDL
MODEL 10
REMARK VINA RESULT:      -6.4      7.133      9.770
REMARK  7 active torsions:
REMARK  status: ('A' for Active; 'I' for Inactive)
REMARK    1  A    between atoms: C_6  and  C_7 
REMARK       I    between atoms: C_7  and  N_8 
REMARK    2  A    between atoms: N_8  and  N_9 
REMARK       I    between atoms: N_9  and  C_10 
REMARK    3  A    between atoms: C_10  and  C_11 
REMARK    4  A    between atoms: C_11  and  C_12 
REMARK    5  A    between atoms: C_12  and  C_13 
REMARK    6  A    between atoms: C_13  and  O_14 
REMARK    7  A    between atoms: O_14  and  C_15 
ROOT
HETATM    1  N   UNL     1      43.577 -12.719   7.523  1.00  0.00    -0.267 N 
HETATM    2  C   UNL     1      44.315 -11.552   7.549  1.00  0.00     0.236 C 
HETATM    3  O   UNL     1      45.149 -11.260   6.697  1.00  0.00    -0.272 OA
HETATM    4  H   UNL     1      42.768 -12.872   8.123  1.00  0.00     0.190 HD
ENDROOT
BRANCH   2   5
HETATM    5  C   UNL     1      44.004 -10.697   8.760  1.00  0.00     0.107 C 
BRANCH   5   6
HETATM    6  C   UNL     1      42.826  -9.749   8.559  1.00  0.00     0.036 C 
BRANCH   6   7
HETATM    7  C   UNL     1      42.583  -8.840   9.766  1.00  0.00     0.176 C 
BRANCH   7   8
HETATM    8  O   UNL     1      42.290  -9.679  10.880  1.00  0.00    -0.349 OA
BRANCH   8   9
HETATM    9  C   UNL     1      42.154  -9.137  12.127  1.00  0.00     0.090 A 
HETATM   10  C   UNL     1      41.217  -9.412  13.136  1.00  0.00     0.069 A 
HETATM   11 CL   UNL     1      39.964 -10.598  13.031  1.00  0.00    -0.081 Cl
HETATM   12  C   UNL     1      41.292  -8.735  14.364  1.00  0.00     0.050 A 
HETATM   13  C   UNL     1      42.298  -7.803  14.598  1.00  0.00     0.035 A 
HETATM   14 CL   UNL     1      42.384  -6.995  16.114  1.00  0.00    -0.084 Cl
HETATM   15  C   UNL     1      43.242  -7.532  13.617  1.00  0.00     0.026 A 
HETATM   16  C   UNL     1      43.167  -8.200  12.394  1.00  0.00     0.040 A 
ENDBRANCH   8   9
ENDBRANCH   7   8
ENDBRANCH   6   7
ENDBRANCH   5   6
ENDBRANCH   2   5
BRANCH   1  17
HETATM   17  N   UNL     1      43.678 -13.549   6.405  1.00  0.00    -0.262 N 
HETATM   18  C   UNL     1      42.543 -14.134   5.883  1.00  0.00     0.290 C 
HETATM   19  O   UNL     1      41.432 -14.010   6.400  1.00  0.00    -0.264 OA
HETATM   20  H   UNL     1      44.562 -13.597   5.896  1.00  0.00     0.190 HD
BRANCH  18  21
HETATM   21  C   UNL     1      42.788 -14.911   4.663  1.00  0.00     0.147 A 
HETATM   22  N   UNL     1      43.033 -14.323   3.474  1.00  0.00    -0.169 NA
HETATM   23  N   UNL     1      43.212 -15.352   2.627  1.00  0.00    -0.282 N 
HETATM   24  C   UNL     1      43.092 -16.579   3.217  1.00  0.00     0.026 A 
HETATM   25  H   UNL     1      43.415 -15.143   1.655  1.00  0.00     0.189 HD
HETATM   26  C   UNL     1      43.254 -17.847   2.474  1.00  0.00     0.070 C 
HETATM   27  C   UNL     1      42.811 -16.325   4.541  1.00  0.00     0.065 A 
ENDBRANCH  18  21
ENDBRANCH   1  17
TORSDOF 7
ENDMDL
