MODEL 1
REMARK VINA RESULT:      -9.2      0.000      0.000
REMARK  8 active torsions:
REMARK  status: ('A' for Active; 'I' for Inactive)
REMARK    1  A    between atoms: C_4  and  N_5 
REMARK       I    between atoms: N_5  and  C_6 
REMARK       I    between atoms: C_6  and  N_7 
REMARK    2  A    between atoms: N_7  and  C_8 
REMARK    3  A    between atoms: C_8  and  C_9 
REMARK    4  A    between atoms: C_9  and  C_10 
REMARK    5  A    between atoms: C_14  and  O_15 
REMARK       I    between atoms: N_22  and  C_23 
REMARK    6  A    between atoms: C_23  and  C_24 
REMARK    7  A    between atoms: C_24  and  N_25 
REMARK    8  A    between atoms: N_29  and  C_30 
ROOT
HETATM    1  N   UNL     1      43.128 -11.604   3.257  1.00  0.00    -0.017 N 
HETATM    2  C   UNL     1      42.171 -10.676   2.979  1.00  0.00     0.718 C 
HETATM    3  N   UNL     1      41.765 -10.708   1.667  1.00  0.00    -0.223 N 
HETATM    4  N   UNL     1      41.737  -9.841   3.871  1.00  0.00    -0.026 NA
HETATM    5  C   UNL     1      40.793  -8.900   3.598  1.00  0.00     0.286 C 
HETATM    6  O   UNL     1      40.268  -8.649   2.512  1.00  0.00    -0.269 OA
HETATM    7  H   UNL     1      43.861 -11.725   2.576  1.00  0.00     0.203 HD
HETATM    8  H   UNL     1      40.985 -10.074   1.480  1.00  0.00     0.177 HD
ENDROOT
BRANCH   1   9
HETATM    9  C   UNL     1      43.614 -11.935   4.517  1.00  0.00     0.741 A 
HETATM   10  N   UNL     1      44.563 -11.191   5.116  1.00  0.00    -0.067 NA
HETATM   11  C   UNL     1      44.930 -11.535   6.368  1.00  0.00     0.051 A 
HETATM   12  C   UNL     1      45.971 -10.690   7.037  1.00  0.00     0.071 C 
HETATM   13  C   UNL     1      44.385 -12.617   7.026  1.00  0.00     0.054 A 
HETATM   14  C   UNL     1      43.417 -13.323   6.347  1.00  0.00     0.051 A 
HETATM   15  N   UNL     1      43.017 -12.985   5.102  1.00  0.00    -0.067 NA
HETATM   16  C   UNL     1      42.779 -14.528   6.971  1.00  0.00     0.071 C 
ENDBRANCH   1   9
BRANCH   3  17
HETATM   17  C   UNL     1      41.660 -11.923   0.857  1.00  0.00     0.142 C 
BRANCH  17  18
HETATM   18  C   UNL     1      40.403 -12.749   1.167  1.00  0.00     0.061 C 
BRANCH  18  19
HETATM   19  C   UNL     1      40.581 -13.717   2.298  1.00  0.00    -0.029 A 
HETATM   20  C   UNL     1      41.472 -14.837   2.340  1.00  0.00    -0.002 A 
HETATM   21  C   UNL     1      41.309 -15.454   3.579  1.00  0.00     0.045 A 
HETATM   22  C   UNL     1      42.404 -15.388   1.435  1.00  0.00     0.017 A 
HETATM   23  C   UNL     1      42.045 -16.582   3.964  1.00  0.00     0.067 A 
HETATM   24  N   UNL     1      40.328 -14.764   4.252  1.00  0.00    -0.365 N 
HETATM   25  C   UNL     1      42.966 -17.110   3.052  1.00  0.00     0.070 A 
HETATM   26  C   UNL     1      43.142 -16.523   1.800  1.00  0.00     0.038 A 
HETATM   27  H   UNL     1      39.971 -15.010   5.166  1.00  0.00     0.165 HD
HETATM   28  C   UNL     1      39.891 -13.710   3.495  1.00  0.00     0.096 A 
BRANCH  25  29
HETATM   29  O   UNL     1      43.699 -18.165   3.529  1.00  0.00    -0.356 OA
HETATM   30  C   UNL     1      43.986 -18.141   4.925  1.00  0.00     0.210 C 
ENDBRANCH  25  29
ENDBRANCH  18  19
ENDBRANCH  17  18
ENDBRANCH   3  17
BRANCH   5  31
HETATM   31  C   UNL     1      40.436  -8.066   4.830  1.00  0.00     0.340 C 
BRANCH  31  32
HETATM   32  N   UNL     1      40.880  -8.716   6.147  1.00  0.00    -0.060 N 
HETATM   33  H   UNL     1      41.303  -9.620   5.886  1.00  0.00     0.280 HD
HETATM   34  C   UNL     1      41.985  -7.906   6.821  1.00  0.00     0.255 C 
HETATM   35  C   UNL     1      42.406  -8.538   8.163  1.00  0.00     0.150 C 
HETATM   36  N   UNL     1      41.219  -8.756   9.023  1.00  0.00    -0.378 N 
HETATM   37  C   UNL     1      40.174  -9.591   8.403  1.00  0.00     0.150 C 
HETATM   38  C   UNL     1      39.708  -8.955   7.080  1.00  0.00     0.255 C 
BRANCH  36  39
HETATM   39  C   UNL     1      41.520  -8.970  10.376  1.00  0.00     0.030 A 
HETATM   40  C   UNL     1      42.783  -8.591  10.870  1.00  0.00     0.032 A 
HETATM   41  C   UNL     1      43.125  -8.756  12.215  1.00  0.00     0.044 A 
HETATM   42  C   UNL     1      42.200  -9.302  13.090  1.00  0.00     0.116 A 
HETATM   43  F   UNL     1      42.520  -9.459  14.381  1.00  0.00    -0.206 F 
HETATM   44  C   UNL     1      40.944  -9.682  12.643  1.00  0.00     0.044 A 
HETATM   45  C   UNL     1      40.606  -9.513  11.295  1.00  0.00     0.032 A 
ENDBRANCH  36  39
ENDBRANCH  31  32
ENDBRANCH   5  31
TORSDOF 8
ENDMDL
MODEL 2
REMARK VINA RESULT:      -9.1      3.889     10.078
REMARK  8 active torsions:
REMARK  status: ('A' for Active; 'I' for Inactive)
REMARK    1  A    between atoms: C_4  and  N_5 
REMARK       I    between atoms: N_5  and  C_6 
REMARK       I    between atoms: C_6  and  N_7 
REMARK    2  A    between atoms: N_7  and  C_8 
REMARK    3  A    between atoms: C_8  and  C_9 
REMARK    4  A    between atoms: C_9  and  C_10 
REMARK    5  A    between atoms: C_14  and  O_15 
REMARK       I    between atoms: N_22  and  C_23 
REMARK    6  A    between atoms: C_23  and  C_24 
REMARK    7  A    between atoms: C_24  and  N_25 
REMARK    8  A    between atoms: N_29  and  C_30 
ROOT
HETATM    1  N   UNL     1      42.901  -8.182   7.965  1.00  0.00    -0.017 N 
HETATM    2  C   UNL     1      43.481  -9.383   7.683  1.00  0.00     0.718 C 
HETATM    3  N   UNL     1      44.795  -9.443   8.077  1.00  0.00    -0.223 N 
HETATM    4  N   UNL     1      42.842 -10.333   7.075  1.00  0.00    -0.026 NA
HETATM    5  C   UNL     1      43.419 -11.529   6.775  1.00  0.00     0.286 C 
HETATM    6  O   UNL     1      44.588 -11.871   6.958  1.00  0.00    -0.269 OA
HETATM    7  H   UNL     1      43.449  -7.356   7.786  1.00  0.00     0.203 HD
HETATM    8  H   UNL     1      45.204 -10.371   7.948  1.00  0.00     0.177 HD
ENDROOT
BRANCH   1   9
HETATM    9  C   UNL     1      41.551  -7.872   7.848  1.00  0.00     0.741 A 
HETATM   10  N   UNL     1      41.050  -7.351   6.713  1.00  0.00    -0.067 NA
HETATM   11  C   UNL     1      39.718  -7.145   6.652  1.00  0.00     0.051 A 
HETATM   12  C   UNL     1      39.164  -6.586   5.378  1.00  0.00     0.071 C 
HETATM   13  C   UNL     1      38.879  -7.429   7.709  1.00  0.00     0.054 A 
HETATM   14  C   UNL     1      39.469  -7.964   8.833  1.00  0.00     0.051 A 
HETATM   15  N   UNL     1      40.795  -8.200   8.908  1.00  0.00    -0.067 NA
HETATM   16  C   UNL     1      38.642  -8.287  10.041  1.00  0.00     0.071 C 
ENDBRANCH   1   9
BRANCH   3  17
HETATM   17  C   UNL     1      45.338  -8.792   9.271  1.00  0.00     0.142 C 
BRANCH  17  18
HETATM   18  C   UNL     1      45.461  -9.741  10.472  1.00  0.00     0.061 C 
BRANCH  18  19
HETATM   19  C   UNL     1      44.179  -9.927  11.227  1.00  0.00    -0.029 A 
HETATM   20  C   UNL     1      43.251  -8.907  11.612  1.00  0.00    -0.002 A 
HETATM   21  C   UNL     1      42.205  -9.529  12.292  1.00  0.00     0.045 A 
HETATM   22  C   UNL     1      43.205  -7.506  11.450  1.00  0.00     0.017 A 
HETATM   23  C   UNL     1      41.107  -8.822  12.798  1.00  0.00     0.067 A 
HETATM   24  N   UNL     1      42.501 -10.870  12.354  1.00  0.00    -0.365 N 
HETATM   25  C   UNL     1      41.079  -7.434  12.622  1.00  0.00     0.070 A 
HETATM   26  C   UNL     1      42.118  -6.781  11.959  1.00  0.00     0.038 A 
HETATM   27  H   UNL     1      41.936 -11.566  12.825  1.00  0.00     0.165 HD
HETATM   28  C   UNL     1      43.680 -11.123  11.708  1.00  0.00     0.096 A 
BRANCH  25  29
HETATM   29  O   UNL     1      39.940  -6.824  13.078  1.00  0.00    -0.356 OA
HETATM   30  C   UNL     1      40.110  -5.928  14.173  1.00  0.00     0.210 C 
ENDBRANCH  25  29
ENDBRANCH  18  19
ENDBRANCH  17  18
ENDBRANCH   3  17
BRANCH   5  31
HETATM   31  C   UNL     1      42.441 -12.483   6.087  1.00  0.00     0.340 C 
BRANCH  31  32
HETATM   32  N   UNL     1      43.128 -13.708   5.469  1.00  0.00    -0.060 N 
HETATM   33  H   UNL     1      44.098 -13.418   5.275  1.00  0.00     0.280 HD
HETATM   34  C   UNL     1      43.217 -14.858   6.470  1.00  0.00     0.255 C 
HETATM   35  C   UNL     1      43.874 -16.102   5.840  1.00  0.00     0.150 C 
HETATM   36  N   UNL     1      43.183 -16.464   4.579  1.00  0.00    -0.378 N 
HETATM   37  C   UNL     1      43.150 -15.379   3.582  1.00  0.00     0.150 C 
HETATM   38  C   UNL     1      42.458 -14.138   4.178  1.00  0.00     0.255 C 
BRANCH  36  39
HETATM   39  C   UNL     1      43.450 -17.766   4.130  1.00  0.00     0.030 A 
HETATM   40  C   UNL     1      43.917 -18.729   5.046  1.00  0.00     0.032 A 
HETATM   41  C   UNL     1      44.171 -20.047   4.658  1.00  0.00     0.044 A 
HETATM   42  C   UNL     1      43.955 -20.424   3.342  1.00  0.00     0.116 A 
HETATM   43  F   UNL     1      44.193 -21.686   2.965  1.00  0.00    -0.206 F 
HETATM   44  C   UNL     1      43.489 -19.506   2.413  1.00  0.00     0.044 A 
HETATM   45  C   UNL     1      43.235 -18.187   2.807  1.00  0.00     0.032 A 
ENDBRANCH  36  39
ENDBRANCH  31  32
ENDBRANCH   5  31
TORSDOF 8
ENDMDL
MODEL 3
REMARK VINA RESULT:      -8.9      3.846      9.536
REMARK  8 active torsions:
REMARK  status: ('A' for Active; 'I' for Inactive)
REMARK    1  A    between atoms: C_4  and  N_5 
REMARK       I    between atoms: N_5  and  C_6 
REMARK       I    between atoms: C_6  and  N_7 
REMARK    2  A    between atoms: N_7  and  C_8 
REMARK    3  A    between atoms: C_8  and  C_9 
REMARK    4  A    between atoms: C_9  and  C_10 
REMARK    5  A    between atoms: C_14  and  O_15 
REMARK       I    between atoms: N_22  and  C_23 
REMARK    6  A    between atoms: C_23  and  C_24 
REMARK    7  A    between atoms: C_24  and  N_25 
REMARK    8  A    between atoms: N_29  and  C_30 
ROOT
HETATM    1  N   UNL     1      41.720  -9.753   8.337  1.00  0.00    -0.017 N 
HETATM    2  C   UNL     1      40.596  -9.736   7.568  1.00  0.00     0.718 C 
HETATM    3  N   UNL     1      39.553  -9.076   8.169  1.00  0.00    -0.223 N 
HETATM    4  N   UNL     1      40.539 -10.323   6.414  1.00  0.00    -0.026 NA
HETATM    5  C   UNL     1      39.414 -10.325   5.647  1.00  0.00     0.286 C 
HETATM    6  O   UNL     1      38.308  -9.858   5.926  1.00  0.00    -0.269 OA
HETATM    7  H   UNL     1      41.600  -9.930   9.321  1.00  0.00     0.203 HD
HETATM    8  H   UNL     1      38.739  -8.985   7.558  1.00  0.00     0.177 HD
ENDROOT
BRANCH   1   9
HETATM    9  C   UNL     1      42.981 -10.189   7.943  1.00  0.00     0.741 A 
HETATM   10  N   UNL     1      44.077  -9.437   8.156  1.00  0.00    -0.067 NA
HETATM   11  C   UNL     1      45.272  -9.960   7.810  1.00  0.00     0.051 A 
HETATM   12  C   UNL     1      46.489  -9.127   8.070  1.00  0.00     0.071 C 
HETATM   13  C   UNL     1      45.393 -11.209   7.238  1.00  0.00     0.054 A 
HETATM   14  C   UNL     1      44.225 -11.916   7.058  1.00  0.00     0.051 A 
HETATM   15  N   UNL     1      43.021 -11.423   7.416  1.00  0.00    -0.067 NA
HETATM   16  C   UNL     1      44.252 -13.275   6.425  1.00  0.00     0.071 C 
ENDBRANCH   1   9
BRANCH   3  17
HETATM   17  C   UNL     1      39.696  -7.899   9.029  1.00  0.00     0.142 C 
BRANCH  17  18
HETATM   18  C   UNL     1      38.861  -7.985  10.315  1.00  0.00     0.061 C 
BRANCH  18  19
HETATM   19  C   UNL     1      39.558  -8.686  11.442  1.00  0.00    -0.029 A 
HETATM   20  C   UNL     1      40.089  -8.088  12.630  1.00  0.00    -0.002 A 
HETATM   21  C   UNL     1      40.646  -9.109  13.398  1.00  0.00     0.045 A 
HETATM   22  C   UNL     1      40.151  -6.768  13.125  1.00  0.00     0.017 A 
HETATM   23  C   UNL     1      41.242  -8.877  14.644  1.00  0.00     0.067 A 
HETATM   24  N   UNL     1      40.497 -10.278  12.690  1.00  0.00    -0.365 N 
HETATM   25  C   UNL     1      41.290  -7.561  15.117  1.00  0.00     0.070 A 
HETATM   26  C   UNL     1      40.754  -6.516  14.365  1.00  0.00     0.038 A 
HETATM   27  H   UNL     1      40.843 -11.182  12.987  1.00  0.00     0.165 HD
HETATM   28  C   UNL     1      39.835 -10.037  11.517  1.00  0.00     0.096 A 
BRANCH  25  29
HETATM   29  O   UNL     1      41.821  -7.425  16.373  1.00  0.00    -0.356 OA
HETATM   30  C   UNL     1      40.933  -7.693  17.455  1.00  0.00     0.210 C 
ENDBRANCH  25  29
ENDBRANCH  18  19
ENDBRANCH  17  18
ENDBRANCH   3  17
BRANCH   5  31
HETATM   31  C   UNL     1      39.622 -11.058   4.320  1.00  0.00     0.340 C 
BRANCH  31  32
HETATM   32  N   UNL     1      40.674 -12.171   4.405  1.00  0.00    -0.060 N 
HETATM   33  H   UNL     1      41.384 -11.837   5.075  1.00  0.00     0.280 HD
HETATM   34  C   UNL     1      40.086 -13.445   5.007  1.00  0.00     0.255 C 
HETATM   35  C   UNL     1      41.131 -14.577   5.059  1.00  0.00     0.150 C 
HETATM   36  N   UNL     1      41.739 -14.776   3.721  1.00  0.00    -0.378 N 
HETATM   37  C   UNL     1      42.366 -13.565   3.161  1.00  0.00     0.150 C 
HETATM   38  C   UNL     1      41.326 -12.433   3.061  1.00  0.00     0.255 C 
BRANCH  36  39
HETATM   39  C   UNL     1      42.412 -15.998   3.571  1.00  0.00     0.030 A 
HETATM   40  C   UNL     1      43.153 -16.515   4.651  1.00  0.00     0.032 A 
HETATM   41  C   UNL     1      43.818 -17.741   4.565  1.00  0.00     0.044 A 
HETATM   42  C   UNL     1      43.746 -18.473   3.391  1.00  0.00     0.116 A 
HETATM   43  F   UNL     1      44.378 -19.650   3.303  1.00  0.00    -0.206 F 
HETATM   44  C   UNL     1      43.021 -18.001   2.308  1.00  0.00     0.044 A 
HETATM   45  C   UNL     1      42.356 -16.773   2.400  1.00  0.00     0.032 A 
ENDBRANCH  36  39
ENDBRANCH  31  32
ENDBRANCH   5  31
TORSDOF 8
ENDMDL
MODEL 4
REMARK VINA RESULT:      -8.9      2.956      5.658
REMARK  8 active torsions:
REMARK  status: ('A' for Active; 'I' for Inactive)
REMARK    1  A    between atoms: C_4  and  N_5 
REMARK       I    between atoms: N_5  and  C_6 
REMARK       I    between atoms: C_6  and  N_7 
REMARK    2  A    between atoms: N_7  and  C_8 
REMARK    3  A    between atoms: C_8  and  C_9 
REMARK    4  A    between atoms: C_9  and  C_10 
REMARK    5  A    between atoms: C_14  and  O_15 
REMARK       I    between atoms: N_22  and  C_23 
REMARK    6  A    between atoms: C_23  and  C_24 
REMARK    7  A    between atoms: C_24  and  N_25 
REMARK    8  A    between atoms: N_29  and  C_30 
ROOT
HETATM    1  N   UNL     1      39.110 -13.373  -0.286  1.00  0.00    -0.017 N 
HETATM    2  C   UNL     1      39.209 -13.207   1.063  1.00  0.00     0.718 C 
HETATM    3  N   UNL     1      39.578 -14.359   1.713  1.00  0.00    -0.223 N 
HETATM    4  N   UNL     1      38.941 -12.079   1.642  1.00  0.00    -0.026 NA
HETATM    5  C   UNL     1      39.021 -11.909   2.990  1.00  0.00     0.286 C 
HETATM    6  O   UNL     1      39.282 -12.758   3.845  1.00  0.00    -0.269 OA
HETATM    7  H   UNL     1      38.671 -14.218  -0.613  1.00  0.00     0.203 HD
HETATM    8  H   UNL     1      39.740 -14.213   2.712  1.00  0.00     0.177 HD
ENDROOT
BRANCH   1   9
HETATM    9  C   UNL     1      38.925 -12.366  -1.228  1.00  0.00     0.741 A 
HETATM   10  N   UNL     1      39.970 -11.690  -1.740  1.00  0.00    -0.067 NA
HETATM   11  C   UNL     1      39.715 -10.779  -2.702  1.00  0.00     0.051 A 
HETATM   12  C   UNL     1      40.885 -10.046  -3.284  1.00  0.00     0.071 C 
HETATM   13  C   UNL     1      38.438 -10.515  -3.149  1.00  0.00     0.054 A 
HETATM   14  C   UNL     1      37.425 -11.252  -2.577  1.00  0.00     0.051 A 
HETATM   15  N   UNL     1      37.657 -12.185  -1.630  1.00  0.00    -0.067 NA
HETATM   16  C   UNL     1      35.999 -11.022  -2.983  1.00  0.00     0.071 C 
ENDBRANCH   1   9
BRANCH   3  17
HETATM   17  C   UNL     1      40.499 -15.362   1.173  1.00  0.00     0.142 C 
BRANCH  17  18
HETATM   18  C   UNL     1      41.976 -14.993   1.368  1.00  0.00     0.061 C 
BRANCH  18  19
HETATM   19  C   UNL     1      42.552 -15.475   2.666  1.00  0.00    -0.029 A 
HETATM   20  C   UNL     1      43.036 -16.791   2.958  1.00  0.00    -0.002 A 
HETATM   21  C   UNL     1      43.479 -16.789   4.279  1.00  0.00     0.045 A 
HETATM   22  C   UNL     1      43.134 -17.989   2.220  1.00  0.00     0.017 A 
HETATM   23  C   UNL     1      44.035 -17.920   4.891  1.00  0.00     0.067 A 
HETATM   24  N   UNL     1      43.240 -15.534   4.787  1.00  0.00    -0.365 N 
HETATM   25  C   UNL     1      44.126 -19.097   4.139  1.00  0.00     0.070 A 
HETATM   26  C   UNL     1      43.678 -19.134   2.819  1.00  0.00     0.038 A 
HETATM   27  H   UNL     1      43.427 -15.251   5.741  1.00  0.00     0.165 HD
HETATM   28  C   UNL     1      42.693 -14.732   3.823  1.00  0.00     0.096 A 
BRANCH  25  29
HETATM   29  O   UNL     1      44.748 -20.137   4.781  1.00  0.00    -0.356 OA
HETATM   30  C   UNL     1      43.905 -20.971   5.571  1.00  0.00     0.210 C 
ENDBRANCH  25  29
ENDBRANCH  18  19
ENDBRANCH  17  18
ENDBRANCH   3  17
BRANCH   5  31
HETATM   31  C   UNL     1      38.685 -10.478   3.413  1.00  0.00     0.340 C 
BRANCH  31  32
HETATM   32  N   UNL     1      39.764  -9.840   4.295  1.00  0.00    -0.060 N 
HETATM   33  H   UNL     1      39.698  -8.824   4.130  1.00  0.00     0.280 HD
HETATM   34  C   UNL     1      39.466 -10.052   5.778  1.00  0.00     0.255 C 
HETATM   35  C   UNL     1      40.570  -9.442   6.666  1.00  0.00     0.150 C 
HETATM   36  N   UNL     1      41.900  -9.945   6.249  1.00  0.00    -0.378 N 
HETATM   37  C   UNL     1      42.222  -9.687   4.834  1.00  0.00     0.150 C 
HETATM   38  C   UNL     1      41.153 -10.325   3.926  1.00  0.00     0.255 C 
BRANCH  36  39
HETATM   39  C   UNL     1      42.912  -9.755   7.202  1.00  0.00     0.030 A 
HETATM   40  C   UNL     1      43.903 -10.744   7.362  1.00  0.00     0.032 A 
HETATM   41  C   UNL     1      44.948 -10.592   8.276  1.00  0.00     0.044 A 
HETATM   42  C   UNL     1      45.020  -9.441   9.044  1.00  0.00     0.116 A 
HETATM   43  F   UNL     1      46.022  -9.288   9.919  1.00  0.00    -0.206 F 
HETATM   44  C   UNL     1      44.067  -8.443   8.910  1.00  0.00     0.044 A 
HETATM   45  C   UNL     1      43.022  -8.599   7.992  1.00  0.00     0.032 A 
ENDBRANCH  36  39
ENDBRANCH  31  32
ENDBRANCH   5  31
TORSDOF 8
ENDMDL
MODEL 5
REMARK VINA RESULT:      -8.8      2.286      4.479
REMARK  8 active torsions:
REMARK  status: ('A' for Active; 'I' for Inactive)
REMARK    1  A    between atoms: C_4  and  N_5 
REMARK       I    between atoms: N_5  and  C_6 
REMARK       I    between atoms: C_6  and  N_7 
REMARK    2  A    between atoms: N_7  and  C_8 
REMARK    3  A    between atoms: C_8  and  C_9 
REMARK    4  A    between atoms: C_9  and  C_10 
REMARK    5  A    between atoms: C_14  and  O_15 
REMARK       I    between atoms: N_22  and  C_23 
REMARK    6  A    between atoms: C_23  and  C_24 
REMARK    7  A    between atoms: C_24  and  N_25 
REMARK    8  A    between atoms: N_29  and  C_30 
ROOT
HETATM    1  N   UNL     1      41.156 -11.132   5.816  1.00  0.00    -0.017 N 
HETATM    2  C   UNL     1      42.451 -11.478   6.061  1.00  0.00     0.718 C 
HETATM    3  N   UNL     1      42.887 -12.502   5.257  1.00  0.00    -0.223 N 
HETATM    4  N   UNL     1      43.155 -10.907   6.987  1.00  0.00    -0.026 NA
HETATM    5  C   UNL     1      44.444 -11.258   7.250  1.00  0.00     0.286 C 
HETATM    6  O   UNL     1      45.101 -12.163   6.734  1.00  0.00    -0.269 OA
HETATM    7  H   UNL     1      40.501 -11.883   5.670  1.00  0.00     0.203 HD
HETATM    8  H   UNL     1      43.883 -12.701   5.378  1.00  0.00     0.177 HD
ENDROOT
BRANCH   1   9
HETATM    9  C   UNL     1      40.484 -10.031   6.338  1.00  0.00     0.741 A 
HETATM   10  N   UNL     1      40.123  -9.984   7.633  1.00  0.00    -0.067 NA
HETATM   11  C   UNL     1      39.540  -8.853   8.080  1.00  0.00     0.051 A 
HETATM   12  C   UNL     1      39.160  -8.799   9.528  1.00  0.00     0.071 C 
HETATM   13  C   UNL     1      39.291  -7.776   7.256  1.00  0.00     0.054 A 
HETATM   14  C   UNL     1      39.695  -7.902   5.945  1.00  0.00     0.051 A 
HETATM   15  N   UNL     1      40.301  -9.015   5.481  1.00  0.00    -0.067 NA
HETATM   16  C   UNL     1      39.450  -6.792   4.967  1.00  0.00     0.071 C 
ENDBRANCH   1   9
BRANCH   3  17
HETATM   17  C   UNL     1      42.478 -12.701   3.865  1.00  0.00     0.142 C 
BRANCH  17  18
HETATM   18  C   UNL     1      41.552 -13.910   3.674  1.00  0.00     0.061 C 
BRANCH  18  19
HETATM   19  C   UNL     1      42.218 -15.083   3.020  1.00  0.00    -0.029 A 
HETATM   20  C   UNL     1      42.774 -16.231   3.672  1.00  0.00    -0.002 A 
HETATM   21  C   UNL     1      43.286 -17.067   2.682  1.00  0.00     0.045 A 
HETATM   22  C   UNL     1      42.895 -16.637   5.018  1.00  0.00     0.017 A 
HETATM   23  C   UNL     1      43.893 -18.297   2.970  1.00  0.00     0.067 A 
HETATM   24  N   UNL     1      43.087 -16.438   1.475  1.00  0.00    -0.365 N 
HETATM   25  C   UNL     1      43.998 -18.681   4.311  1.00  0.00     0.070 A 
HETATM   26  C   UNL     1      43.508 -17.859   5.326  1.00  0.00     0.038 A 
HETATM   27  H   UNL     1      43.393 -16.795   0.579  1.00  0.00     0.165 HD
HETATM   28  C   UNL     1      42.436 -15.249   1.666  1.00  0.00     0.096 A 
BRANCH  25  29
HETATM   29  O   UNL     1      44.534 -19.927   4.507  1.00  0.00    -0.356 OA
HETATM   30  C   UNL     1      43.901 -20.725   5.503  1.00  0.00     0.210 C 
ENDBRANCH  25  29
ENDBRANCH  18  19
ENDBRANCH  17  18
ENDBRANCH   3  17
BRANCH   5  31
HETATM   31  C   UNL     1      45.056 -10.410   8.367  1.00  0.00     0.340 C 
BRANCH  31  32
HETATM   32  N   UNL     1      44.045 -10.022   9.452  1.00  0.00    -0.060 N 
HETATM   33  H   UNL     1      43.125 -10.336   9.106  1.00  0.00     0.280 HD
HETATM   34  C   UNL     1      44.298 -10.790  10.748  1.00  0.00     0.255 C 
HETATM   35  C   UNL     1      43.306 -10.374  11.852  1.00  0.00     0.150 C 
HETATM   36  N   UNL     1      43.315  -8.901  12.022  1.00  0.00    -0.378 N 
HETATM   37  C   UNL     1      43.007  -8.153  10.789  1.00  0.00     0.150 C 
HETATM   38  C   UNL     1      44.015  -8.523   9.684  1.00  0.00     0.255 C 
BRANCH  36  39
HETATM   39  C   UNL     1      42.744  -8.457  13.224  1.00  0.00     0.030 A 
HETATM   40  C   UNL     1      43.262  -7.306  13.849  1.00  0.00     0.032 A 
HETATM   41  C   UNL     1      42.713  -6.804  15.032  1.00  0.00     0.044 A 
HETATM   42  C   UNL     1      41.629  -7.448  15.607  1.00  0.00     0.116 A 
HETATM   43  F   UNL     1      41.097  -6.970  16.738  1.00  0.00    -0.206 F 
HETATM   44  C   UNL     1      41.088  -8.581  15.018  1.00  0.00     0.044 A 
HETATM   45  C   UNL     1      41.641  -9.078  13.832  1.00  0.00     0.032 A 
ENDBRANCH  36  39
ENDBRANCH  31  32
ENDBRANCH   5  31
TORSDOF 8
ENDMDL
MODEL 6
REMARK VINA RESULT:      -8.7      2.476      5.052
REMARK  8 active torsions:
REMARK  status: ('A' for Active; 'I' for Inactive)
REMARK    1  A    between atoms: C_4  and  N_5 
REMARK       I    between atoms: N_5  and  C_6 
REMARK       I    between atoms: C_6  and  N_7 
REMARK    2  A    between atoms: N_7  and  C_8 
REMARK    3  A    between atoms: C_8  and  C_9 
REMARK    4  A    between atoms: C_9  and  C_10 
REMARK    5  A    between atoms: C_14  and  O_15 
REMARK       I    between atoms: N_22  and  C_23 
REMARK    6  A    between atoms: C_23  and  C_24 
REMARK    7  A    between atoms: C_24  and  N_25 
REMARK    8  A    between atoms: N_29  and  C_30 
ROOT
HETATM    1  N   UNL     1      39.034 -12.995   1.114  1.00  0.00    -0.017 N 
HETATM    2  C   UNL     1      39.224 -13.007   2.463  1.00  0.00     0.718 C 
HETATM    3  N   UNL     1      39.214 -14.276   2.988  1.00  0.00    -0.223 N 
HETATM    4  N   UNL     1      39.358 -11.918   3.152  1.00  0.00    -0.026 NA
HETATM    5  C   UNL     1      39.532 -11.921   4.503  1.00  0.00     0.286 C 
HETATM    6  O   UNL     1      39.526 -12.891   5.263  1.00  0.00    -0.269 OA
HETATM    7  H   UNL     1      38.332 -13.615   0.744  1.00  0.00     0.203 HD
HETATM    8  H   UNL     1      39.446 -14.293   3.983  1.00  0.00     0.177 HD
ENDROOT
BRANCH   1   9
HETATM    9  C   UNL     1      39.161 -11.893   0.275  1.00  0.00     0.741 A 
HETATM   10  N   UNL     1      40.370 -11.423  -0.081  1.00  0.00    -0.067 NA
HETATM   11  C   UNL     1      40.411 -10.396  -0.956  1.00  0.00     0.051 A 
HETATM   12  C   UNL     1      41.761  -9.892  -1.364  1.00  0.00     0.071 C 
HETATM   13  C   UNL     1      39.269  -9.816  -1.466  1.00  0.00     0.054 A 
HETATM   14  C   UNL     1      38.071 -10.358  -1.056  1.00  0.00     0.051 A 
HETATM   15  N   UNL     1      38.006 -11.399  -0.200  1.00  0.00    -0.067 NA
HETATM   16  C   UNL     1      36.774  -9.783  -1.541  1.00  0.00     0.071 C 
ENDBRANCH   1   9
BRANCH   3  17
HETATM   17  C   UNL     1      39.737 -15.464   2.308  1.00  0.00     0.142 C 
BRANCH  17  18
HETATM   18  C   UNL     1      41.269 -15.558   2.350  1.00  0.00     0.061 C 
BRANCH  18  19
HETATM   19  C   UNL     1      41.865 -15.117   3.654  1.00  0.00    -0.029 A 
HETATM   20  C   UNL     1      42.654 -13.945   3.887  1.00  0.00    -0.002 A 
HETATM   21  C   UNL     1      42.993 -13.931   5.238  1.00  0.00     0.045 A 
HETATM   22  C   UNL     1      43.118 -12.892   3.070  1.00  0.00     0.017 A 
HETATM   23  C   UNL     1      43.754 -12.907   5.817  1.00  0.00     0.067 A 
HETATM   24  N   UNL     1      42.466 -15.070   5.802  1.00  0.00    -0.365 N 
HETATM   25  C   UNL     1      44.200 -11.871   4.989  1.00  0.00     0.070 A 
HETATM   26  C   UNL     1      43.889 -11.863   3.629  1.00  0.00     0.038 A 
HETATM   27  H   UNL     1      42.586 -15.346   6.768  1.00  0.00     0.165 HD
HETATM   28  C   UNL     1      41.776 -15.785   4.860  1.00  0.00     0.096 A 
BRANCH  25  29
HETATM   29  O   UNL     1      44.873 -10.870   5.640  1.00  0.00    -0.356 OA
HETATM   30  C   UNL     1      45.547 -11.253   6.836  1.00  0.00     0.210 C 
ENDBRANCH  25  29
ENDBRANCH  18  19
ENDBRANCH  17  18
ENDBRANCH   3  17
BRANCH   5  31
HETATM   31  C   UNL     1      39.697 -10.509   5.066  1.00  0.00     0.340 C 
BRANCH  31  32
HETATM   32  N   UNL     1      40.276 -10.489   6.485  1.00  0.00    -0.060 N 
HETATM   33  H   UNL     1      40.372 -11.478   6.764  1.00  0.00     0.280 HD
HETATM   34  C   UNL     1      41.686  -9.903   6.502  1.00  0.00     0.255 C 
HETATM   35  C   UNL     1      42.256  -9.849   7.933  1.00  0.00     0.150 C 
HETATM   36  N   UNL     1      41.311  -9.149   8.836  1.00  0.00    -0.378 N 
HETATM   37  C   UNL     1      39.965  -9.749   8.875  1.00  0.00     0.150 C 
HETATM   38  C   UNL     1      39.359  -9.774   7.459  1.00  0.00     0.255 C 
BRANCH  36  39
HETATM   39  C   UNL     1      41.879  -8.722  10.045  1.00  0.00     0.030 A 
HETATM   40  C   UNL     1      42.608  -9.640  10.827  1.00  0.00     0.032 A 
HETATM   41  C   UNL     1      43.219  -9.260  12.025  1.00  0.00     0.044 A 
HETATM   42  C   UNL     1      43.112  -7.948  12.458  1.00  0.00     0.116 A 
HETATM   43  F   UNL     1      43.698  -7.577  13.602  1.00  0.00    -0.206 F 
HETATM   44  C   UNL     1      42.408  -7.014  11.713  1.00  0.00     0.044 A 
HETATM   45  C   UNL     1      41.799  -7.400  10.513  1.00  0.00     0.032 A 
ENDBRANCH  36  39
ENDBRANCH  31  32
ENDBRANCH   5  31
TORSDOF 8
ENDMDL
MODEL 7
REMARK VINA RESULT:      -8.7      2.513      4.795
REMARK  8 active torsions:
REMARK  status: ('A' for Active; 'I' for Inactive)
REMARK    1  A    between atoms: C_4  and  N_5 
REMARK       I    between atoms: N_5  and  C_6 
REMARK       I    between atoms: C_6  and  N_7 
REMARK    2  A    between atoms: N_7  and  C_8 
REMARK    3  A    between atoms: C_8  and  C_9 
REMARK    4  A    between atoms: C_9  and  C_10 
REMARK    5  A    between atoms: C_14  and  O_15 
REMARK       I    between atoms: N_22  and  C_23 
REMARK    6  A    between atoms: C_23  and  C_24 
REMARK    7  A    between atoms: C_24  and  N_25 
REMARK    8  A    between atoms: N_29  and  C_30 
ROOT
HETATM    1  N   UNL     1      38.884 -12.690   0.755  1.00  0.00    -0.017 N 
HETATM    2  C   UNL     1      39.178 -12.768   2.083  1.00  0.00     0.718 C 
HETATM    3  N   UNL     1      39.307 -14.063   2.523  1.00  0.00    -0.223 N 
HETATM    4  N   UNL     1      39.282 -11.714   2.831  1.00  0.00    -0.026 NA
HETATM    5  C   UNL     1      39.559 -11.784   4.162  1.00  0.00     0.286 C 
HETATM    6  O   UNL     1      39.687 -12.794   4.855  1.00  0.00    -0.269 OA
HETATM    7  H   UNL     1      38.205 -13.343   0.397  1.00  0.00     0.203 HD
HETATM    8  H   UNL     1      39.616 -14.120   3.496  1.00  0.00     0.177 HD
ENDROOT
BRANCH   1   9
HETATM    9  C   UNL     1      38.860 -11.534  -0.017  1.00  0.00     0.741 A 
HETATM   10  N   UNL     1      39.992 -11.008  -0.520  1.00  0.00    -0.067 NA
HETATM   11  C   UNL     1      39.879  -9.926  -1.319  1.00  0.00     0.051 A 
HETATM   12  C   UNL     1      41.141  -9.359  -1.892  1.00  0.00     0.071 C 
HETATM   13  C   UNL     1      38.662  -9.348  -1.609  1.00  0.00     0.054 A 
HETATM   14  C   UNL     1      37.551  -9.949  -1.060  1.00  0.00     0.051 A 
HETATM   15  N   UNL     1      37.638 -11.044  -0.276  1.00  0.00    -0.067 NA
HETATM   16  C   UNL     1      36.185  -9.381  -1.302  1.00  0.00     0.071 C 
ENDBRANCH   1   9
BRANCH   3  17
HETATM   17  C   UNL     1      39.866 -15.161   1.731  1.00  0.00     0.142 C 
BRANCH  17  18
HETATM   18  C   UNL     1      41.378 -15.031   1.500  1.00  0.00     0.061 C 
BRANCH  18  19
HETATM   19  C   UNL     1      42.204 -15.395   2.697  1.00  0.00    -0.029 A 
HETATM   20  C   UNL     1      42.751 -16.682   3.006  1.00  0.00    -0.002 A 
HETATM   21  C   UNL     1      43.447 -16.562   4.208  1.00  0.00     0.045 A 
HETATM   22  C   UNL     1      42.716 -17.944   2.376  1.00  0.00     0.017 A 
HETATM   23  C   UNL     1      44.125 -17.636   4.799  1.00  0.00     0.067 A 
HETATM   24  N   UNL     1      43.298 -15.264   4.637  1.00  0.00    -0.365 N 
HETATM   25  C   UNL     1      44.080 -18.877   4.155  1.00  0.00     0.070 A 
HETATM   26  C   UNL     1      43.381 -19.032   2.958  1.00  0.00     0.038 A 
HETATM   27  H   UNL     1      43.665 -14.896   5.506  1.00  0.00     0.165 HD
HETATM   28  C   UNL     1      42.561 -14.550   3.731  1.00  0.00     0.096 A 
BRANCH  25  29
HETATM   29  O   UNL     1      44.828 -19.857   4.753  1.00  0.00    -0.356 OA
HETATM   30  C   UNL     1      44.109 -21.008   5.190  1.00  0.00     0.210 C 
ENDBRANCH  25  29
ENDBRANCH  18  19
ENDBRANCH  17  18
ENDBRANCH   3  17
BRANCH   5  31
HETATM   31  C   UNL     1      39.658 -10.399   4.803  1.00  0.00     0.340 C 
BRANCH  31  32
HETATM   32  N   UNL     1      40.200 -10.435   6.237  1.00  0.00    -0.060 N 
HETATM   33  H   UNL     1      40.170 -11.425   6.524  1.00  0.00     0.280 HD
HETATM   34  C   UNL     1      41.669 -10.021   6.286  1.00  0.00     0.255 C 
HETATM   35  C   UNL     1      42.205 -10.022   7.732  1.00  0.00     0.150 C 
HETATM   36  N   UNL     1      41.328  -9.206   8.606  1.00  0.00    -0.378 N 
HETATM   37  C   UNL     1      39.919  -9.641   8.613  1.00  0.00     0.150 C 
HETATM   38  C   UNL     1      39.350  -9.607   7.181  1.00  0.00     0.255 C 
BRANCH  36  39
HETATM   39  C   UNL     1      41.912  -8.839   9.827  1.00  0.00     0.030 A 
HETATM   40  C   UNL     1      43.197  -9.318  10.147  1.00  0.00     0.032 A 
HETATM   41  C   UNL     1      43.837  -8.960  11.337  1.00  0.00     0.044 A 
HETATM   42  C   UNL     1      43.199  -8.109  12.225  1.00  0.00     0.116 A 
HETATM   43  F   UNL     1      43.808  -7.759  13.364  1.00  0.00    -0.206 F 
HETATM   44  C   UNL     1      41.936  -7.611  11.941  1.00  0.00     0.044 A 
HETATM   45  C   UNL     1      41.300  -7.972  10.747  1.00  0.00     0.032 A 
ENDBRANCH  36  39
ENDBRANCH  31  32
ENDBRANCH   5  31
TORSDOF 8
ENDMDL
MODEL 8
REMARK VINA RESULT:      -8.7      4.076      9.313
REMARK  8 active torsions:
REMARK  status: ('A' for Active; 'I' for Inactive)
REMARK    1  A    between atoms: C_4  and  N_5 
REMARK       I    between atoms: N_5  and  C_6 
REMARK       I    between atoms: C_6  and  N_7 
REMARK    2  A    between atoms: N_7  and  C_8 
REMARK    3  A    between atoms: C_8  and  C_9 
REMARK    4  A    between atoms: C_9  and  C_10 
REMARK    5  A    between atoms: C_14  and  O_15 
REMARK       I    between atoms: N_22  and  C_23 
REMARK    6  A    between atoms: C_23  and  C_24 
REMARK    7  A    between atoms: C_24  and  N_25 
REMARK    8  A    between atoms: N_29  and  C_30 
ROOT
HETATM    1  N   UNL     1      43.865 -13.097   6.644  1.00  0.00    -0.017 N 
HETATM    2  C   UNL     1      43.298 -11.862   6.554  1.00  0.00     0.718 C 
HETATM    3  N   UNL     1      44.003 -10.903   7.238  1.00  0.00    -0.223 N 
HETATM    4  N   UNL     1      42.190 -11.656   5.914  1.00  0.00    -0.026 NA
HETATM    5  C   UNL     1      41.607 -10.428   5.833  1.00  0.00     0.286 C 
HETATM    6  O   UNL     1      41.971  -9.382   6.373  1.00  0.00    -0.269 OA
HETATM    7  H   UNL     1      44.218 -13.375   7.546  1.00  0.00     0.203 HD
HETATM    8  H   UNL     1      43.629  -9.962   7.097  1.00  0.00     0.177 HD
ENDROOT
BRANCH   1   9
HETATM    9  C   UNL     1      43.491 -14.230   5.929  1.00  0.00     0.741 A 
HETATM   10  N   UNL     1      43.198 -14.162   4.618  1.00  0.00    -0.067 NA
HETATM   11  C   UNL     1      42.914 -15.316   3.979  1.00  0.00     0.051 A 
HETATM   12  C   UNL     1      42.610 -15.235   2.514  1.00  0.00     0.071 C 
HETATM   13  C   UNL     1      42.896 -16.533   4.626  1.00  0.00     0.054 A 
HETATM   14  C   UNL     1      43.212 -16.518   5.967  1.00  0.00     0.051 A 
HETATM   15  N   UNL     1      43.521 -15.379   6.622  1.00  0.00    -0.067 NA
HETATM   16  C   UNL     1      43.199 -17.789   6.762  1.00  0.00     0.071 C 
ENDBRANCH   1   9
BRANCH   3  17
HETATM   17  C   UNL     1      45.462 -10.873   7.365  1.00  0.00     0.142 C 
BRANCH  17  18
HETATM   18  C   UNL     1      45.967  -9.741   8.271  1.00  0.00     0.061 C 
BRANCH  18  19
HETATM   19  C   UNL     1      44.872  -9.010   8.989  1.00  0.00    -0.029 A 
HETATM   20  C   UNL     1      44.149  -9.459  10.141  1.00  0.00    -0.002 A 
HETATM   21  C   UNL     1      43.230  -8.465  10.471  1.00  0.00     0.045 A 
HETATM   22  C   UNL     1      44.187 -10.625  10.935  1.00  0.00     0.017 A 
HETATM   23  C   UNL     1      42.363  -8.571  11.566  1.00  0.00     0.067 A 
HETATM   24  N   UNL     1      43.358  -7.466   9.535  1.00  0.00    -0.365 N 
HETATM   25  C   UNL     1      42.420  -9.734  12.342  1.00  0.00     0.070 A 
HETATM   26  C   UNL     1      43.320 -10.753  12.029  1.00  0.00     0.038 A 
HETATM   27  H   UNL     1      42.789  -6.629   9.501  1.00  0.00     0.165 HD
HETATM   28  C   UNL     1      44.350  -7.778   8.646  1.00  0.00     0.096 A 
BRANCH  25  29
HETATM   29  O   UNL     1      41.596  -9.731  13.437  1.00  0.00    -0.356 OA
HETATM   30  C   UNL     1      40.199  -9.792  13.162  1.00  0.00     0.210 C 
ENDBRANCH  25  29
ENDBRANCH  18  19
ENDBRANCH  17  18
ENDBRANCH   3  17
BRANCH   5  31
HETATM   31  C   UNL     1      40.327 -10.451   4.995  1.00  0.00     0.340 C 
BRANCH  31  32
HETATM   32  N   UNL     1      40.471 -11.254   3.697  1.00  0.00    -0.060 N 
HETATM   33  H   UNL     1      41.398 -11.705   3.746  1.00  0.00     0.280 HD
HETATM   34  C   UNL     1      39.449 -12.387   3.628  1.00  0.00     0.255 C 
HETATM   35  C   UNL     1      39.567 -13.173   2.307  1.00  0.00     0.150 C 
HETATM   36  N   UNL     1      39.507 -12.246   1.152  1.00  0.00    -0.378 N 
HETATM   37  C   UNL     1      40.533 -11.188   1.177  1.00  0.00     0.150 C 
HETATM   38  C   UNL     1      40.404 -10.362   2.472  1.00  0.00     0.255 C 
BRANCH  36  39
HETATM   39  C   UNL     1      39.234 -12.871  -0.074  1.00  0.00     0.030 A 
HETATM   40  C   UNL     1      39.808 -14.128  -0.350  1.00  0.00     0.032 A 
HETATM   41  C   UNL     1      39.546 -14.807  -1.542  1.00  0.00     0.044 A 
HETATM   42  C   UNL     1      38.698 -14.238  -2.479  1.00  0.00     0.116 A 
HETATM   43  F   UNL     1      38.440 -14.886  -3.621  1.00  0.00    -0.206 F 
HETATM   44  C   UNL     1      38.109 -13.006  -2.240  1.00  0.00     0.044 A 
HETATM   45  C   UNL     1      38.373 -12.330  -1.044  1.00  0.00     0.032 A 
ENDBRANCH  36  39
ENDBRANCH  31  32
ENDBRANCH   5  31
TORSDOF 8
ENDMDL
MODEL 9
REMARK VINA RESULT:      -8.6      2.494      3.666
REMARK  8 active torsions:
REMARK  status: ('A' for Active; 'I' for Inactive)
REMARK    1  A    between atoms: C_4  and  N_5 
REMARK       I    between atoms: N_5  and  C_6 
REMARK       I    between atoms: C_6  and  N_7 
REMARK    2  A    between atoms: N_7  and  C_8 
REMARK    3  A    between atoms: C_8  and  C_9 
REMARK    4  A    between atoms: C_9  and  C_10 
REMARK    5  A    between atoms: C_14  and  O_15 
REMARK       I    between atoms: N_22  and  C_23 
REMARK    6  A    between atoms: C_23  and  C_24 
REMARK    7  A    between atoms: C_24  and  N_25 
REMARK    8  A    between atoms: N_29  and  C_30 
ROOT
HETATM    1  N   UNL     1      42.630 -11.307   6.867  1.00  0.00    -0.017 N 
HETATM    2  C   UNL     1      41.344 -10.874   6.750  1.00  0.00     0.718 C 
HETATM    3  N   UNL     1      40.596 -11.654   5.903  1.00  0.00    -0.223 N 
HETATM    4  N   UNL     1      40.914  -9.812   7.358  1.00  0.00    -0.026 NA
HETATM    5  C   UNL     1      39.635  -9.363   7.233  1.00  0.00     0.286 C 
HETATM    6  O   UNL     1      38.741  -9.817   6.517  1.00  0.00    -0.269 OA
HETATM    7  H   UNL     1      43.093 -11.603   6.022  1.00  0.00     0.203 HD
HETATM    8  H   UNL     1      39.610 -11.383   5.884  1.00  0.00     0.177 HD
ENDROOT
BRANCH   1   9
HETATM    9  C   UNL     1      43.578 -10.839   7.770  1.00  0.00     0.741 A 
HETATM   10  N   UNL     1      44.773 -10.382   7.353  1.00  0.00    -0.067 NA
HETATM   11  C   UNL     1      45.610  -9.878   8.283  1.00  0.00     0.051 A 
HETATM   12  C   UNL     1      46.930  -9.350   7.809  1.00  0.00     0.071 C 
HETATM   13  C   UNL     1      45.288  -9.840   9.623  1.00  0.00     0.054 A 
HETATM   14  C   UNL     1      44.044 -10.322   9.968  1.00  0.00     0.051 A 
HETATM   15  N   UNL     1      43.181 -10.811   9.052  1.00  0.00    -0.067 NA
HETATM   16  C   UNL     1      43.610 -10.341  11.403  1.00  0.00     0.071 C 
ENDBRANCH   1   9
BRANCH   3  17
HETATM   17  C   UNL     1      40.744 -13.104   5.756  1.00  0.00     0.142 C 
BRANCH  17  18
HETATM   18  C   UNL     1      41.698 -13.502   4.621  1.00  0.00     0.061 C 
BRANCH  18  19
HETATM   19  C   UNL     1      42.603 -14.647   4.967  1.00  0.00    -0.029 A 
HETATM   20  C   UNL     1      42.787 -15.854   4.220  1.00  0.00    -0.002 A 
HETATM   21  C   UNL     1      43.717 -16.633   4.906  1.00  0.00     0.045 A 
HETATM   22  C   UNL     1      42.245 -16.362   3.020  1.00  0.00     0.017 A 
HETATM   23  C   UNL     1      44.145 -17.883   4.442  1.00  0.00     0.067 A 
HETATM   24  N   UNL     1      44.058 -15.947   6.048  1.00  0.00    -0.365 N 
HETATM   25  C   UNL     1      43.597 -18.366   3.249  1.00  0.00     0.070 A 
HETATM   26  C   UNL     1      42.654 -17.616   2.546  1.00  0.00     0.038 A 
HETATM   27  H   UNL     1      44.689 -16.288   6.762  1.00  0.00     0.165 HD
HETATM   28  C   UNL     1      43.402 -14.746   6.090  1.00  0.00     0.096 A 
BRANCH  25  29
HETATM   29  O   UNL     1      44.120 -19.559   2.823  1.00  0.00    -0.356 OA
HETATM   30  C   UNL     1      43.351 -20.262   1.851  1.00  0.00     0.210 C 
ENDBRANCH  25  29
ENDBRANCH  18  19
ENDBRANCH  17  18
ENDBRANCH   3  17
BRANCH   5  31
HETATM   31  C   UNL     1      39.379  -8.113   8.077  1.00  0.00     0.340 C 
BRANCH  31  32
HETATM   32  N   UNL     1      40.179  -8.094   9.385  1.00  0.00    -0.060 N 
HETATM   33  H   UNL     1      41.086  -8.535   9.167  1.00  0.00     0.280 HD
HETATM   34  C   UNL     1      40.493  -6.666   9.824  1.00  0.00     0.255 C 
HETATM   35  C   UNL     1      41.266  -6.643  11.158  1.00  0.00     0.150 C 
HETATM   36  N   UNL     1      40.543  -7.435  12.182  1.00  0.00    -0.378 N 
HETATM   37  C   UNL     1      40.293  -8.834  11.793  1.00  0.00     0.150 C 
HETATM   38  C   UNL     1      39.484  -8.879  10.482  1.00  0.00     0.255 C 
BRANCH  36  39
HETATM   39  C   UNL     1      40.950  -7.178  13.500  1.00  0.00     0.030 A 
HETATM   40  C   UNL     1      42.316  -7.273  13.830  1.00  0.00     0.032 A 
HETATM   41  C   UNL     1      42.780  -7.000  15.120  1.00  0.00     0.044 A 
HETATM   42  C   UNL     1      41.878  -6.623  16.102  1.00  0.00     0.116 A 
HETATM   43  F   UNL     1      42.316  -6.357  17.338  1.00  0.00    -0.206 F 
HETATM   44  C   UNL     1      40.526  -6.513  15.814  1.00  0.00     0.044 A 
HETATM   45  C   UNL     1      40.067  -6.786  14.520  1.00  0.00     0.032 A 
ENDBRANCH  36  39
ENDBRANCH  31  32
ENDBRANCH   5  31
TORSDOF 8
ENDMDL
MODEL 10
REMARK VINA RESULT:      -8.5      2.250      3.543
REMARK  8 active torsions:
REMARK  status: ('A' for Active; 'I' for Inactive)
REMARK    1  A    between atoms: C_4  and  N_5 
REMARK       I    between atoms: N_5  and  C_6 
REMARK       I    between atoms: C_6  and  N_7 
REMARK    2  A    between atoms: N_7  and  C_8 
REMARK    3  A    between atoms: C_8  and  C_9 
REMARK    4  A    between atoms: C_9  and  C_10 
REMARK    5  A    between atoms: C_14  and  O_15 
REMARK       I    between atoms: N_22  and  C_23 
REMARK    6  A    between atoms: C_23  and  C_24 
REMARK    7  A    between atoms: C_24  and  N_25 
REMARK    8  A    between atoms: N_29  and  C_30 
ROOT
HETATM    1  N   UNL     1      43.103 -11.425   6.433  1.00  0.00    -0.017 N 
HETATM    2  C   UNL     1      41.768 -11.207   6.273  1.00  0.00     0.718 C 
HETATM    3  N   UNL     1      41.226 -11.958   5.259  1.00  0.00    -0.223 N 
HETATM    4  N   UNL     1      41.117 -10.347   6.991  1.00  0.00    -0.026 NA
HETATM    5  C   UNL     1      39.787 -10.110   6.826  1.00  0.00     0.286 C 
HETATM    6  O   UNL     1      39.033 -10.591   5.978  1.00  0.00    -0.269 OA
HETATM    7  H   UNL     1      43.660 -11.497   5.597  1.00  0.00     0.203 HD
HETATM    8  H   UNL     1      40.210 -11.862   5.197  1.00  0.00     0.177 HD
ENDROOT
BRANCH   1   9
HETATM    9  C   UNL     1      43.896 -10.951   7.473  1.00  0.00     0.741 A 
HETATM   10  N   UNL     1      43.452 -10.946   8.743  1.00  0.00    -0.067 NA
HETATM   11  C   UNL     1      44.307 -10.539   9.704  1.00  0.00     0.051 A 
HETATM   12  C   UNL     1      43.812 -10.557  11.118  1.00  0.00     0.071 C 
HETATM   13  C   UNL     1      45.588 -10.117   9.421  1.00  0.00     0.054 A 
HETATM   14  C   UNL     1      45.968 -10.157   8.098  1.00  0.00     0.051 A 
HETATM   15  N   UNL     1      45.138 -10.582   7.122  1.00  0.00    -0.067 NA
HETATM   16  C   UNL     1      47.336  -9.698   7.688  1.00  0.00     0.071 C 
ENDBRANCH   1   9
BRANCH   3  17
HETATM   17  C   UNL     1      41.646 -13.318   4.914  1.00  0.00     0.142 C 
BRANCH  17  18
HETATM   18  C   UNL     1      42.885 -13.357   4.009  1.00  0.00     0.061 C 
BRANCH  18  19
HETATM   19  C   UNL     1      42.913 -14.528   3.073  1.00  0.00    -0.029 A 
HETATM   20  C   UNL     1      43.259 -15.880   3.396  1.00  0.00    -0.002 A 
HETATM   21  C   UNL     1      43.147 -16.630   2.227  1.00  0.00     0.045 A 
HETATM   22  C   UNL     1      43.663 -16.537   4.577  1.00  0.00     0.017 A 
HETATM   23  C   UNL     1      43.399 -18.008   2.186  1.00  0.00     0.067 A 
HETATM   24  N   UNL     1      42.786 -15.765   1.221  1.00  0.00    -0.365 N 
HETATM   25  C   UNL     1      43.795 -18.640   3.370  1.00  0.00     0.070 A 
HETATM   26  C   UNL     1      43.929 -17.914   4.553  1.00  0.00     0.038 A 
HETATM   27  H   UNL     1      42.668 -16.024   0.250  1.00  0.00     0.165 HD
HETATM   28  C   UNL     1      42.631 -14.500   1.720  1.00  0.00     0.096 A 
BRANCH  25  29
HETATM   29  O   UNL     1      43.950 -19.998   3.267  1.00  0.00    -0.356 OA
HETATM   30  C   UNL     1      43.950 -20.717   4.497  1.00  0.00     0.210 C 
ENDBRANCH  25  29
ENDBRANCH  18  19
ENDBRANCH  17  18
ENDBRANCH   3  17
BRANCH   5  31
HETATM   31  C   UNL     1      39.258  -9.075   7.820  1.00  0.00     0.340 C 
BRANCH  31  32
HETATM   32  N   UNL     1      40.122  -8.953   9.081  1.00  0.00    -0.060 N 
HETATM   33  H   UNL     1      40.983  -9.485   8.885  1.00  0.00     0.280 HD
HETATM   34  C   UNL     1      40.556  -7.509   9.319  1.00  0.00     0.255 C 
HETATM   35  C   UNL     1      41.394  -7.378  10.607  1.00  0.00     0.150 C 
HETATM   36  N   UNL     1      40.671  -7.979  11.753  1.00  0.00    -0.378 N 
HETATM   37  C   UNL     1      40.304  -9.393  11.557  1.00  0.00     0.150 C 
HETATM   38  C   UNL     1      39.430  -9.540  10.297  1.00  0.00     0.255 C 
BRANCH  36  39
HETATM   39  C   UNL     1      41.160  -7.591  13.010  1.00  0.00     0.030 A 
HETATM   40  C   UNL     1      40.251  -7.332  14.054  1.00  0.00     0.032 A 
HETATM   41  C   UNL     1      40.686  -6.971  15.332  1.00  0.00     0.044 A 
HETATM   42  C   UNL     1      42.045  -6.868  15.585  1.00  0.00     0.116 A 
HETATM   43  F   UNL     1      42.468  -6.526  16.808  1.00  0.00    -0.206 F 
HETATM   44  C   UNL     1      42.971  -7.121  14.584  1.00  0.00     0.044 A 
HETATM   45  C   UNL     1      42.529  -7.484  13.306  1.00  0.00     0.032 A 
ENDBRANCH  36  39
ENDBRANCH  31  32
ENDBRANCH   5  31
TORSDOF 8
ENDMDL
