MODEL 1
REMARK VINA RESULT:      -8.2      0.000      0.000
REMARK  5 active torsions:
REMARK  status: ('A' for Active; 'I' for Inactive)
REMARK    1  A    between atoms: C_3  and  N_4 
REMARK       I    between atoms: N_4  and  C_5 
REMARK    2  A    between atoms: C_5  and  C_6 
REMARK    3  A    between atoms: C_6  and  C_7 
REMARK    4  A    between atoms: C_16  and  O_17 
REMARK    5  A    between atoms: O_17  and  C_18 
ROOT
HETATM    1  C   UNL     1      43.756 -18.377   4.076  1.00  0.00     0.190 A 
HETATM    2  N   UNL     1      43.653 -17.761   5.281  1.00  0.00    -0.235 NA
HETATM    3  C   UNL     1      43.577 -18.548   6.376  1.00  0.00     0.119 A 
HETATM    4  C   UNL     1      43.579 -19.932   6.330  1.00  0.00     0.021 A 
HETATM    5  C   UNL     1      43.660 -20.547   5.084  1.00  0.00     0.028 A 
HETATM    6  C   UNL     1      43.748 -19.762   3.931  1.00  0.00     0.097 A 
HETATM    7  C   UNL     1      43.812 -20.379   2.644  1.00  0.00     0.104 C 
HETATM    8  N   UNL     1      43.853 -20.911   1.613  1.00  0.00    -0.191 NA
ENDROOT
BRANCH   1   9
HETATM    9  O   UNL     1      43.829 -17.625   2.907  1.00  0.00    -0.291 OA
BRANCH   9  10
HETATM   10  C   UNL     1      42.963 -16.580   2.697  1.00  0.00     0.078 A 
HETATM   11  C   UNL     1      41.675 -16.926   2.306  1.00  0.00     0.039 A 
HETATM   12  C   UNL     1      40.750 -15.930   1.983  1.00  0.00     0.033 A 
HETATM   13  C   UNL     1      41.098 -14.569   2.022  1.00  0.00     0.040 A 
HETATM   14  C   UNL     1      42.384 -14.211   2.470  1.00  0.00    -0.033 A 
HETATM   15  C   UNL     1      42.839 -12.803   2.733  1.00  0.00     0.050 C 
HETATM   16  C   UNL     1      43.321 -15.234   2.747  1.00  0.00     0.046 A 
BRANCH  13  17
HETATM   17  N   UNL     1      40.073 -13.675   1.636  1.00  0.00    -0.326 N 
HETATM   18  C   UNL     1      39.994 -12.948   0.461  1.00  0.00     0.227 C 
HETATM   19  O   UNL     1      40.753 -13.046  -0.502  1.00  0.00    -0.273 OA
HETATM   20  H   UNL     1      39.192 -13.792   2.123  1.00  0.00     0.169 HD
BRANCH  18  21
HETATM   21  C   UNL     1      38.803 -11.988   0.427  1.00  0.00     0.159 C 
BRANCH  21  22
HETATM   22  C   UNL     1      38.026 -12.098  -0.848  1.00  0.00     0.017 A 
HETATM   23  N   UNL     1      37.840 -13.300  -1.497  1.00  0.00    -0.369 N 
HETATM   24  H   UNL     1      38.175 -14.196  -1.153  1.00  0.00     0.165 HD
HETATM   25  C   UNL     1      37.121 -13.100  -2.644  1.00  0.00     0.088 A 
HETATM   26  C   UNL     1      36.851 -11.755  -2.747  1.00  0.00     0.019 A 
HETATM   27  C   UNL     1      37.421 -11.121  -1.618  1.00  0.00     0.027 A 
ENDBRANCH  21  22
ENDBRANCH  18  21
ENDBRANCH  13  17
ENDBRANCH   9  10
ENDBRANCH   1   9
TORSDOF 5
ENDMDL
MODEL 2
REMARK VINA RESULT:      -8.0      5.179      8.006
REMARK  5 active torsions:
REMARK  status: ('A' for Active; 'I' for Inactive)
REMARK    1  A    between atoms: C_3  and  N_4 
REMARK       I    between atoms: N_4  and  C_5 
REMARK    2  A    between atoms: C_5  and  C_6 
REMARK    3  A    between atoms: C_6  and  C_7 
REMARK    4  A    between atoms: C_16  and  O_17 
REMARK    5  A    between atoms: O_17  and  C_18 
ROOT
HETATM    1  C   UNL     1      42.755 -16.813   4.405  1.00  0.00     0.190 A 
HETATM    2  N   UNL     1      43.751 -17.528   4.987  1.00  0.00    -0.235 NA
HETATM    3  C   UNL     1      44.359 -18.473   4.237  1.00  0.00     0.119 A 
HETATM    4  C   UNL     1      44.006 -18.758   2.928  1.00  0.00     0.021 A 
HETATM    5  C   UNL     1      42.966 -18.033   2.355  1.00  0.00     0.028 A 
HETATM    6  C   UNL     1      42.321 -17.042   3.103  1.00  0.00     0.097 A 
HETATM    7  C   UNL     1      41.239 -16.304   2.534  1.00  0.00     0.104 C 
HETATM    8  N   UNL     1      40.357 -15.728   2.046  1.00  0.00    -0.191 NA
ENDROOT
BRANCH   1   9
HETATM    9  O   UNL     1      42.082 -15.830   5.126  1.00  0.00    -0.291 OA
BRANCH   9  10
HETATM   10  C   UNL     1      42.699 -14.640   5.423  1.00  0.00     0.078 A 
HETATM   11  C   UNL     1      43.090 -14.469   6.746  1.00  0.00     0.039 A 
HETATM   12  C   UNL     1      43.644 -13.256   7.162  1.00  0.00     0.033 A 
HETATM   13  C   UNL     1      43.800 -12.181   6.271  1.00  0.00     0.040 A 
HETATM   14  C   UNL     1      43.458 -12.366   4.918  1.00  0.00    -0.033 A 
HETATM   15  C   UNL     1      43.732 -11.376   3.820  1.00  0.00     0.050 C 
HETATM   16  C   UNL     1      42.855 -13.584   4.526  1.00  0.00     0.046 A 
BRANCH  13  17
HETATM   17  N   UNL     1      44.341 -11.004   6.838  1.00  0.00    -0.326 N 
HETATM   18  C   UNL     1      45.679 -10.706   7.034  1.00  0.00     0.227 C 
HETATM   19  O   UNL     1      46.633 -11.374   6.640  1.00  0.00    -0.273 OA
HETATM   20  H   UNL     1      43.724 -10.201   6.838  1.00  0.00     0.169 HD
BRANCH  18  21
HETATM   21  C   UNL     1      45.898  -9.391   7.785  1.00  0.00     0.159 C 
BRANCH  21  22
HETATM   22  C   UNL     1      45.081  -9.315   9.038  1.00  0.00     0.017 A 
HETATM   23  N   UNL     1      44.036  -8.428   9.185  1.00  0.00    -0.369 N 
HETATM   24  H   UNL     1      43.718  -7.790   8.458  1.00  0.00     0.165 HD
HETATM   25  C   UNL     1      43.490  -8.558  10.432  1.00  0.00     0.088 A 
HETATM   26  C   UNL     1      44.196  -9.529  11.105  1.00  0.00     0.019 A 
HETATM   27  C   UNL     1      45.199 -10.007  10.229  1.00  0.00     0.027 A 
ENDBRANCH  21  22
ENDBRANCH  18  21
ENDBRANCH  13  17
ENDBRANCH   9  10
ENDBRANCH   1   9
TORSDOF 5
ENDMDL
MODEL 3
REMARK VINA RESULT:      -7.6      1.423      2.433
REMARK  5 active torsions:
REMARK  status: ('A' for Active; 'I' for Inactive)
REMARK    1  A    between atoms: C_3  and  N_4 
REMARK       I    between atoms: N_4  and  C_5 
REMARK    2  A    between atoms: C_5  and  C_6 
REMARK    3  A    between atoms: C_6  and  C_7 
REMARK    4  A    between atoms: C_16  and  O_17 
REMARK    5  A    between atoms: O_17  and  C_18 
ROOT
HETATM    1  C   UNL     1      43.969 -18.324   4.392  1.00  0.00     0.190 A 
HETATM    2  N   UNL     1      44.098 -19.273   3.430  1.00  0.00    -0.235 NA
HETATM    3  C   UNL     1      43.934 -20.561   3.803  1.00  0.00     0.119 A 
HETATM    4  C   UNL     1      43.665 -20.957   5.102  1.00  0.00     0.021 A 
HETATM    5  C   UNL     1      43.561 -19.972   6.080  1.00  0.00     0.028 A 
HETATM    6  C   UNL     1      43.717 -18.629   5.727  1.00  0.00     0.097 A 
HETATM    7  C   UNL     1      43.633 -17.609   6.724  1.00  0.00     0.104 C 
HETATM    8  N   UNL     1      43.568 -16.805   7.559  1.00  0.00    -0.191 NA
ENDROOT
BRANCH   1   9
HETATM    9  O   UNL     1      44.134 -16.978   4.077  1.00  0.00    -0.291 OA
BRANCH   9  10
HETATM   10  C   UNL     1      43.094 -16.255   3.545  1.00  0.00     0.078 A 
HETATM   11  C   UNL     1      42.876 -16.416   2.182  1.00  0.00     0.039 A 
HETATM   12  C   UNL     1      41.899 -15.654   1.535  1.00  0.00     0.033 A 
HETATM   13  C   UNL     1      41.135 -14.703   2.231  1.00  0.00     0.040 A 
HETATM   14  C   UNL     1      41.314 -14.575   3.621  1.00  0.00    -0.033 A 
HETATM   15  C   UNL     1      40.454 -13.734   4.524  1.00  0.00     0.050 C 
HETATM   16  C   UNL     1      42.339 -15.320   4.250  1.00  0.00     0.046 A 
BRANCH  13  17
HETATM   17  N   UNL     1      40.209 -13.981   1.442  1.00  0.00    -0.326 N 
HETATM   18  C   UNL     1      40.346 -12.691   0.958  1.00  0.00     0.227 C 
HETATM   19  O   UNL     1      41.354 -11.992   1.039  1.00  0.00    -0.273 OA
HETATM   20  H   UNL     1      39.524 -14.547   0.954  1.00  0.00     0.169 HD
BRANCH  18  21
HETATM   21  C   UNL     1      39.095 -12.184   0.238  1.00  0.00     0.159 C 
BRANCH  21  22
HETATM   22  C   UNL     1      38.967 -12.757  -1.140  1.00  0.00     0.017 A 
HETATM   23  N   UNL     1      38.005 -13.689  -1.465  1.00  0.00    -0.369 N 
HETATM   24  H   UNL     1      37.296 -14.030  -0.821  1.00  0.00     0.165 HD
HETATM   25  C   UNL     1      38.139 -14.054  -2.777  1.00  0.00     0.088 A 
HETATM   26  C   UNL     1      39.206 -13.363  -3.303  1.00  0.00     0.019 A 
HETATM   27  C   UNL     1      39.730 -12.546  -2.274  1.00  0.00     0.027 A 
ENDBRANCH  21  22
ENDBRANCH  18  21
ENDBRANCH  13  17
ENDBRANCH   9  10
ENDBRANCH   1   9
TORSDOF 5
ENDMDL
MODEL 4
REMARK VINA RESULT:      -7.6      5.955      9.190
REMARK  5 active torsions:
REMARK  status: ('A' for Active; 'I' for Inactive)
REMARK    1  A    between atoms: C_3  and  N_4 
REMARK       I    between atoms: N_4  and  C_5 
REMARK    2  A    between atoms: C_5  and  C_6 
REMARK    3  A    between atoms: C_6  and  C_7 
REMARK    4  A    between atoms: C_16  and  O_17 
REMARK    5  A    between atoms: O_17  and  C_18 
ROOT
HETATM    1  C   UNL     1      43.975 -10.012   9.585  1.00  0.00     0.190 A 
HETATM    2  N   UNL     1      44.108 -11.030  10.473  1.00  0.00    -0.235 NA
HETATM    3  C   UNL     1      43.662 -10.819  11.731  1.00  0.00     0.119 A 
HETATM    4  C   UNL     1      43.103  -9.627  12.158  1.00  0.00     0.021 A 
HETATM    5  C   UNL     1      42.997  -8.585  11.240  1.00  0.00     0.028 A 
HETATM    6  C   UNL     1      43.442  -8.773   9.928  1.00  0.00     0.097 A 
HETATM    7  C   UNL     1      43.357  -7.707   8.982  1.00  0.00     0.104 C 
HETATM    8  N   UNL     1      43.283  -6.818   8.239  1.00  0.00    -0.191 NA
ENDROOT
BRANCH   1   9
HETATM    9  O   UNL     1      44.422 -10.161   8.274  1.00  0.00    -0.291 OA
BRANCH   9  10
HETATM   10  C   UNL     1      43.789 -11.027   7.417  1.00  0.00     0.078 A 
HETATM   11  C   UNL     1      44.503 -12.167   7.065  1.00  0.00     0.039 A 
HETATM   12  C   UNL     1      43.979 -13.061   6.129  1.00  0.00     0.033 A 
HETATM   13  C   UNL     1      42.740 -12.825   5.509  1.00  0.00     0.040 A 
HETATM   14  C   UNL     1      41.987 -11.703   5.902  1.00  0.00    -0.033 A 
HETATM   15  C   UNL     1      40.578 -11.417   5.462  1.00  0.00     0.050 C 
HETATM   16  C   UNL     1      42.556 -10.784   6.816  1.00  0.00     0.046 A 
BRANCH  13  17
HETATM   17  N   UNL     1      42.350 -13.796   4.557  1.00  0.00    -0.326 N 
HETATM   18  C   UNL     1      41.750 -15.019   4.804  1.00  0.00     0.227 C 
HETATM   19  O   UNL     1      41.349 -15.420   5.895  1.00  0.00    -0.273 OA
HETATM   20  H   UNL     1      42.239 -13.453   3.611  1.00  0.00     0.169 HD
BRANCH  18  21
HETATM   21  C   UNL     1      41.576 -15.868   3.543  1.00  0.00     0.159 C 
BRANCH  21  22
HETATM   22  C   UNL     1      42.558 -16.997   3.485  1.00  0.00     0.017 A 
HETATM   23  N   UNL     1      43.371 -17.323   4.549  1.00  0.00    -0.369 N 
HETATM   24  H   UNL     1      43.347 -16.859   5.453  1.00  0.00     0.165 HD
HETATM   25  C   UNL     1      44.182 -18.371   4.207  1.00  0.00     0.088 A 
HETATM   26  C   UNL     1      43.903 -18.718   2.905  1.00  0.00     0.019 A 
HETATM   27  C   UNL     1      42.881 -17.853   2.447  1.00  0.00     0.027 A 
ENDBRANCH  21  22
ENDBRANCH  18  21
ENDBRANCH  13  17
ENDBRANCH   9  10
ENDBRANCH   1   9
TORSDOF 5
ENDMDL
MODEL 5
REMARK VINA RESULT:      -7.5      6.233      9.620
REMARK  5 active torsions:
REMARK  status: ('A' for Active; 'I' for Inactive)
REMARK    1  A    between atoms: C_3  and  N_4 
REMARK       I    between atoms: N_4  and  C_5 
REMARK    2  A    between atoms: C_5  and  C_6 
REMARK    3  A    between atoms: C_6  and  C_7 
REMARK    4  A    between atoms: C_16  and  O_17 
REMARK    5  A    between atoms: O_17  and  C_18 
ROOT
HETATM    1  C   UNL     1      44.260  -8.640   9.285  1.00  0.00     0.190 A 
HETATM    2  N   UNL     1      44.044  -7.441   8.686  1.00  0.00    -0.235 NA
HETATM    3  C   UNL     1      43.297  -6.537   9.357  1.00  0.00     0.119 A 
HETATM    4  C   UNL     1      42.731  -6.777  10.597  1.00  0.00     0.021 A 
HETATM    5  C   UNL     1      42.941  -8.020  11.186  1.00  0.00     0.028 A 
HETATM    6  C   UNL     1      43.717  -8.976  10.522  1.00  0.00     0.097 A 
HETATM    7  C   UNL     1      43.924 -10.263  11.106  1.00  0.00     0.104 C 
HETATM    8  N   UNL     1      44.067 -11.303  11.602  1.00  0.00    -0.191 NA
ENDROOT
BRANCH   1   9
HETATM    9  O   UNL     1      45.014  -9.620   8.645  1.00  0.00    -0.291 OA
BRANCH   9  10
HETATM   10  C   UNL     1      44.427 -10.469   7.740  1.00  0.00     0.078 A 
HETATM   11  C   UNL     1      45.247 -11.460   7.213  1.00  0.00     0.039 A 
HETATM   12  C   UNL     1      44.764 -12.314   6.219  1.00  0.00     0.033 A 
HETATM   13  C   UNL     1      43.459 -12.183   5.715  1.00  0.00     0.040 A 
HETATM   14  C   UNL     1      42.607 -11.218   6.282  1.00  0.00    -0.033 A 
HETATM   15  C   UNL     1      41.142 -11.079   5.973  1.00  0.00     0.050 C 
HETATM   16  C   UNL     1      43.128 -10.332   7.254  1.00  0.00     0.046 A 
BRANCH  13  17
HETATM   17  N   UNL     1      43.118 -13.093   4.687  1.00  0.00    -0.326 N 
HETATM   18  C   UNL     1      42.481 -14.314   4.825  1.00  0.00     0.227 C 
HETATM   19  O   UNL     1      41.999 -14.764   5.863  1.00  0.00    -0.273 OA
HETATM   20  H   UNL     1      43.077 -12.697   3.755  1.00  0.00     0.169 HD
BRANCH  18  21
HETATM   21  C   UNL     1      42.378 -15.090   3.511  1.00  0.00     0.159 C 
BRANCH  21  22
HETATM   22  C   UNL     1      43.048 -16.427   3.592  1.00  0.00     0.017 A 
HETATM   23  N   UNL     1      43.663 -16.875   4.742  1.00  0.00    -0.369 N 
HETATM   24  H   UNL     1      43.681 -16.362   5.620  1.00  0.00     0.165 HD
HETATM   25  C   UNL     1      44.211 -18.109   4.522  1.00  0.00     0.088 A 
HETATM   26  C   UNL     1      43.962 -18.458   3.215  1.00  0.00     0.019 A 
HETATM   27  C   UNL     1      43.230 -17.400   2.627  1.00  0.00     0.027 A 
ENDBRANCH  21  22
ENDBRANCH  18  21
ENDBRANCH  13  17
ENDBRANCH   9  10
ENDBRANCH   1   9
TORSDOF 5
ENDMDL
MODEL 6
REMARK VINA RESULT:      -7.4      5.726      8.943
REMARK  5 active torsions:
REMARK  status: ('A' for Active; 'I' for Inactive)
REMARK    1  A    between atoms: C_3  and  N_4 
REMARK       I    between atoms: N_4  and  C_5 
REMARK    2  A    between atoms: C_5  and  C_6 
REMARK    3  A    between atoms: C_6  and  C_7 
REMARK    4  A    between atoms: C_16  and  O_17 
REMARK    5  A    between atoms: O_17  and  C_18 
ROOT
HETATM    1  C   UNL     1      43.275  -9.505   8.847  1.00  0.00     0.190 A 
HETATM    2  N   UNL     1      42.170  -9.663   9.619  1.00  0.00    -0.235 NA
HETATM    3  C   UNL     1      42.323  -9.548  10.956  1.00  0.00     0.119 A 
HETATM    4  C   UNL     1      43.539  -9.300  11.571  1.00  0.00     0.021 A 
HETATM    5  C   UNL     1      44.667  -9.166  10.766  1.00  0.00     0.028 A 
HETATM    6  C   UNL     1      44.541  -9.272   9.378  1.00  0.00     0.097 A 
HETATM    7  C   UNL     1      45.693  -9.157   8.541  1.00  0.00     0.104 C 
HETATM    8  N   UNL     1      46.649  -9.067   7.890  1.00  0.00    -0.191 NA
ENDROOT
BRANCH   1   9
HETATM    9  O   UNL     1      43.187  -9.621   7.462  1.00  0.00    -0.291 OA
BRANCH   9  10
HETATM   10  C   UNL     1      42.731 -10.782   6.889  1.00  0.00     0.078 A 
HETATM   11  C   UNL     1      43.630 -11.842   6.860  1.00  0.00     0.039 A 
HETATM   12  C   UNL     1      43.288 -13.033   6.217  1.00  0.00     0.033 A 
HETATM   13  C   UNL     1      42.049 -13.185   5.571  1.00  0.00     0.040 A 
HETATM   14  C   UNL     1      41.114 -12.136   5.644  1.00  0.00    -0.033 A 
HETATM   15  C   UNL     1      39.693 -12.218   5.159  1.00  0.00     0.050 C 
HETATM   16  C   UNL     1      41.496 -10.921   6.258  1.00  0.00     0.046 A 
BRANCH  13  17
HETATM   17  N   UNL     1      41.853 -14.432   4.933  1.00  0.00    -0.326 N 
HETATM   18  C   UNL     1      42.322 -14.819   3.689  1.00  0.00     0.227 C 
HETATM   19  O   UNL     1      43.090 -14.178   2.975  1.00  0.00    -0.273 OA
HETATM   20  H   UNL     1      41.596 -15.196   5.546  1.00  0.00     0.169 HD
BRANCH  18  21
HETATM   21  C   UNL     1      41.818 -16.200   3.261  1.00  0.00     0.159 C 
BRANCH  21  22
HETATM   22  C   UNL     1      42.860 -17.260   3.443  1.00  0.00     0.017 A 
HETATM   23  N   UNL     1      43.075 -18.251   2.509  1.00  0.00    -0.369 N 
HETATM   24  H   UNL     1      42.580 -18.321   1.623  1.00  0.00     0.165 HD
HETATM   25  C   UNL     1      44.061 -19.093   2.945  1.00  0.00     0.088 A 
HETATM   26  C   UNL     1      44.480 -18.653   4.180  1.00  0.00     0.019 A 
HETATM   27  C   UNL     1      43.724 -17.499   4.496  1.00  0.00     0.027 A 
ENDBRANCH  21  22
ENDBRANCH  18  21
ENDBRANCH  13  17
ENDBRANCH   9  10
ENDBRANCH   1   9
TORSDOF 5
ENDMDL
MODEL 7
REMARK VINA RESULT:      -7.3      1.977      2.816
REMARK  5 active torsions:
REMARK  status: ('A' for Active; 'I' for Inactive)
REMARK    1  A    between atoms: C_3  and  N_4 
REMARK       I    between atoms: N_4  and  C_5 
REMARK    2  A    between atoms: C_5  and  C_6 
REMARK    3  A    between atoms: C_6  and  C_7 
REMARK    4  A    between atoms: C_16  and  O_17 
REMARK    5  A    between atoms: O_17  and  C_18 
ROOT
HETATM    1  C   UNL     1      42.719 -15.586   4.452  1.00  0.00     0.190 A 
HETATM    2  N   UNL     1      42.053 -14.619   5.133  1.00  0.00    -0.235 NA
HETATM    3  C   UNL     1      41.776 -14.853   6.434  1.00  0.00     0.119 A 
HETATM    4  C   UNL     1      42.114 -16.024   7.092  1.00  0.00     0.021 A 
HETATM    5  C   UNL     1      42.774 -17.015   6.372  1.00  0.00     0.028 A 
HETATM    6  C   UNL     1      43.083 -16.801   5.025  1.00  0.00     0.097 A 
HETATM    7  C   UNL     1      43.742 -17.818   4.269  1.00  0.00     0.104 C 
HETATM    8  N   UNL     1      44.270 -18.667   3.680  1.00  0.00    -0.191 NA
ENDROOT
BRANCH   1   9
HETATM    9  O   UNL     1      43.028 -15.411   3.105  1.00  0.00    -0.291 OA
BRANCH   9  10
HETATM   10  C   UNL     1      42.065 -14.995   2.219  1.00  0.00     0.078 A 
HETATM   11  C   UNL     1      41.110 -15.943   1.868  1.00  0.00     0.039 A 
HETATM   12  C   UNL     1      40.144 -15.640   0.905  1.00  0.00     0.033 A 
HETATM   13  C   UNL     1      40.124 -14.393   0.258  1.00  0.00     0.040 A 
HETATM   14  C   UNL     1      41.054 -13.411   0.648  1.00  0.00    -0.033 A 
HETATM   15  C   UNL     1      41.043 -11.983   0.177  1.00  0.00     0.050 C 
HETATM   16  C   UNL     1      42.053 -13.751   1.590  1.00  0.00     0.046 A 
BRANCH  13  17
HETATM   17  N   UNL     1      39.113 -14.239  -0.719  1.00  0.00    -0.326 N 
HETATM   18  C   UNL     1      39.280 -14.135  -2.089  1.00  0.00     0.227 C 
HETATM   19  O   UNL     1      40.337 -14.273  -2.701  1.00  0.00    -0.273 OA
HETATM   20  H   UNL     1      38.182 -14.512  -0.425  1.00  0.00     0.169 HD
BRANCH  18  21
HETATM   21  C   UNL     1      37.972 -13.858  -2.834  1.00  0.00     0.159 C 
BRANCH  21  22
HETATM   22  C   UNL     1      37.635 -12.399  -2.857  1.00  0.00     0.017 A 
HETATM   23  N   UNL     1      36.386 -11.935  -3.210  1.00  0.00    -0.369 N 
HETATM   24  H   UNL     1      35.597 -12.533  -3.443  1.00  0.00     0.165 HD
HETATM   25  C   UNL     1      36.371 -10.568  -3.171  1.00  0.00     0.088 A 
HETATM   26  C   UNL     1      37.626 -10.140  -2.803  1.00  0.00     0.019 A 
HETATM   27  C   UNL     1      38.424 -11.291  -2.606  1.00  0.00     0.027 A 
ENDBRANCH  21  22
ENDBRANCH  18  21
ENDBRANCH  13  17
ENDBRANCH   9  10
ENDBRANCH   1   9
TORSDOF 5
ENDMDL
MODEL 8
REMARK VINA RESULT:      -6.9      3.087      4.030
REMARK  5 active torsions:
REMARK  status: ('A' for Active; 'I' for Inactive)
REMARK    1  A    between atoms: C_3  and  N_4 
REMARK       I    between atoms: N_4  and  C_5 
REMARK    2  A    between atoms: C_5  and  C_6 
REMARK    3  A    between atoms: C_6  and  C_7 
REMARK    4  A    between atoms: C_16  and  O_17 
REMARK    5  A    between atoms: O_17  and  C_18 
ROOT
HETATM    1  C   UNL     1      41.895 -16.561   4.545  1.00  0.00     0.190 A 
HETATM    2  N   UNL     1      42.974 -17.208   4.034  1.00  0.00    -0.235 NA
HETATM    3  C   UNL     1      44.042 -17.372   4.844  1.00  0.00     0.119 A 
HETATM    4  C   UNL     1      44.099 -16.900   6.145  1.00  0.00     0.021 A 
HETATM    5  C   UNL     1      42.994 -16.216   6.645  1.00  0.00     0.028 A 
HETATM    6  C   UNL     1      41.869 -16.037   5.834  1.00  0.00     0.097 A 
HETATM    7  C   UNL     1      40.736 -15.320   6.328  1.00  0.00     0.104 C 
HETATM    8  N   UNL     1      39.835 -14.725   6.754  1.00  0.00    -0.191 NA
ENDROOT
BRANCH   1   9
HETATM    9  O   UNL     1      40.765 -16.351   3.760  1.00  0.00    -0.291 OA
BRANCH   9  10
HETATM   10  C   UNL     1      40.786 -15.430   2.742  1.00  0.00     0.078 A 
HETATM   11  C   UNL     1      40.184 -15.824   1.552  1.00  0.00     0.039 A 
HETATM   12  C   UNL     1      40.235 -14.990   0.432  1.00  0.00     0.033 A 
HETATM   13  C   UNL     1      40.904 -13.754   0.471  1.00  0.00     0.040 A 
HETATM   14  C   UNL     1      41.466 -13.326   1.688  1.00  0.00    -0.033 A 
HETATM   15  C   UNL     1      42.054 -11.963   1.930  1.00  0.00     0.050 C 
HETATM   16  C   UNL     1      41.447 -14.204   2.797  1.00  0.00     0.046 A 
BRANCH  13  17
HETATM   17  N   UNL     1      40.904 -13.032  -0.745  1.00  0.00    -0.326 N 
HETATM   18  C   UNL     1      40.055 -12.000  -1.106  1.00  0.00     0.227 C 
HETATM   19  O   UNL     1      39.225 -11.458  -0.379  1.00  0.00    -0.273 OA
HETATM   20  H   UNL     1      41.766 -13.077  -1.274  1.00  0.00     0.169 HD
BRANCH  18  21
HETATM   21  C   UNL     1      40.264 -11.528  -2.547  1.00  0.00     0.159 C 
BRANCH  21  22
HETATM   22  C   UNL     1      40.946 -10.196  -2.610  1.00  0.00     0.017 A 
HETATM   23  N   UNL     1      41.652  -9.678  -1.546  1.00  0.00    -0.369 N 
HETATM   24  H   UNL     1      41.797 -10.162  -0.663  1.00  0.00     0.165 HD
HETATM   25  C   UNL     1      42.142  -8.443  -1.872  1.00  0.00     0.088 A 
HETATM   26  C   UNL     1      41.736  -8.150  -3.154  1.00  0.00     0.019 A 
HETATM   27  C   UNL     1      40.982  -9.253  -3.621  1.00  0.00     0.027 A 
ENDBRANCH  21  22
ENDBRANCH  18  21
ENDBRANCH  13  17
ENDBRANCH   9  10
ENDBRANCH   1   9
TORSDOF 5
ENDMDL
MODEL 9
REMARK VINA RESULT:      -6.8      4.518      6.772
REMARK  5 active torsions:
REMARK  status: ('A' for Active; 'I' for Inactive)
REMARK    1  A    between atoms: C_3  and  N_4 
REMARK       I    between atoms: N_4  and  C_5 
REMARK    2  A    between atoms: C_5  and  C_6 
REMARK    3  A    between atoms: C_6  and  C_7 
REMARK    4  A    between atoms: C_16  and  O_17 
REMARK    5  A    between atoms: O_17  and  C_18 
ROOT
HETATM    1  C   UNL     1      44.326 -11.072   7.540  1.00  0.00     0.190 A 
HETATM    2  N   UNL     1      45.547 -11.422   7.061  1.00  0.00    -0.235 NA
HETATM    3  C   UNL     1      46.570 -10.568   7.286  1.00  0.00     0.119 A 
HETATM    4  C   UNL     1      46.433  -9.362   7.951  1.00  0.00     0.021 A 
HETATM    5  C   UNL     1      45.169  -9.006   8.412  1.00  0.00     0.028 A 
HETATM    6  C   UNL     1      44.090  -9.871   8.204  1.00  0.00     0.097 A 
HETATM    7  C   UNL     1      42.783  -9.510   8.655  1.00  0.00     0.104 C 
HETATM    8  N   UNL     1      41.732  -9.184   9.025  1.00  0.00    -0.191 NA
ENDROOT
BRANCH   1   9
HETATM    9  O   UNL     1      43.227 -11.902   7.336  1.00  0.00    -0.291 OA
BRANCH   9  10
HETATM   10  C   UNL     1      42.808 -12.201   6.063  1.00  0.00     0.078 A 
HETATM   11  C   UNL     1      42.743 -13.553   5.745  1.00  0.00     0.039 A 
HETATM   12  C   UNL     1      42.414 -13.952   4.447  1.00  0.00     0.033 A 
HETATM   13  C   UNL     1      42.164 -13.010   3.435  1.00  0.00     0.040 A 
HETATM   14  C   UNL     1      42.174 -11.642   3.764  1.00  0.00    -0.033 A 
HETATM   15  C   UNL     1      41.755 -10.533   2.839  1.00  0.00     0.050 C 
HETATM   16  C   UNL     1      42.555 -11.256   5.070  1.00  0.00     0.046 A 
BRANCH  13  17
HETATM   17  N   UNL     1      41.878 -13.557   2.162  1.00  0.00    -0.326 N 
HETATM   18  C   UNL     1      40.648 -13.984   1.691  1.00  0.00     0.227 C 
HETATM   19  O   UNL     1      39.569 -13.853   2.265  1.00  0.00    -0.273 OA
HETATM   20  H   UNL     1      42.562 -13.357   1.442  1.00  0.00     0.169 HD
BRANCH  18  21
HETATM   21  C   UNL     1      40.728 -14.633   0.307  1.00  0.00     0.159 C 
BRANCH  21  22
HETATM   22  C   UNL     1      39.693 -14.090  -0.630  1.00  0.00     0.017 A 
HETATM   23  N   UNL     1      38.959 -12.960  -0.343  1.00  0.00    -0.369 N 
HETATM   24  H   UNL     1      39.081 -12.393   0.493  1.00  0.00     0.165 HD
HETATM   25  C   UNL     1      38.074 -12.713  -1.357  1.00  0.00     0.088 A 
HETATM   26  C   UNL     1      38.226 -13.700  -2.303  1.00  0.00     0.019 A 
HETATM   27  C   UNL     1      39.245 -14.569  -1.847  1.00  0.00     0.027 A 
ENDBRANCH  21  22
ENDBRANCH  18  21
ENDBRANCH  13  17
ENDBRANCH   9  10
ENDBRANCH   1   9
TORSDOF 5
ENDMDL
MODEL 10
REMARK VINA RESULT:      -6.8      1.659      2.781
REMARK  5 active torsions:
REMARK  status: ('A' for Active; 'I' for Inactive)
REMARK    1  A    between atoms: C_3  and  N_4 
REMARK       I    between atoms: N_4  and  C_5 
REMARK    2  A    between atoms: C_5  and  C_6 
REMARK    3  A    between atoms: C_6  and  C_7 
REMARK    4  A    between atoms: C_16  and  O_17 
REMARK    5  A    between atoms: O_17  and  C_18 
ROOT
HETATM    1  C   UNL     1      43.822 -17.881   3.963  1.00  0.00     0.190 A 
HETATM    2  N   UNL     1      43.871 -18.679   2.866  1.00  0.00    -0.235 NA
HETATM    3  C   UNL     1      43.909 -20.014   3.070  1.00  0.00     0.119 A 
HETATM    4  C   UNL     1      43.923 -20.599   4.325  1.00  0.00     0.021 A 
HETATM    5  C   UNL     1      43.898 -19.765   5.439  1.00  0.00     0.028 A 
HETATM    6  C   UNL     1      43.850 -18.379   5.263  1.00  0.00     0.097 A 
HETATM    7  C   UNL     1      43.844 -17.511   6.397  1.00  0.00     0.104 C 
HETATM    8  N   UNL     1      43.850 -16.832   7.339  1.00  0.00    -0.191 NA
ENDROOT
BRANCH   1   9
HETATM    9  O   UNL     1      43.789 -16.496   3.823  1.00  0.00    -0.291 OA
BRANCH   9  10
HETATM   10  C   UNL     1      42.713 -15.882   3.230  1.00  0.00     0.078 A 
HETATM   11  C   UNL     1      42.503 -16.184   1.889  1.00  0.00     0.039 A 
HETATM   12  C   UNL     1      41.488 -15.539   1.178  1.00  0.00     0.033 A 
HETATM   13  C   UNL     1      40.676 -14.566   1.783  1.00  0.00     0.040 A 
HETATM   14  C   UNL     1      40.848 -14.297   3.154  1.00  0.00    -0.033 A 
HETATM   15  C   UNL     1      39.946 -13.418   3.976  1.00  0.00     0.050 C 
HETATM   16  C   UNL     1      41.910 -14.924   3.846  1.00  0.00     0.046 A 
BRANCH  13  17
HETATM   17  N   UNL     1      39.714 -13.972   0.933  1.00  0.00    -0.326 N 
HETATM   18  C   UNL     1      39.937 -13.027  -0.054  1.00  0.00     0.227 C 
HETATM   19  O   UNL     1      41.034 -12.627  -0.436  1.00  0.00    -0.273 OA
HETATM   20  H   UNL     1      38.843 -14.483   0.843  1.00  0.00     0.169 HD
BRANCH  18  21
HETATM   21  C   UNL     1      38.646 -12.518  -0.699  1.00  0.00     0.159 C 
BRANCH  21  22
HETATM   22  C   UNL     1      38.147 -11.265  -0.048  1.00  0.00     0.017 A 
HETATM   23  N   UNL     1      38.635 -10.018  -0.376  1.00  0.00    -0.369 N 
HETATM   24  H   UNL     1      39.333  -9.846  -1.096  1.00  0.00     0.165 HD
HETATM   25  C   UNL     1      38.023  -9.065   0.391  1.00  0.00     0.088 A 
HETATM   26  C   UNL     1      37.140  -9.700   1.234  1.00  0.00     0.019 A 
HETATM   27  C   UNL     1      37.218 -11.086   0.960  1.00  0.00     0.027 A 
ENDBRANCH  21  22
ENDBRANCH  18  21
ENDBRANCH  13  17
ENDBRANCH   9  10
ENDBRANCH   1   9
TORSDOF 5
ENDMDL
