MODEL 1
REMARK VINA RESULT:      -7.4      0.000      0.000
REMARK  4 active torsions:
REMARK  status: ('A' for Active; 'I' for Inactive)
REMARK    1  A    between atoms: C_5  and  N_6 
REMARK    2  A    between atoms: N_10  and  C_11 
REMARK    3  A    between atoms: C_11  and  C_12 
REMARK    4  A    between atoms: C_13  and  O_14 
ROOT
HETATM    1  N   UNL     1      39.821 -13.484   0.128  1.00  0.00    -0.312 N 
HETATM    2  C   UNL     1      40.217 -12.876   1.332  1.00  0.00     0.253 C 
HETATM    3  O   UNL     1      40.402 -11.665   1.479  1.00  0.00    -0.271 OA
HETATM    4  C   UNL     1      40.287 -13.774   2.575  1.00  0.00     0.375 C 
HETATM    5  N   UNL     1      40.720 -15.165   2.332  1.00  0.00     0.103 N 
HETATM    6  C   UNL     1      39.863 -15.732   1.289  1.00  0.00     0.293 C 
HETATM    7  C   UNL     1      39.891 -14.943  -0.022  1.00  0.00     0.162 C 
ENDROOT
BRANCH   5   8
HETATM    8  C   UNL     1      42.153 -15.257   1.999  1.00  0.00     0.314 C 
BRANCH   8   9
HETATM    9  C   UNL     1      42.869 -16.319   2.807  1.00  0.00     0.006 A 
HETATM   10  C   UNL     1      43.359 -16.064   4.094  1.00  0.00     0.095 A 
HETATM   11  C   UNL     1      43.992 -17.073   4.831  1.00  0.00     0.069 A 
HETATM   12 CL   UNL     1      44.582 -16.749   6.420  1.00  0.00    -0.081 Cl
HETATM   13  C   UNL     1      44.150 -18.348   4.295  1.00  0.00     0.050 A 
HETATM   14  C   UNL     1      43.673 -18.608   3.013  1.00  0.00     0.036 A 
HETATM   15 CL   UNL     1      43.858 -20.181   2.340  1.00  0.00    -0.084 Cl
HETATM   16  C   UNL     1      43.041 -17.609   2.272  1.00  0.00     0.035 A 
BRANCH  10  17
HETATM   17  O   UNL     1      43.197 -14.810   4.618  1.00  0.00    -0.358 OA
HETATM   18  H   UNL     1      43.563 -14.817   5.523  1.00  0.00     0.218 HD
ENDBRANCH  10  17
ENDBRANCH   8   9
ENDBRANCH   5   8
BRANCH   1  19
HETATM   19  C   UNL     1      39.527 -12.679  -0.993  1.00  0.00     0.073 A 
HETATM   20  C   UNL     1      40.348 -12.240  -2.065  1.00  0.00     0.169 A 
HETATM   21  N   UNL     1      39.700 -11.454  -2.933  1.00  0.00    -0.183 NA
HETATM   22  N   UNL     1      38.463 -11.383  -2.424  1.00  0.00    -0.283 N 
HETATM   23  C   UNL     1      37.457 -10.585  -3.082  1.00  0.00     0.179 C 
HETATM   24  C   UNL     1      38.305 -12.103  -1.275  1.00  0.00     0.143 A 
ENDBRANCH   1  19
TORSDOF 4
ENDMDL
MODEL 2
REMARK VINA RESULT:      -7.2      2.246      2.846
REMARK  4 active torsions:
REMARK  status: ('A' for Active; 'I' for Inactive)
REMARK    1  A    between atoms: C_5  and  N_6 
REMARK    2  A    between atoms: N_10  and  C_11 
REMARK    3  A    between atoms: C_11  and  C_12 
REMARK    4  A    between atoms: C_13  and  O_14 
ROOT
HETATM    1  N   UNL     1      39.821 -12.938   1.889  1.00  0.00    -0.312 N 
HETATM    2  C   UNL     1      39.946 -13.788   3.002  1.00  0.00     0.253 C 
HETATM    3  O   UNL     1      39.888 -13.417   4.177  1.00  0.00    -0.271 OA
HETATM    4  C   UNL     1      40.022 -15.295   2.722  1.00  0.00     0.375 C 
HETATM    5  N   UNL     1      40.728 -15.677   1.481  1.00  0.00     0.103 N 
HETATM    6  C   UNL     1      40.125 -14.939   0.370  1.00  0.00     0.293 C 
HETATM    7  C   UNL     1      40.173 -13.420   0.547  1.00  0.00     0.162 C 
ENDROOT
BRANCH   5   8
HETATM    8  C   UNL     1      42.184 -15.469   1.577  1.00  0.00     0.314 C 
BRANCH   8   9
HETATM    9  C   UNL     1      42.857 -16.477   2.484  1.00  0.00     0.006 A 
HETATM   10  C   UNL     1      43.336 -16.127   3.752  1.00  0.00     0.095 A 
HETATM   11  C   UNL     1      43.928 -17.087   4.583  1.00  0.00     0.069 A 
HETATM   12 CL   UNL     1      44.506 -16.645   6.148  1.00  0.00    -0.081 Cl
HETATM   13  C   UNL     1      44.055 -18.407   4.160  1.00  0.00     0.050 A 
HETATM   14  C   UNL     1      43.588 -18.762   2.898  1.00  0.00     0.036 A 
HETATM   15 CL   UNL     1      43.734 -20.392   2.365  1.00  0.00    -0.084 Cl
HETATM   16  C   UNL     1      42.996 -17.813   2.064  1.00  0.00     0.035 A 
BRANCH  10  17
HETATM   17  O   UNL     1      43.205 -14.828   4.164  1.00  0.00    -0.358 OA
HETATM   18  H   UNL     1      43.323 -14.255   3.383  1.00  0.00     0.218 HD
ENDBRANCH  10  17
ENDBRANCH   8   9
ENDBRANCH   5   8
BRANCH   1  19
HETATM   19  C   UNL     1      39.529 -11.572   2.087  1.00  0.00     0.073 A 
HETATM   20  C   UNL     1      38.289 -10.900   2.257  1.00  0.00     0.169 A 
HETATM   21  N   UNL     1      38.425  -9.576   2.390  1.00  0.00    -0.183 NA
HETATM   22  N   UNL     1      39.750  -9.390   2.307  1.00  0.00    -0.283 N 
HETATM   23  C   UNL     1      40.296  -8.057   2.383  1.00  0.00     0.179 C 
HETATM   24  C   UNL     1      40.453 -10.547   2.136  1.00  0.00     0.143 A 
ENDBRANCH   1  19
TORSDOF 4
ENDMDL
MODEL 3
REMARK VINA RESULT:      -7.1      1.630      2.716
REMARK  4 active torsions:
REMARK  status: ('A' for Active; 'I' for Inactive)
REMARK    1  A    between atoms: C_5  and  N_6 
REMARK    2  A    between atoms: N_10  and  C_11 
REMARK    3  A    between atoms: C_11  and  C_12 
REMARK    4  A    between atoms: C_13  and  O_14 
ROOT
HETATM    1  N   UNL     1      40.131 -13.251   0.929  1.00  0.00    -0.312 N 
HETATM    2  C   UNL     1      41.037 -12.202   1.166  1.00  0.00     0.253 C 
HETATM    3  O   UNL     1      41.308 -11.313   0.354  1.00  0.00    -0.271 OA
HETATM    4  C   UNL     1      41.616 -12.090   2.583  1.00  0.00     0.375 C 
HETATM    5  N   UNL     1      41.850 -13.372   3.278  1.00  0.00     0.103 N 
HETATM    6  C   UNL     1      40.602 -14.138   3.250  1.00  0.00     0.293 C 
HETATM    7  C   UNL     1      40.078 -14.402   1.837  1.00  0.00     0.162 C 
ENDROOT
BRANCH   5   8
HETATM    8  C   UNL     1      42.986 -14.120   2.710  1.00  0.00     0.314 C 
BRANCH   8   9
HETATM    9  C   UNL     1      43.202 -15.454   3.393  1.00  0.00     0.006 A 
HETATM   10  C   UNL     1      43.223 -16.657   2.676  1.00  0.00     0.095 A 
HETATM   11  C   UNL     1      43.454 -17.875   3.328  1.00  0.00     0.069 A 
HETATM   12 CL   UNL     1      43.489 -19.349   2.432  1.00  0.00    -0.081 Cl
HETATM   13  C   UNL     1      43.661 -17.912   4.705  1.00  0.00     0.050 A 
HETATM   14  C   UNL     1      43.634 -16.722   5.426  1.00  0.00     0.036 A 
HETATM   15 CL   UNL     1      43.893 -16.752   7.127  1.00  0.00    -0.084 Cl
HETATM   16  C   UNL     1      43.405 -15.504   4.784  1.00  0.00     0.035 A 
BRANCH  10  17
HETATM   17  O   UNL     1      43.024 -16.614   1.322  1.00  0.00    -0.358 OA
HETATM   18  H   UNL     1      43.695 -16.017   0.942  1.00  0.00     0.218 HD
ENDBRANCH  10  17
ENDBRANCH   8   9
ENDBRANCH   5   8
BRANCH   1  19
HETATM   19  C   UNL     1      39.401 -13.279  -0.279  1.00  0.00     0.073 A 
HETATM   20  C   UNL     1      38.420 -12.391  -0.796  1.00  0.00     0.169 A 
HETATM   21  N   UNL     1      37.932 -12.781  -1.978  1.00  0.00    -0.183 NA
HETATM   22  N   UNL     1      38.595 -13.919  -2.229  1.00  0.00    -0.283 N 
HETATM   23  C   UNL     1      38.317 -14.665  -3.431  1.00  0.00     0.179 C 
HETATM   24  C   UNL     1      39.488 -14.253  -1.253  1.00  0.00     0.143 A 
ENDBRANCH   1  19
TORSDOF 4
ENDMDL
MODEL 4
REMARK VINA RESULT:      -7.1      3.902      7.942
REMARK  4 active torsions:
REMARK  status: ('A' for Active; 'I' for Inactive)
REMARK    1  A    between atoms: C_5  and  N_6 
REMARK    2  A    between atoms: N_10  and  C_11 
REMARK    3  A    between atoms: C_11  and  C_12 
REMARK    4  A    between atoms: C_13  and  O_14 
ROOT
HETATM    1  N   UNL     1      43.182 -16.642   3.210  1.00  0.00    -0.312 N 
HETATM    2  C   UNL     1      42.603 -15.920   4.268  1.00  0.00     0.253 C 
HETATM    3  O   UNL     1      42.262 -16.411   5.348  1.00  0.00    -0.271 OA
HETATM    4  C   UNL     1      42.521 -14.396   4.108  1.00  0.00     0.375 C 
HETATM    5  N   UNL     1      42.281 -13.912   2.732  1.00  0.00     0.103 N 
HETATM    6  C   UNL     1      43.296 -14.506   1.859  1.00  0.00     0.293 C 
HETATM    7  C   UNL     1      43.301 -16.036   1.878  1.00  0.00     0.162 C 
ENDROOT
BRANCH   5   8
HETATM    8  C   UNL     1      40.908 -14.186   2.272  1.00  0.00     0.314 C 
BRANCH   8   9
HETATM    9  C   UNL     1      40.672 -13.729   0.847  1.00  0.00     0.006 A 
HETATM   10  C   UNL     1      39.988 -14.524  -0.080  1.00  0.00     0.095 A 
HETATM   11  C   UNL     1      39.758 -14.064  -1.384  1.00  0.00     0.069 A 
HETATM   12 CL   UNL     1      38.903 -15.049  -2.515  1.00  0.00    -0.081 Cl
HETATM   13  C   UNL     1      40.211 -12.809  -1.782  1.00  0.00     0.050 A 
HETATM   14  C   UNL     1      40.899 -12.016  -0.868  1.00  0.00     0.036 A 
HETATM   15 CL   UNL     1      41.461 -10.461  -1.345  1.00  0.00    -0.084 Cl
HETATM   16  C   UNL     1      41.133 -12.466   0.432  1.00  0.00     0.035 A 
BRANCH  10  17
HETATM   17  O   UNL     1      39.540 -15.755   0.318  1.00  0.00    -0.358 OA
HETATM   18  H   UNL     1      40.306 -16.253   0.660  1.00  0.00     0.218 HD
ENDBRANCH  10  17
ENDBRANCH   8   9
ENDBRANCH   5   8
BRANCH   1  19
HETATM   19  C   UNL     1      43.485 -18.009   3.385  1.00  0.00     0.073 A 
HETATM   20  C   UNL     1      43.350 -19.114   2.503  1.00  0.00     0.169 A 
HETATM   21  N   UNL     1      43.724 -20.274   3.055  1.00  0.00    -0.183 NA
HETATM   22  N   UNL     1      44.100 -19.922   4.292  1.00  0.00    -0.283 N 
HETATM   23  C   UNL     1      44.553 -20.929   5.221  1.00  0.00     0.179 C 
HETATM   24  C   UNL     1      43.987 -18.584   4.536  1.00  0.00     0.143 A 
ENDBRANCH   1  19
TORSDOF 4
ENDMDL
MODEL 5
REMARK VINA RESULT:      -6.8      4.100      7.816
REMARK  4 active torsions:
REMARK  status: ('A' for Active; 'I' for Inactive)
REMARK    1  A    between atoms: C_5  and  N_6 
REMARK    2  A    between atoms: N_10  and  C_11 
REMARK    3  A    between atoms: C_11  and  C_12 
REMARK    4  A    between atoms: C_13  and  O_14 
ROOT
HETATM    1  N   UNL     1      42.581 -15.731   3.360  1.00  0.00    -0.312 N 
HETATM    2  C   UNL     1      41.446 -15.408   4.125  1.00  0.00     0.253 C 
HETATM    3  O   UNL     1      40.767 -16.226   4.752  1.00  0.00    -0.271 OA
HETATM    4  C   UNL     1      41.121 -13.918   4.294  1.00  0.00     0.375 C 
HETATM    5  N   UNL     1      41.432 -13.062   3.130  1.00  0.00     0.103 N 
HETATM    6  C   UNL     1      42.833 -13.285   2.765  1.00  0.00     0.293 C 
HETATM    7  C   UNL     1      43.156 -14.744   2.438  1.00  0.00     0.162 C 
ENDROOT
BRANCH   5   8
HETATM    8  C   UNL     1      40.511 -13.290   2.002  1.00  0.00     0.314 C 
BRANCH   8   9
HETATM    9  C   UNL     1      40.733 -12.315   0.866  1.00  0.00     0.006 A 
HETATM   10  C   UNL     1      40.892 -12.744  -0.457  1.00  0.00     0.095 A 
HETATM   11  C   UNL     1      41.066 -11.819  -1.494  1.00  0.00     0.069 A 
HETATM   12 CL   UNL     1      41.250 -12.361  -3.122  1.00  0.00    -0.081 Cl
HETATM   13  C   UNL     1      41.090 -10.453  -1.226  1.00  0.00     0.050 A 
HETATM   14  C   UNL     1      40.941 -10.017   0.087  1.00  0.00     0.036 A 
HETATM   15 CL   UNL     1      40.964  -8.331   0.432  1.00  0.00    -0.084 Cl
HETATM   16  C   UNL     1      40.766 -10.932   1.126  1.00  0.00     0.035 A 
BRANCH  10  17
HETATM   17  O   UNL     1      40.862 -14.089  -0.716  1.00  0.00    -0.358 OA
HETATM   18  H   UNL     1      40.534 -14.209  -1.627  1.00  0.00     0.218 HD
ENDBRANCH  10  17
ENDBRANCH   8   9
ENDBRANCH   5   8
BRANCH   1  19
HETATM   19  C   UNL     1      43.056 -17.059   3.349  1.00  0.00     0.073 A 
HETATM   20  C   UNL     1      43.850 -17.773   4.286  1.00  0.00     0.169 A 
HETATM   21  N   UNL     1      44.119 -19.024   3.898  1.00  0.00    -0.183 NA
HETATM   22  N   UNL     1      43.503 -19.122   2.712  1.00  0.00    -0.283 N 
HETATM   23  C   UNL     1      43.588 -20.346   1.953  1.00  0.00     0.179 C 
HETATM   24  C   UNL     1      42.846 -17.983   2.344  1.00  0.00     0.143 A 
ENDBRANCH   1  19
TORSDOF 4
ENDMDL
MODEL 6
REMARK VINA RESULT:      -6.8      1.403      2.511
REMARK  4 active torsions:
REMARK  status: ('A' for Active; 'I' for Inactive)
REMARK    1  A    between atoms: C_5  and  N_6 
REMARK    2  A    between atoms: N_10  and  C_11 
REMARK    3  A    between atoms: C_11  and  C_12 
REMARK    4  A    between atoms: C_13  and  O_14 
ROOT
HETATM    1  N   UNL     1      39.806 -13.506   0.531  1.00  0.00    -0.312 N 
HETATM    2  C   UNL     1      39.787 -12.885   1.792  1.00  0.00     0.253 C 
HETATM    3  O   UNL     1      39.732 -11.665   1.972  1.00  0.00    -0.271 OA
HETATM    4  C   UNL     1      39.691 -13.802   3.019  1.00  0.00     0.375 C 
HETATM    5  N   UNL     1      40.390 -15.098   2.901  1.00  0.00     0.103 N 
HETATM    6  C   UNL     1      39.922 -15.757   1.680  1.00  0.00     0.293 C 
HETATM    7  C   UNL     1      40.146 -14.929   0.413  1.00  0.00     0.162 C 
ENDROOT
BRANCH   5   8
HETATM    8  C   UNL     1      41.856 -14.951   2.938  1.00  0.00     0.314 C 
BRANCH   8   9
HETATM    9  C   UNL     1      42.497 -15.801   4.015  1.00  0.00     0.006 A 
HETATM   10  C   UNL     1      43.155 -17.000   3.717  1.00  0.00     0.095 A 
HETATM   11  C   UNL     1      43.765 -17.752   4.730  1.00  0.00     0.069 A 
HETATM   12 CL   UNL     1      44.583 -19.223   4.348  1.00  0.00    -0.081 Cl
HETATM   13  C   UNL     1      43.723 -17.323   6.053  1.00  0.00     0.050 A 
HETATM   14  C   UNL     1      43.064 -16.135   6.359  1.00  0.00     0.036 A 
HETATM   15 CL   UNL     1      43.007 -15.590   7.991  1.00  0.00    -0.084 Cl
HETATM   16  C   UNL     1      42.454 -15.380   5.357  1.00  0.00     0.035 A 
BRANCH  10  17
HETATM   17  O   UNL     1      43.198 -17.416   2.413  1.00  0.00    -0.358 OA
HETATM   18  H   UNL     1      42.336 -17.822   2.203  1.00  0.00     0.218 HD
ENDBRANCH  10  17
ENDBRANCH   8   9
ENDBRANCH   5   8
BRANCH   1  19
HETATM   19  C   UNL     1      39.674 -12.720  -0.633  1.00  0.00     0.073 A 
HETATM   20  C   UNL     1      38.529 -12.377  -1.400  1.00  0.00     0.169 A 
HETATM   21  N   UNL     1      38.820 -11.625  -2.468  1.00  0.00    -0.183 NA
HETATM   22  N   UNL     1      40.150 -11.481  -2.393  1.00  0.00    -0.283 N 
HETATM   23  C   UNL     1      40.852 -10.735  -3.409  1.00  0.00     0.179 C 
HETATM   24  C   UNL     1      40.706 -12.104  -1.313  1.00  0.00     0.143 A 
ENDBRANCH   1  19
TORSDOF 4
ENDMDL
MODEL 7
REMARK VINA RESULT:      -6.7      4.735      7.737
REMARK  4 active torsions:
REMARK  status: ('A' for Active; 'I' for Inactive)
REMARK    1  A    between atoms: C_5  and  N_6 
REMARK    2  A    between atoms: N_10  and  C_11 
REMARK    3  A    between atoms: C_11  and  C_12 
REMARK    4  A    between atoms: C_13  and  O_14 
ROOT
HETATM    1  N   UNL     1      43.060 -12.959   4.823  1.00  0.00    -0.312 N 
HETATM    2  C   UNL     1      43.532 -12.546   3.565  1.00  0.00     0.253 C 
HETATM    3  O   UNL     1      44.195 -11.524   3.365  1.00  0.00    -0.271 OA
HETATM    4  C   UNL     1      43.318 -13.511   2.390  1.00  0.00     0.375 C 
HETATM    5  N   UNL     1      42.068 -14.298   2.432  1.00  0.00     0.103 N 
HETATM    6  C   UNL     1      42.005 -14.980   3.726  1.00  0.00     0.293 C 
HETATM    7  C   UNL     1      42.059 -14.029   4.923  1.00  0.00     0.162 C 
ENDROOT
BRANCH   5   8
HETATM    8  C   UNL     1      40.876 -13.473   2.168  1.00  0.00     0.314 C 
BRANCH   8   9
HETATM    9  C   UNL     1      40.615 -13.287   0.688  1.00  0.00     0.006 A 
HETATM   10  C   UNL     1      39.977 -14.269  -0.080  1.00  0.00     0.095 A 
HETATM   11  C   UNL     1      39.722 -14.059  -1.441  1.00  0.00     0.069 A 
HETATM   12 CL   UNL     1      38.925 -15.272  -2.374  1.00  0.00    -0.081 Cl
HETATM   13  C   UNL     1      40.104 -12.870  -2.057  1.00  0.00     0.050 A 
HETATM   14  C   UNL     1      40.746 -11.892  -1.303  1.00  0.00     0.036 A 
HETATM   15 CL   UNL     1      41.220 -10.416  -2.051  1.00  0.00    -0.084 Cl
HETATM   16  C   UNL     1      41.004 -12.093   0.054  1.00  0.00     0.035 A 
BRANCH  10  17
HETATM   17  O   UNL     1      39.599 -15.434   0.533  1.00  0.00    -0.358 OA
HETATM   18  H   UNL     1      39.529 -16.122  -0.156  1.00  0.00     0.218 HD
ENDBRANCH  10  17
ENDBRANCH   8   9
ENDBRANCH   5   8
BRANCH   1  19
HETATM   19  C   UNL     1      43.416 -12.225   5.974  1.00  0.00     0.073 A 
HETATM   20  C   UNL     1      44.507 -12.370   6.871  1.00  0.00     0.169 A 
HETATM   21  N   UNL     1      44.482 -11.484   7.874  1.00  0.00    -0.183 NA
HETATM   22  N   UNL     1      43.378 -10.766   7.627  1.00  0.00    -0.283 N 
HETATM   23  C   UNL     1      42.991  -9.706   8.525  1.00  0.00     0.179 C 
HETATM   24  C   UNL     1      42.713 -11.160   6.502  1.00  0.00     0.143 A 
ENDBRANCH   1  19
TORSDOF 4
ENDMDL
MODEL 8
REMARK VINA RESULT:      -6.7      3.860      7.832
REMARK  4 active torsions:
REMARK  status: ('A' for Active; 'I' for Inactive)
REMARK    1  A    between atoms: C_5  and  N_6 
REMARK    2  A    between atoms: N_10  and  C_11 
REMARK    3  A    between atoms: C_11  and  C_12 
REMARK    4  A    between atoms: C_13  and  O_14 
ROOT
HETATM    1  N   UNL     1      41.926 -15.009   3.016  1.00  0.00    -0.312 N 
HETATM    2  C   UNL     1      40.607 -15.039   2.533  1.00  0.00     0.253 C 
HETATM    3  O   UNL     1      40.020 -16.058   2.158  1.00  0.00    -0.271 OA
HETATM    4  C   UNL     1      39.807 -13.731   2.610  1.00  0.00     0.375 C 
HETATM    5  N   UNL     1      40.588 -12.494   2.403  1.00  0.00     0.103 N 
HETATM    6  C   UNL     1      41.716 -12.508   3.337  1.00  0.00     0.293 C 
HETATM    7  C   UNL     1      42.625 -13.728   3.179  1.00  0.00     0.162 C 
ENDROOT
BRANCH   5   8
HETATM    8  C   UNL     1      41.014 -12.327   1.002  1.00  0.00     0.314 C 
BRANCH   8   9
HETATM    9  C   UNL     1      39.854 -12.396   0.031  1.00  0.00     0.006 A 
HETATM   10  C   UNL     1      39.735 -13.431  -0.905  1.00  0.00     0.095 A 
HETATM   11  C   UNL     1      38.637 -13.488  -1.773  1.00  0.00     0.069 A 
HETATM   12 CL   UNL     1      38.496 -14.773  -2.915  1.00  0.00    -0.081 Cl
HETATM   13  C   UNL     1      37.645 -12.511  -1.723  1.00  0.00     0.050 A 
HETATM   14  C   UNL     1      37.760 -11.475  -0.801  1.00  0.00     0.036 A 
HETATM   15 CL   UNL     1      36.539 -10.265  -0.725  1.00  0.00    -0.084 Cl
HETATM   16  C   UNL     1      38.851 -11.411   0.067  1.00  0.00     0.035 A 
BRANCH  10  17
HETATM   17  O   UNL     1      40.711 -14.391  -0.947  1.00  0.00    -0.358 OA
HETATM   18  H   UNL     1      41.424 -14.065  -1.528  1.00  0.00     0.218 HD
ENDBRANCH  10  17
ENDBRANCH   8   9
ENDBRANCH   5   8
BRANCH   1  19
HETATM   19  C   UNL     1      42.636 -16.218   3.175  1.00  0.00     0.073 A 
HETATM   20  C   UNL     1      43.218 -17.089   2.217  1.00  0.00     0.169 A 
HETATM   21  N   UNL     1      43.788 -18.167   2.766  1.00  0.00    -0.183 NA
HETATM   22  N   UNL     1      43.576 -17.996   4.078  1.00  0.00    -0.283 N 
HETATM   23  C   UNL     1      44.034 -18.989   5.018  1.00  0.00     0.179 C 
HETATM   24  C   UNL     1      42.903 -16.846   4.375  1.00  0.00     0.143 A 
ENDBRANCH   1  19
TORSDOF 4
ENDMDL
MODEL 9
REMARK VINA RESULT:      -6.5      5.085      8.023
REMARK  4 active torsions:
REMARK  status: ('A' for Active; 'I' for Inactive)
REMARK    1  A    between atoms: C_5  and  N_6 
REMARK    2  A    between atoms: N_10  and  C_11 
REMARK    3  A    between atoms: C_11  and  C_12 
REMARK    4  A    between atoms: C_13  and  O_14 
ROOT
HETATM    1  N   UNL     1      42.864 -12.362   5.134  1.00  0.00    -0.312 N 
HETATM    2  C   UNL     1      43.552 -12.148   3.928  1.00  0.00     0.253 C 
HETATM    3  O   UNL     1      44.521 -11.394   3.797  1.00  0.00    -0.271 OA
HETATM    4  C   UNL     1      43.148 -13.021   2.731  1.00  0.00     0.375 C 
HETATM    5  N   UNL     1      41.715 -13.370   2.654  1.00  0.00     0.103 N 
HETATM    6  C   UNL     1      41.323 -13.968   3.932  1.00  0.00     0.293 C 
HETATM    7  C   UNL     1      41.571 -13.056   5.136  1.00  0.00     0.162 C 
ENDROOT
BRANCH   5   8
HETATM    8  C   UNL     1      40.874 -12.215   2.288  1.00  0.00     0.314 C 
BRANCH   8   9
HETATM    9  C   UNL     1      41.000 -11.846   0.825  1.00  0.00     0.006 A 
HETATM   10  C   UNL     1      41.555 -10.628   0.414  1.00  0.00     0.095 A 
HETATM   11  C   UNL     1      41.686 -10.324  -0.947  1.00  0.00     0.069 A 
HETATM   12 CL   UNL     1      42.382  -8.824  -1.440  1.00  0.00    -0.081 Cl
HETATM   13  C   UNL     1      41.262 -11.228  -1.917  1.00  0.00     0.050 A 
HETATM   14  C   UNL     1      40.702 -12.438  -1.518  1.00  0.00     0.036 A 
HETATM   15 CL   UNL     1      40.177 -13.566  -2.707  1.00  0.00    -0.084 Cl
HETATM   16  C   UNL     1      40.567 -12.749  -0.164  1.00  0.00     0.035 A 
BRANCH  10  17
HETATM   17  O   UNL     1      41.975  -9.745   1.373  1.00  0.00    -0.358 OA
HETATM   18  H   UNL     1      41.534  -9.983   2.210  1.00  0.00     0.218 HD
ENDBRANCH  10  17
ENDBRANCH   8   9
ENDBRANCH   5   8
BRANCH   1  19
HETATM   19  C   UNL     1      43.332 -11.753   6.318  1.00  0.00     0.073 A 
HETATM   20  C   UNL     1      44.317 -12.168   7.254  1.00  0.00     0.169 A 
HETATM   21  N   UNL     1      44.457 -11.319   8.278  1.00  0.00    -0.183 NA
HETATM   22  N   UNL     1      43.565 -10.356   8.008  1.00  0.00    -0.283 N 
HETATM   23  C   UNL     1      43.400  -9.251   8.920  1.00  0.00     0.179 C 
HETATM   24  C   UNL     1      42.877 -10.562   6.848  1.00  0.00     0.143 A 
ENDBRANCH   1  19
TORSDOF 4
ENDMDL
MODEL 10
REMARK VINA RESULT:      -6.5      3.100      4.214
REMARK  4 active torsions:
REMARK  status: ('A' for Active; 'I' for Inactive)
REMARK    1  A    between atoms: C_5  and  N_6 
REMARK    2  A    between atoms: N_10  and  C_11 
REMARK    3  A    between atoms: C_11  and  C_12 
REMARK    4  A    between atoms: C_13  and  O_14 
ROOT
HETATM    1  N   UNL     1      41.180 -13.144   2.792  1.00  0.00    -0.312 N 
HETATM    2  C   UNL     1      41.008 -14.168   3.739  1.00  0.00     0.253 C 
HETATM    3  O   UNL     1      40.877 -13.986   4.953  1.00  0.00    -0.271 OA
HETATM    4  C   UNL     1      40.837 -15.594   3.199  1.00  0.00     0.375 C 
HETATM    5  N   UNL     1      41.606 -15.909   1.977  1.00  0.00     0.103 N 
HETATM    6  C   UNL     1      41.291 -14.895   0.969  1.00  0.00     0.293 C 
HETATM    7  C   UNL     1      41.598 -13.466   1.422  1.00  0.00     0.162 C 
ENDROOT
BRANCH   5   8
HETATM    8  C   UNL     1      43.052 -16.019   2.237  1.00  0.00     0.314 C 
BRANCH   8   9
HETATM    9  C   UNL     1      43.369 -16.994   3.352  1.00  0.00     0.006 A 
HETATM   10  C   UNL     1      43.447 -18.374   3.127  1.00  0.00     0.095 A 
HETATM   11  C   UNL     1      43.771 -19.251   4.171  1.00  0.00     0.069 A 
HETATM   12 CL   UNL     1      43.875 -20.949   3.879  1.00  0.00    -0.081 Cl
HETATM   13  C   UNL     1      44.016 -18.766   5.453  1.00  0.00     0.050 A 
HETATM   14  C   UNL     1      43.932 -17.396   5.686  1.00  0.00     0.036 A 
HETATM   15 CL   UNL     1      44.237 -16.782   7.264  1.00  0.00    -0.084 Cl
HETATM   16  C   UNL     1      43.611 -16.515   4.652  1.00  0.00     0.035 A 
BRANCH  10  17
HETATM   17  O   UNL     1      43.211 -18.845   1.864  1.00  0.00    -0.358 OA
HETATM   18  H   UNL     1      43.582 -18.201   1.232  1.00  0.00     0.218 HD
ENDBRANCH  10  17
ENDBRANCH   8   9
ENDBRANCH   5   8
BRANCH   1  19
HETATM   19  C   UNL     1      41.124 -11.796   3.207  1.00  0.00     0.073 A 
HETATM   20  C   UNL     1      42.153 -10.897   3.596  1.00  0.00     0.169 A 
HETATM   21  N   UNL     1      41.690  -9.695   3.955  1.00  0.00    -0.183 NA
HETATM   22  N   UNL     1      40.364  -9.814   3.801  1.00  0.00    -0.283 N 
HETATM   23  C   UNL     1      39.499  -8.705   4.122  1.00  0.00     0.179 C 
HETATM   24  C   UNL     1      39.976 -11.042   3.348  1.00  0.00     0.143 A 
ENDBRANCH   1  19
TORSDOF 4
ENDMDL
