MODEL 1
REMARK VINA RESULT:      -8.7      0.000      0.000
REMARK  9 active torsions:
REMARK  status: ('A' for Active; 'I' for Inactive)
REMARK    1  A    between atoms: C_3  and  N_4 
REMARK       I    between atoms: N_4  and  C_5 
REMARK    2  A    between atoms: C_5  and  C_6 
REMARK    3  A    between atoms: C_6  and  O_7 
REMARK    4  A    between atoms: O_7  and  C_8 
REMARK    5  A    between atoms: C_8  and  C_9 
REMARK    6  A    between atoms: C_9  and  N_10 
REMARK    7  A    between atoms: C_9  and  C_18 
REMARK       I    between atoms: N_10  and  C_11 
REMARK    8  A    between atoms: C_11  and  C_12 
REMARK    9  A    between atoms: C_18  and  C_19 
ROOT
HETATM    1  C   UNL     1      41.445 -14.786   4.044  1.00  0.00     0.189 C 
ENDROOT
BRANCH   1   2
HETATM    2  C   UNL     1      41.183 -13.853   5.237  1.00  0.00     0.282 C 
HETATM    3  O   UNL     1      41.563 -14.058   6.387  1.00  0.00    -0.263 OA
BRANCH   2   4
HETATM    4  O   UNL     1      40.492 -12.748   4.851  1.00  0.00    -0.311 OA
BRANCH   4   5
HETATM    5  C   UNL     1      40.503 -11.646   5.756  1.00  0.00     0.281 C 
BRANCH   5   6
HETATM    6  C   UNL     1      41.807 -10.832   5.865  1.00  0.00     0.246 C 
HETATM    7  N   UNL     1      42.453 -11.005   7.076  1.00  0.00    -0.324 N 
HETATM    8  H   UNL     1      41.909 -11.494   7.785  1.00  0.00     0.169 HD
HETATM    9  O   UNL     1      42.126 -10.042   4.981  1.00  0.00    -0.271 OA
BRANCH   7  10
HETATM   10  C   UNL     1      43.604 -10.326   7.538  1.00  0.00     0.046 A 
HETATM   11  C   UNL     1      44.857 -10.944   7.295  1.00  0.00    -0.035 A 
HETATM   12  C   UNL     1      44.974 -12.287   6.622  1.00  0.00     0.050 C 
HETATM   13  C   UNL     1      46.038 -10.315   7.719  1.00  0.00     0.009 A 
HETATM   14  C   UNL     1      45.992  -9.093   8.378  1.00  0.00     0.001 A 
HETATM   15  C   UNL     1      44.766  -8.474   8.595  1.00  0.00     0.009 A 
HETATM   16  C   UNL     1      43.563  -9.059   8.157  1.00  0.00    -0.035 A 
HETATM   17  C   UNL     1      42.312  -8.243   8.335  1.00  0.00     0.050 C 
ENDBRANCH   7  10
ENDBRANCH   5   6
ENDBRANCH   4   5
ENDBRANCH   2   4
ENDBRANCH   1   2
BRANCH   1  18
HETATM   18  N   UNL     1      41.087 -14.129   2.790  1.00  0.00    -0.341 N 
HETATM   19  C   UNL     1      40.214 -14.730   1.905  1.00  0.00     0.276 C 
HETATM   20  O   UNL     1      39.535 -15.703   2.223  1.00  0.00    -0.265 OA
HETATM   21  H   UNL     1      41.717 -13.441   2.388  1.00  0.00     0.163 HD
BRANCH  19  22
HETATM   22  C   UNL     1      40.202 -14.149   0.581  1.00  0.00     0.142 A 
HETATM   23  O   UNL     1      40.765 -12.915   0.377  1.00  0.00    -0.317 OA
HETATM   24  C   UNL     1      40.644 -12.637  -0.948  1.00  0.00     0.143 A 
HETATM   25  C   UNL     1      40.010 -13.665  -1.603  1.00  0.00     0.027 A 
HETATM   26  C   UNL     1      39.724 -14.641  -0.620  1.00  0.00     0.045 A 
ENDBRANCH  19  22
ENDBRANCH   1  18
BRANCH   1  27
HETATM   27  C   UNL     1      42.938 -15.168   4.088  1.00  0.00     0.074 C 
BRANCH  27  28
HETATM   28  C   UNL     1      43.263 -16.622   3.820  1.00  0.00    -0.056 A 
HETATM   29  C   UNL     1      42.849 -17.205   2.612  1.00  0.00     0.007 A 
HETATM   30  C   UNL     1      43.161 -18.532   2.315  1.00  0.00     0.001 A 
HETATM   31  C   UNL     1      43.898 -19.292   3.218  1.00  0.00     0.000 A 
HETATM   32  C   UNL     1      44.328 -18.722   4.415  1.00  0.00     0.001 A 
HETATM   33  C   UNL     1      44.019 -17.393   4.712  1.00  0.00     0.007 A 
ENDBRANCH  27  28
ENDBRANCH   1  27
TORSDOF 9
ENDMDL
MODEL 2
REMARK VINA RESULT:      -8.7      1.930      6.651
REMARK  9 active torsions:
REMARK  status: ('A' for Active; 'I' for Inactive)
REMARK    1  A    between atoms: C_3  and  N_4 
REMARK       I    between atoms: N_4  and  C_5 
REMARK    2  A    between atoms: C_5  and  C_6 
REMARK    3  A    between atoms: C_6  and  O_7 
REMARK    4  A    between atoms: O_7  and  C_8 
REMARK    5  A    between atoms: C_8  and  C_9 
REMARK    6  A    between atoms: C_9  and  N_10 
REMARK    7  A    between atoms: C_9  and  C_18 
REMARK       I    between atoms: N_10  and  C_11 
REMARK    8  A    between atoms: C_11  and  C_12 
REMARK    9  A    between atoms: C_18  and  C_19 
ROOT
HETATM    1  C   UNL     1      42.138 -14.609   6.180  1.00  0.00     0.189 C 
ENDROOT
BRANCH   1   2
HETATM    2  C   UNL     1      40.621 -14.548   6.421  1.00  0.00     0.282 C 
HETATM    3  O   UNL     1      39.865 -15.517   6.395  1.00  0.00    -0.263 OA
BRANCH   2   4
HETATM    4  O   UNL     1      40.220 -13.279   6.695  1.00  0.00    -0.311 OA
BRANCH   4   5
HETATM    5  C   UNL     1      39.335 -12.677   5.753  1.00  0.00     0.281 C 
BRANCH   5   6
HETATM    6  C   UNL     1      39.850 -12.499   4.312  1.00  0.00     0.246 C 
HETATM    7  N   UNL     1      39.145 -13.250   3.389  1.00  0.00    -0.324 N 
HETATM    8  H   UNL     1      38.511 -13.938   3.792  1.00  0.00     0.169 HD
HETATM    9  O   UNL     1      40.859 -11.836   4.086  1.00  0.00    -0.271 OA
BRANCH   7  10
HETATM   10  C   UNL     1      39.427 -13.401   2.012  1.00  0.00     0.046 A 
HETATM   11  C   UNL     1      39.938 -14.656   1.593  1.00  0.00    -0.035 A 
HETATM   12  C   UNL     1      40.223 -15.772   2.564  1.00  0.00     0.050 C 
HETATM   13  C   UNL     1      40.229 -14.874   0.237  1.00  0.00     0.009 A 
HETATM   14  C   UNL     1      40.022 -13.869  -0.700  1.00  0.00     0.001 A 
HETATM   15  C   UNL     1      39.497 -12.647  -0.296  1.00  0.00     0.009 A 
HETATM   16  C   UNL     1      39.165 -12.403   1.051  1.00  0.00    -0.035 A 
HETATM   17  C   UNL     1      38.490 -11.093   1.352  1.00  0.00     0.050 C 
ENDBRANCH   7  10
ENDBRANCH   5   6
ENDBRANCH   4   5
ENDBRANCH   2   4
ENDBRANCH   1   2
BRANCH   1  18
HETATM   18  N   UNL     1      42.805 -13.478   6.818  1.00  0.00    -0.341 N 
HETATM   19  C   UNL     1      43.684 -12.687   6.106  1.00  0.00     0.276 C 
HETATM   20  O   UNL     1      43.768 -12.747   4.883  1.00  0.00    -0.265 OA
HETATM   21  H   UNL     1      42.925 -13.473   7.827  1.00  0.00     0.163 HD
BRANCH  19  22
HETATM   22  C   UNL     1      44.515 -11.826   6.920  1.00  0.00     0.142 A 
HETATM   23  O   UNL     1      44.155 -11.565   8.217  1.00  0.00    -0.317 OA
HETATM   24  C   UNL     1      45.122 -10.769   8.746  1.00  0.00     0.143 A 
HETATM   25  C   UNL     1      46.098 -10.508   7.815  1.00  0.00     0.027 A 
HETATM   26  C   UNL     1      45.709 -11.189   6.637  1.00  0.00     0.045 A 
ENDBRANCH  19  22
ENDBRANCH   1  18
BRANCH   1  27
HETATM   27  C   UNL     1      42.631 -15.959   6.738  1.00  0.00     0.074 C 
BRANCH  27  28
HETATM   28  C   UNL     1      43.092 -16.976   5.714  1.00  0.00    -0.056 A 
HETATM   29  C   UNL     1      43.147 -16.609   4.361  1.00  0.00     0.007 A 
HETATM   30  C   UNL     1      43.600 -17.508   3.394  1.00  0.00     0.001 A 
HETATM   31  C   UNL     1      44.013 -18.783   3.770  1.00  0.00     0.000 A 
HETATM   32  C   UNL     1      43.977 -19.155   5.112  1.00  0.00     0.001 A 
HETATM   33  C   UNL     1      43.527 -18.256   6.081  1.00  0.00     0.007 A 
ENDBRANCH  27  28
ENDBRANCH   1  27
TORSDOF 9
ENDMDL
MODEL 3
REMARK VINA RESULT:      -8.7      1.734      7.392
REMARK  9 active torsions:
REMARK  status: ('A' for Active; 'I' for Inactive)
REMARK    1  A    between atoms: C_3  and  N_4 
REMARK       I    between atoms: N_4  and  C_5 
REMARK    2  A    between atoms: C_5  and  C_6 
REMARK    3  A    between atoms: C_6  and  O_7 
REMARK    4  A    between atoms: O_7  and  C_8 
REMARK    5  A    between atoms: C_8  and  C_9 
REMARK    6  A    between atoms: C_9  and  N_10 
REMARK    7  A    between atoms: C_9  and  C_18 
REMARK       I    between atoms: N_10  and  C_11 
REMARK    8  A    between atoms: C_11  and  C_12 
REMARK    9  A    between atoms: C_18  and  C_19 
ROOT
HETATM    1  C   UNL     1      41.826 -13.062   5.401  1.00  0.00     0.189 C 
ENDROOT
BRANCH   1   2
HETATM    2  C   UNL     1      40.321 -12.964   5.697  1.00  0.00     0.282 C 
HETATM    3  O   UNL     1      39.711 -13.681   6.486  1.00  0.00    -0.263 OA
BRANCH   2   4
HETATM    4  O   UNL     1      39.747 -11.957   4.987  1.00  0.00    -0.311 OA
BRANCH   4   5
HETATM    5  C   UNL     1      40.362 -11.630   3.743  1.00  0.00     0.281 C 
BRANCH   5   6
HETATM    6  C   UNL     1      39.749 -12.239   2.468  1.00  0.00     0.246 C 
HETATM    7  N   UNL     1      40.694 -12.540   1.503  1.00  0.00    -0.324 N 
HETATM    8  H   UNL     1      41.625 -12.167   1.685  1.00  0.00     0.169 HD
HETATM    9  O   UNL     1      38.530 -12.318   2.336  1.00  0.00    -0.271 OA
BRANCH   7  10
HETATM   10  C   UNL     1      40.460 -13.002   0.188  1.00  0.00     0.046 A 
HETATM   11  C   UNL     1      40.723 -12.095  -0.870  1.00  0.00    -0.035 A 
HETATM   12  C   UNL     1      41.183 -10.682  -0.621  1.00  0.00     0.050 C 
HETATM   13  C   UNL     1      40.521 -12.496  -2.200  1.00  0.00     0.009 A 
HETATM   14  C   UNL     1      40.062 -13.775  -2.490  1.00  0.00     0.001 A 
HETATM   15  C   UNL     1      39.828 -14.675  -1.456  1.00  0.00     0.009 A 
HETATM   16  C   UNL     1      40.048 -14.318  -0.112  1.00  0.00    -0.035 A 
HETATM   17  C   UNL     1      39.880 -15.407   0.912  1.00  0.00     0.050 C 
ENDBRANCH   7  10
ENDBRANCH   5   6
ENDBRANCH   4   5
ENDBRANCH   2   4
ENDBRANCH   1   2
BRANCH   1  18
HETATM   18  N   UNL     1      42.593 -12.303   6.385  1.00  0.00    -0.341 N 
HETATM   19  C   UNL     1      43.571 -11.415   5.982  1.00  0.00     0.276 C 
HETATM   20  O   UNL     1      43.680 -11.056   4.814  1.00  0.00    -0.265 OA
HETATM   21  H   UNL     1      42.686 -12.661   7.331  1.00  0.00     0.163 HD
BRANCH  19  22
HETATM   22  C   UNL     1      44.466 -10.987   7.034  1.00  0.00     0.142 A 
HETATM   23  O   UNL     1      45.772 -10.691   6.736  1.00  0.00    -0.317 OA
HETATM   24  C   UNL     1      46.363 -10.288   7.891  1.00  0.00     0.143 A 
HETATM   25  C   UNL     1      45.466 -10.321   8.932  1.00  0.00     0.027 A 
HETATM   26  C   UNL     1      44.243 -10.771   8.382  1.00  0.00     0.045 A 
ENDBRANCH  19  22
ENDBRANCH   1  18
BRANCH   1  27
HETATM   27  C   UNL     1      42.194 -14.559   5.415  1.00  0.00     0.074 C 
BRANCH  27  28
HETATM   28  C   UNL     1      42.553 -15.170   4.077  1.00  0.00    -0.056 A 
HETATM   29  C   UNL     1      43.094 -14.352   3.073  1.00  0.00     0.007 A 
HETATM   30  C   UNL     1      43.470 -14.887   1.840  1.00  0.00     0.001 A 
HETATM   31  C   UNL     1      43.316 -16.249   1.597  1.00  0.00     0.000 A 
HETATM   32  C   UNL     1      42.793 -17.075   2.590  1.00  0.00     0.001 A 
HETATM   33  C   UNL     1      42.420 -16.542   3.825  1.00  0.00     0.007 A 
ENDBRANCH  27  28
ENDBRANCH   1  27
TORSDOF 9
ENDMDL
MODEL 4
REMARK VINA RESULT:      -8.5      0.606      1.627
REMARK  9 active torsions:
REMARK  status: ('A' for Active; 'I' for Inactive)
REMARK    1  A    between atoms: C_3  and  N_4 
REMARK       I    between atoms: N_4  and  C_5 
REMARK    2  A    between atoms: C_5  and  C_6 
REMARK    3  A    between atoms: C_6  and  O_7 
REMARK    4  A    between atoms: O_7  and  C_8 
REMARK    5  A    between atoms: C_8  and  C_9 
REMARK    6  A    between atoms: C_9  and  N_10 
REMARK    7  A    between atoms: C_9  and  C_18 
REMARK       I    between atoms: N_10  and  C_11 
REMARK    8  A    between atoms: C_11  and  C_12 
REMARK    9  A    between atoms: C_18  and  C_19 
ROOT
HETATM    1  C   UNL     1      41.543 -15.049   3.469  1.00  0.00     0.189 C 
ENDROOT
BRANCH   1   2
HETATM    2  C   UNL     1      41.432 -14.179   4.732  1.00  0.00     0.282 C 
HETATM    3  O   UNL     1      41.738 -14.542   5.865  1.00  0.00    -0.263 OA
BRANCH   2   4
HETATM    4  O   UNL     1      40.973 -12.936   4.430  1.00  0.00    -0.311 OA
BRANCH   4   5
HETATM    5  C   UNL     1      40.865 -12.020   5.518  1.00  0.00     0.281 C 
BRANCH   5   6
HETATM    6  C   UNL     1      42.045 -11.059   5.753  1.00  0.00     0.246 C 
HETATM    7  N   UNL     1      42.600 -11.181   7.015  1.00  0.00    -0.324 N 
HETATM    8  H   UNL     1      42.059 -11.749   7.666  1.00  0.00     0.169 HD
HETATM    9  O   UNL     1      42.342 -10.214   4.912  1.00  0.00    -0.271 OA
BRANCH   7  10
HETATM   10  C   UNL     1      43.614 -10.380   7.587  1.00  0.00     0.046 A 
HETATM   11  C   UNL     1      43.203  -9.383   8.509  1.00  0.00    -0.035 A 
HETATM   12  C   UNL     1      41.753  -9.140   8.836  1.00  0.00     0.050 C 
HETATM   13  C   UNL     1      44.163  -8.561   9.120  1.00  0.00     0.009 A 
HETATM   14  C   UNL     1      45.513  -8.713   8.830  1.00  0.00     0.001 A 
HETATM   15  C   UNL     1      45.920  -9.706   7.946  1.00  0.00     0.009 A 
HETATM   16  C   UNL     1      44.989 -10.570   7.337  1.00  0.00    -0.035 A 
HETATM   17  C   UNL     1      45.551 -11.684   6.497  1.00  0.00     0.050 C 
ENDBRANCH   7  10
ENDBRANCH   5   6
ENDBRANCH   4   5
ENDBRANCH   2   4
ENDBRANCH   1   2
BRANCH   1  18
HETATM   18  N   UNL     1      41.075 -14.315   2.297  1.00  0.00    -0.341 N 
HETATM   19  C   UNL     1      40.334 -14.950   1.319  1.00  0.00     0.276 C 
HETATM   20  O   UNL     1      39.849 -16.064   1.493  1.00  0.00    -0.265 OA
HETATM   21  H   UNL     1      41.567 -13.477   2.002  1.00  0.00     0.163 HD
BRANCH  19  22
HETATM   22  C   UNL     1      40.221 -14.216   0.078  1.00  0.00     0.142 A 
HETATM   23  O   UNL     1      40.884 -13.024  -0.069  1.00  0.00    -0.317 OA
HETATM   24  C   UNL     1      40.629 -12.580  -1.328  1.00  0.00     0.143 A 
HETATM   25  C   UNL     1      39.812 -13.459  -1.997  1.00  0.00     0.027 A 
HETATM   26  C   UNL     1      39.547 -14.515  -1.092  1.00  0.00     0.045 A 
ENDBRANCH  19  22
ENDBRANCH   1  18
BRANCH   1  27
HETATM   27  C   UNL     1      43.022 -15.466   3.335  1.00  0.00     0.074 C 
BRANCH  27  28
HETATM   28  C   UNL     1      43.299 -16.954   3.350  1.00  0.00    -0.056 A 
HETATM   29  C   UNL     1      42.939 -17.730   2.237  1.00  0.00     0.007 A 
HETATM   30  C   UNL     1      43.212 -19.098   2.201  1.00  0.00     0.001 A 
HETATM   31  C   UNL     1      43.856 -19.707   3.275  1.00  0.00     0.000 A 
HETATM   32  C   UNL     1      44.231 -18.946   4.380  1.00  0.00     0.001 A 
HETATM   33  C   UNL     1      43.962 -17.576   4.416  1.00  0.00     0.007 A 
ENDBRANCH  27  28
ENDBRANCH   1  27
TORSDOF 9
ENDMDL
MODEL 5
REMARK VINA RESULT:      -8.4      1.672      2.690
REMARK  9 active torsions:
REMARK  status: ('A' for Active; 'I' for Inactive)
REMARK    1  A    between atoms: C_3  and  N_4 
REMARK       I    between atoms: N_4  and  C_5 
REMARK    2  A    between atoms: C_5  and  C_6 
REMARK    3  A    between atoms: C_6  and  O_7 
REMARK    4  A    between atoms: O_7  and  C_8 
REMARK    5  A    between atoms: C_8  and  C_9 
REMARK    6  A    between atoms: C_9  and  N_10 
REMARK    7  A    between atoms: C_9  and  C_18 
REMARK       I    between atoms: N_10  and  C_11 
REMARK    8  A    between atoms: C_11  and  C_12 
REMARK    9  A    between atoms: C_18  and  C_19 
ROOT
HETATM    1  C   UNL     1      42.614 -16.297   5.613  1.00  0.00     0.189 C 
ENDROOT
BRANCH   1   2
HETATM    2  C   UNL     1      42.850 -15.348   6.799  1.00  0.00     0.282 C 
HETATM    3  O   UNL     1      42.855 -15.686   7.980  1.00  0.00    -0.263 OA
BRANCH   2   4
HETATM    4  O   UNL     1      43.083 -14.079   6.372  1.00  0.00    -0.311 OA
BRANCH   4   5
HETATM    5  C   UNL     1      44.330 -13.502   6.752  1.00  0.00     0.281 C 
BRANCH   5   6
HETATM    6  C   UNL     1      44.420 -11.964   6.776  1.00  0.00     0.246 C 
HETATM    7  N   UNL     1      43.645 -11.392   7.769  1.00  0.00    -0.324 N 
HETATM    8  H   UNL     1      42.997 -12.032   8.227  1.00  0.00     0.169 HD
HETATM    9  O   UNL     1      45.041 -11.360   5.904  1.00  0.00    -0.271 OA
BRANCH   7  10
HETATM   10  C   UNL     1      43.416 -10.015   7.992  1.00  0.00     0.046 A 
HETATM   11  C   UNL     1      42.225  -9.465   7.454  1.00  0.00    -0.035 A 
HETATM   12  C   UNL     1      41.260 -10.283   6.636  1.00  0.00     0.050 C 
HETATM   13  C   UNL     1      41.934  -8.106   7.649  1.00  0.00     0.009 A 
HETATM   14  C   UNL     1      42.805  -7.292   8.364  1.00  0.00     0.001 A 
HETATM   15  C   UNL     1      43.960  -7.835   8.914  1.00  0.00     0.009 A 
HETATM   16  C   UNL     1      44.270  -9.201   8.764  1.00  0.00    -0.035 A 
HETATM   17  C   UNL     1      45.480  -9.703   9.504  1.00  0.00     0.050 C 
ENDBRANCH   7  10
ENDBRANCH   5   6
ENDBRANCH   4   5
ENDBRANCH   2   4
ENDBRANCH   1   2
BRANCH   1  18
HETATM   18  N   UNL     1      42.089 -15.562   4.466  1.00  0.00    -0.341 N 
HETATM   19  C   UNL     1      40.808 -15.797   4.007  1.00  0.00     0.276 C 
HETATM   20  O   UNL     1      39.991 -16.439   4.660  1.00  0.00    -0.265 OA
HETATM   21  H   UNL     1      42.734 -15.166   3.788  1.00  0.00     0.163 HD
BRANCH  19  22
HETATM   22  C   UNL     1      40.532 -15.263   2.691  1.00  0.00     0.142 A 
HETATM   23  O   UNL     1      40.673 -13.919   2.460  1.00  0.00    -0.317 OA
HETATM   24  C   UNL     1      40.387 -13.707   1.148  1.00  0.00     0.143 A 
HETATM   25  C   UNL     1      40.060 -14.889   0.527  1.00  0.00     0.027 A 
HETATM   26  C   UNL     1      40.152 -15.893   1.519  1.00  0.00     0.045 A 
ENDBRANCH  19  22
ENDBRANCH   1  18
BRANCH   1  27
HETATM   27  C   UNL     1      43.963 -16.972   5.297  1.00  0.00     0.074 C 
BRANCH  27  28
HETATM   28  C   UNL     1      43.890 -18.341   4.654  1.00  0.00    -0.056 A 
HETATM   29  C   UNL     1      43.785 -18.437   3.257  1.00  0.00     0.007 A 
HETATM   30  C   UNL     1      43.751 -19.682   2.627  1.00  0.00     0.001 A 
HETATM   31  C   UNL     1      43.829 -20.847   3.385  1.00  0.00     0.000 A 
HETATM   32  C   UNL     1      43.947 -20.766   4.771  1.00  0.00     0.001 A 
HETATM   33  C   UNL     1      43.985 -19.521   5.403  1.00  0.00     0.007 A 
ENDBRANCH  27  28
ENDBRANCH   1  27
TORSDOF 9
ENDMDL
MODEL 6
REMARK VINA RESULT:      -8.4      1.734      7.390
REMARK  9 active torsions:
REMARK  status: ('A' for Active; 'I' for Inactive)
REMARK    1  A    between atoms: C_3  and  N_4 
REMARK       I    between atoms: N_4  and  C_5 
REMARK    2  A    between atoms: C_5  and  C_6 
REMARK    3  A    between atoms: C_6  and  O_7 
REMARK    4  A    between atoms: O_7  and  C_8 
REMARK    5  A    between atoms: C_8  and  C_9 
REMARK    6  A    between atoms: C_9  and  N_10 
REMARK    7  A    between atoms: C_9  and  C_18 
REMARK       I    between atoms: N_10  and  C_11 
REMARK    8  A    between atoms: C_11  and  C_12 
REMARK    9  A    between atoms: C_18  and  C_19 
ROOT
HETATM    1  C   UNL     1      41.840 -13.037   5.332  1.00  0.00     0.189 C 
ENDROOT
BRANCH   1   2
HETATM    2  C   UNL     1      40.322 -13.199   5.516  1.00  0.00     0.282 C 
HETATM    3  O   UNL     1      39.760 -13.381   6.593  1.00  0.00    -0.263 OA
BRANCH   2   4
HETATM    4  O   UNL     1      39.671 -13.089   4.329  1.00  0.00    -0.311 OA
BRANCH   4   5
HETATM    5  C   UNL     1      40.021 -11.971   3.516  1.00  0.00     0.281 C 
BRANCH   5   6
HETATM    6  C   UNL     1      39.651 -12.039   2.022  1.00  0.00     0.246 C 
HETATM    7  N   UNL     1      40.695 -12.477   1.225  1.00  0.00    -0.324 N 
HETATM    8  H   UNL     1      41.598 -12.527   1.694  1.00  0.00     0.169 HD
HETATM    9  O   UNL     1      38.565 -11.623   1.627  1.00  0.00    -0.271 OA
BRANCH   7  10
HETATM   10  C   UNL     1      40.725 -12.547  -0.186  1.00  0.00     0.046 A 
HETATM   11  C   UNL     1      40.303 -13.764  -0.779  1.00  0.00    -0.035 A 
HETATM   12  C   UNL     1      39.887 -14.957   0.043  1.00  0.00     0.050 C 
HETATM   13  C   UNL     1      40.299 -13.895  -2.177  1.00  0.00     0.009 A 
HETATM   14  C   UNL     1      40.706 -12.842  -2.986  1.00  0.00     0.001 A 
HETATM   15  C   UNL     1      41.096 -11.639  -2.408  1.00  0.00     0.009 A 
HETATM   16  C   UNL     1      41.085 -11.461  -1.011  1.00  0.00    -0.035 A 
HETATM   17  C   UNL     1      41.407 -10.082  -0.504  1.00  0.00     0.050 C 
ENDBRANCH   7  10
ENDBRANCH   5   6
ENDBRANCH   4   5
ENDBRANCH   2   4
ENDBRANCH   1   2
BRANCH   1  18
HETATM   18  N   UNL     1      42.394 -12.173   6.370  1.00  0.00    -0.341 N 
HETATM   19  C   UNL     1      43.562 -11.469   6.150  1.00  0.00     0.276 C 
HETATM   20  O   UNL     1      44.049 -11.353   5.030  1.00  0.00    -0.265 OA
HETATM   21  H   UNL     1      42.161 -12.348   7.343  1.00  0.00     0.163 HD
BRANCH  19  22
HETATM   22  C   UNL     1      44.171 -10.926   7.344  1.00  0.00     0.142 A 
HETATM   23  O   UNL     1      43.376 -10.458   8.360  1.00  0.00    -0.317 OA
HETATM   24  C   UNL     1      44.204 -10.046   9.356  1.00  0.00     0.143 A 
HETATM   25  C   UNL     1      45.519 -10.234   9.002  1.00  0.00     0.027 A 
HETATM   26  C   UNL     1      45.500 -10.801   7.706  1.00  0.00     0.045 A 
ENDBRANCH  19  22
ENDBRANCH   1  18
BRANCH   1  27
HETATM   27  C   UNL     1      42.455 -14.451   5.371  1.00  0.00     0.074 C 
BRANCH  27  28
HETATM   28  C   UNL     1      42.755 -15.085   4.029  1.00  0.00    -0.056 A 
HETATM   29  C   UNL     1      42.612 -16.473   3.880  1.00  0.00     0.007 A 
HETATM   30  C   UNL     1      42.845 -17.088   2.649  1.00  0.00     0.001 A 
HETATM   31  C   UNL     1      43.218 -16.321   1.549  1.00  0.00     0.000 A 
HETATM   32  C   UNL     1      43.351 -14.940   1.679  1.00  0.00     0.001 A 
HETATM   33  C   UNL     1      43.114 -14.323   2.910  1.00  0.00     0.007 A 
ENDBRANCH  27  28
ENDBRANCH   1  27
TORSDOF 9
ENDMDL
MODEL 7
REMARK VINA RESULT:      -8.2      1.756      2.756
REMARK  9 active torsions:
REMARK  status: ('A' for Active; 'I' for Inactive)
REMARK    1  A    between atoms: C_3  and  N_4 
REMARK       I    between atoms: N_4  and  C_5 
REMARK    2  A    between atoms: C_5  and  C_6 
REMARK    3  A    between atoms: C_6  and  O_7 
REMARK    4  A    between atoms: O_7  and  C_8 
REMARK    5  A    between atoms: C_8  and  C_9 
REMARK    6  A    between atoms: C_9  and  N_10 
REMARK    7  A    between atoms: C_9  and  C_18 
REMARK       I    between atoms: N_10  and  C_11 
REMARK    8  A    between atoms: C_11  and  C_12 
REMARK    9  A    between atoms: C_18  and  C_19 
ROOT
HETATM    1  C   UNL     1      41.853 -13.472   2.166  1.00  0.00     0.189 C 
ENDROOT
BRANCH   1   2
HETATM    2  C   UNL     1      42.178 -12.086   2.745  1.00  0.00     0.282 C 
HETATM    3  O   UNL     1      42.503 -11.105   2.081  1.00  0.00    -0.263 OA
BRANCH   2   4
HETATM    4  O   UNL     1      42.034 -12.074   4.096  1.00  0.00    -0.311 OA
BRANCH   4   5
HETATM    5  C   UNL     1      42.599 -10.960   4.784  1.00  0.00     0.281 C 
BRANCH   5   6
HETATM    6  C   UNL     1      42.941 -11.148   6.274  1.00  0.00     0.246 C 
HETATM    7  N   UNL     1      43.221  -9.955   6.919  1.00  0.00    -0.324 N 
HETATM    8  H   UNL     1      43.335  -9.152   6.302  1.00  0.00     0.169 HD
HETATM    9  O   UNL     1      43.051 -12.273   6.754  1.00  0.00    -0.271 OA
BRANCH   7  10
HETATM   10  C   UNL     1      43.675  -9.785   8.246  1.00  0.00     0.046 A 
HETATM   11  C   UNL     1      42.708  -9.412   9.214  1.00  0.00    -0.035 A 
HETATM   12  C   UNL     1      41.268  -9.152   8.853  1.00  0.00     0.050 C 
HETATM   13  C   UNL     1      43.092  -9.237  10.553  1.00  0.00     0.009 A 
HETATM   14  C   UNL     1      44.413  -9.426  10.940  1.00  0.00     0.001 A 
HETATM   15  C   UNL     1      45.358  -9.817   9.998  1.00  0.00     0.009 A 
HETATM   16  C   UNL     1      45.004 -10.031   8.652  1.00  0.00    -0.035 A 
HETATM   17  C   UNL     1      46.079 -10.571   7.749  1.00  0.00     0.050 C 
ENDBRANCH   7  10
ENDBRANCH   5   6
ENDBRANCH   4   5
ENDBRANCH   2   4
ENDBRANCH   1   2
BRANCH   1  18
HETATM   18  N   UNL     1      41.125 -13.345   0.907  1.00  0.00    -0.341 N 
HETATM   19  C   UNL     1      40.288 -14.354   0.473  1.00  0.00     0.276 C 
HETATM   20  O   UNL     1      39.941 -15.272   1.210  1.00  0.00    -0.265 OA
HETATM   21  H   UNL     1      41.482 -12.727   0.184  1.00  0.00     0.163 HD
BRANCH  19  22
HETATM   22  C   UNL     1      39.896 -14.256  -0.916  1.00  0.00     0.142 A 
HETATM   23  O   UNL     1      39.063 -15.204  -1.454  1.00  0.00    -0.317 OA
HETATM   24  C   UNL     1      38.837 -14.848  -2.746  1.00  0.00     0.143 A 
HETATM   25  C   UNL     1      39.511 -13.690  -3.055  1.00  0.00     0.027 A 
HETATM   26  C   UNL     1      40.194 -13.307  -1.877  1.00  0.00     0.045 A 
ENDBRANCH  19  22
ENDBRANCH   1  18
BRANCH   1  27
HETATM   27  C   UNL     1      43.193 -14.213   1.985  1.00  0.00     0.074 C 
BRANCH  27  28
HETATM   28  C   UNL     1      43.291 -15.581   2.627  1.00  0.00    -0.056 A 
HETATM   29  C   UNL     1      43.321 -15.680   4.027  1.00  0.00     0.007 A 
HETATM   30  C   UNL     1      43.375 -16.926   4.654  1.00  0.00     0.001 A 
HETATM   31  C   UNL     1      43.393 -18.089   3.890  1.00  0.00     0.000 A 
HETATM   32  C   UNL     1      43.350 -18.005   2.500  1.00  0.00     0.001 A 
HETATM   33  C   UNL     1      43.292 -16.760   1.871  1.00  0.00     0.007 A 
ENDBRANCH  27  28
ENDBRANCH   1  27
TORSDOF 9
ENDMDL
MODEL 8
REMARK VINA RESULT:      -8.2      2.026      8.022
REMARK  9 active torsions:
REMARK  status: ('A' for Active; 'I' for Inactive)
REMARK    1  A    between atoms: C_3  and  N_4 
REMARK       I    between atoms: N_4  and  C_5 
REMARK    2  A    between atoms: C_5  and  C_6 
REMARK    3  A    between atoms: C_6  and  O_7 
REMARK    4  A    between atoms: O_7  and  C_8 
REMARK    5  A    between atoms: C_8  and  C_9 
REMARK    6  A    between atoms: C_9  and  N_10 
REMARK    7  A    between atoms: C_9  and  C_18 
REMARK       I    between atoms: N_10  and  C_11 
REMARK    8  A    between atoms: C_11  and  C_12 
REMARK    9  A    between atoms: C_18  and  C_19 
ROOT
HETATM    1  C   UNL     1      43.714 -12.625   5.443  1.00  0.00     0.189 C 
ENDROOT
BRANCH   1   2
HETATM    2  C   UNL     1      43.266 -11.868   4.183  1.00  0.00     0.282 C 
HETATM    3  O   UNL     1      44.016 -11.263   3.422  1.00  0.00    -0.263 OA
BRANCH   2   4
HETATM    4  O   UNL     1      41.923 -11.976   4.000  1.00  0.00    -0.311 OA
BRANCH   4   5
HETATM    5  C   UNL     1      41.344 -11.100   3.036  1.00  0.00     0.281 C 
BRANCH   5   6
HETATM    6  C   UNL     1      40.430 -11.729   1.967  1.00  0.00     0.246 C 
HETATM    7  N   UNL     1      41.135 -12.354   0.952  1.00  0.00    -0.324 N 
HETATM    8  H   UNL     1      42.137 -12.169   0.951  1.00  0.00     0.169 HD
HETATM    9  O   UNL     1      39.214 -11.561   2.005  1.00  0.00    -0.271 OA
BRANCH   7  10
HETATM   10  C   UNL     1      40.610 -12.928  -0.227  1.00  0.00     0.046 A 
HETATM   11  C   UNL     1      40.709 -12.160  -1.416  1.00  0.00    -0.035 A 
HETATM   12  C   UNL     1      41.295 -10.773  -1.430  1.00  0.00     0.050 C 
HETATM   13  C   UNL     1      40.216 -12.678  -2.624  1.00  0.00     0.009 A 
HETATM   14  C   UNL     1      39.630 -13.937  -2.667  1.00  0.00     0.001 A 
HETATM   15  C   UNL     1      39.555 -14.702  -1.508  1.00  0.00     0.009 A 
HETATM   16  C   UNL     1      40.066 -14.228  -0.284  1.00  0.00    -0.035 A 
HETATM   17  C   UNL     1      40.043 -15.188   0.873  1.00  0.00     0.050 C 
ENDBRANCH   7  10
ENDBRANCH   5   6
ENDBRANCH   4   5
ENDBRANCH   2   4
ENDBRANCH   1   2
BRANCH   1  18
HETATM   18  N   UNL     1      43.763 -11.726   6.592  1.00  0.00    -0.341 N 
HETATM   19  C   UNL     1      44.973 -11.260   7.070  1.00  0.00     0.276 C 
HETATM   20  O   UNL     1      46.014 -11.384   6.432  1.00  0.00    -0.265 OA
HETATM   21  H   UNL     1      42.996 -11.722   7.258  1.00  0.00     0.163 HD
BRANCH  19  22
HETATM   22  C   UNL     1      44.911 -10.661   8.385  1.00  0.00     0.142 A 
HETATM   23  O   UNL     1      44.046 -11.168   9.321  1.00  0.00    -0.317 OA
HETATM   24  C   UNL     1      44.223 -10.446  10.459  1.00  0.00     0.143 A 
HETATM   25  C   UNL     1      45.182  -9.479  10.275  1.00  0.00     0.027 A 
HETATM   26  C   UNL     1      45.627  -9.616   8.939  1.00  0.00     0.045 A 
ENDBRANCH  19  22
ENDBRANCH   1  18
BRANCH   1  27
HETATM   27  C   UNL     1      42.716 -13.780   5.658  1.00  0.00     0.074 C 
BRANCH  27  28
HETATM   28  C   UNL     1      43.103 -15.117   5.061  1.00  0.00    -0.056 A 
HETATM   29  C   UNL     1      43.871 -16.011   5.822  1.00  0.00     0.007 A 
HETATM   30  C   UNL     1      44.216 -17.266   5.318  1.00  0.00     0.001 A 
HETATM   31  C   UNL     1      43.791 -17.646   4.049  1.00  0.00     0.000 A 
HETATM   32  C   UNL     1      43.016 -16.773   3.287  1.00  0.00     0.001 A 
HETATM   33  C   UNL     1      42.667 -15.519   3.792  1.00  0.00     0.007 A 
ENDBRANCH  27  28
ENDBRANCH   1  27
TORSDOF 9
ENDMDL
MODEL 9
REMARK VINA RESULT:      -8.1      1.930      3.185
REMARK  9 active torsions:
REMARK  status: ('A' for Active; 'I' for Inactive)
REMARK    1  A    between atoms: C_3  and  N_4 
REMARK       I    between atoms: N_4  and  C_5 
REMARK    2  A    between atoms: C_5  and  C_6 
REMARK    3  A    between atoms: C_6  and  O_7 
REMARK    4  A    between atoms: O_7  and  C_8 
REMARK    5  A    between atoms: C_8  and  C_9 
REMARK    6  A    between atoms: C_9  and  N_10 
REMARK    7  A    between atoms: C_9  and  C_18 
REMARK       I    between atoms: N_10  and  C_11 
REMARK    8  A    between atoms: C_11  and  C_12 
REMARK    9  A    between atoms: C_18  and  C_19 
ROOT
HETATM    1  C   UNL     1      41.848 -15.955   3.425  1.00  0.00     0.189 C 
ENDROOT
BRANCH   1   2
HETATM    2  C   UNL     1      41.865 -15.364   4.843  1.00  0.00     0.282 C 
HETATM    3  O   UNL     1      40.907 -15.352   5.612  1.00  0.00    -0.263 OA
BRANCH   2   4
HETATM    4  O   UNL     1      43.094 -14.873   5.153  1.00  0.00    -0.311 OA
BRANCH   4   5
HETATM    5  C   UNL     1      43.133 -13.836   6.132  1.00  0.00     0.281 C 
BRANCH   5   6
HETATM    6  C   UNL     1      42.606 -12.450   5.715  1.00  0.00     0.246 C 
HETATM    7  N   UNL     1      41.339 -12.184   6.205  1.00  0.00    -0.324 N 
HETATM    8  H   UNL     1      40.862 -12.985   6.616  1.00  0.00     0.169 HD
HETATM    9  O   UNL     1      43.241 -11.747   4.933  1.00  0.00    -0.271 OA
BRANCH   7  10
HETATM   10  C   UNL     1      40.529 -11.061   5.921  1.00  0.00     0.046 A 
HETATM   11  C   UNL     1      39.545 -11.216   4.910  1.00  0.00    -0.035 A 
HETATM   12  C   UNL     1      39.391 -12.495   4.128  1.00  0.00     0.050 C 
HETATM   13  C   UNL     1      38.701 -10.142   4.587  1.00  0.00     0.009 A 
HETATM   14  C   UNL     1      38.821  -8.925   5.248  1.00  0.00     0.001 A 
HETATM   15  C   UNL     1      39.767  -8.779   6.257  1.00  0.00     0.009 A 
HETATM   16  C   UNL     1      40.611  -9.844   6.628  1.00  0.00    -0.035 A 
HETATM   17  C   UNL     1      41.508  -9.611   7.813  1.00  0.00     0.050 C 
ENDBRANCH   7  10
ENDBRANCH   5   6
ENDBRANCH   4   5
ENDBRANCH   2   4
ENDBRANCH   1   2
BRANCH   1  18
HETATM   18  N   UNL     1      41.449 -14.943   2.451  1.00  0.00    -0.341 N 
HETATM   19  C   UNL     1      40.469 -15.215   1.515  1.00  0.00     0.276 C 
HETATM   20  O   UNL     1      39.745 -16.202   1.601  1.00  0.00    -0.265 OA
HETATM   21  H   UNL     1      42.097 -14.201   2.207  1.00  0.00     0.163 HD
BRANCH  19  22
HETATM   22  C   UNL     1      40.404 -14.271   0.421  1.00  0.00     0.142 A 
HETATM   23  O   UNL     1      41.076 -13.079   0.511  1.00  0.00    -0.317 OA
HETATM   24  C   UNL     1      40.870 -12.416  -0.657  1.00  0.00     0.143 A 
HETATM   25  C   UNL     1      40.075 -13.155  -1.500  1.00  0.00     0.027 A 
HETATM   26  C   UNL     1      39.773 -14.351  -0.807  1.00  0.00     0.045 A 
ENDBRANCH  19  22
ENDBRANCH   1  18
BRANCH   1  27
HETATM   27  C   UNL     1      43.262 -16.500   3.143  1.00  0.00     0.074 C 
BRANCH  27  28
HETATM   28  C   UNL     1      43.437 -17.999   3.265  1.00  0.00    -0.056 A 
HETATM   29  C   UNL     1      43.095 -18.819   2.179  1.00  0.00     0.007 A 
HETATM   30  C   UNL     1      43.277 -20.201   2.242  1.00  0.00     0.001 A 
HETATM   31  C   UNL     1      43.810 -20.781   3.390  1.00  0.00     0.000 A 
HETATM   32  C   UNL     1      44.167 -19.977   4.470  1.00  0.00     0.001 A 
HETATM   33  C   UNL     1      43.989 -18.593   4.407  1.00  0.00     0.007 A 
ENDBRANCH  27  28
ENDBRANCH   1  27
TORSDOF 9
ENDMDL
MODEL 10
REMARK VINA RESULT:      -7.9      2.388      7.446
REMARK  9 active torsions:
REMARK  status: ('A' for Active; 'I' for Inactive)
REMARK    1  A    between atoms: C_3  and  N_4 
REMARK       I    between atoms: N_4  and  C_5 
REMARK    2  A    between atoms: C_5  and  C_6 
REMARK    3  A    between atoms: C_6  and  O_7 
REMARK    4  A    between atoms: O_7  and  C_8 
REMARK    5  A    between atoms: C_8  and  C_9 
REMARK    6  A    between atoms: C_9  and  N_10 
REMARK    7  A    between atoms: C_9  and  C_18 
REMARK       I    between atoms: N_10  and  C_11 
REMARK    8  A    between atoms: C_11  and  C_12 
REMARK    9  A    between atoms: C_18  and  C_19 
ROOT
HETATM    1  C   UNL     1      41.611 -14.504   3.739  1.00  0.00     0.189 C 
ENDROOT
BRANCH   1   2
HETATM    2  C   UNL     1      40.256 -13.956   3.265  1.00  0.00     0.282 C 
HETATM    3  O   UNL     1      39.696 -12.966   3.729  1.00  0.00    -0.263 OA
BRANCH   2   4
HETATM    4  O   UNL     1      39.761 -14.697   2.239  1.00  0.00    -0.311 OA
BRANCH   4   5
HETATM    5  C   UNL     1      40.346 -14.475   0.958  1.00  0.00     0.281 C 
BRANCH   5   6
HETATM    6  C   UNL     1      40.002 -13.156   0.241  1.00  0.00     0.246 C 
HETATM    7  N   UNL     1      38.645 -12.995   0.027  1.00  0.00    -0.324 N 
HETATM    8  H   UNL     1      38.082 -13.825   0.206  1.00  0.00     0.169 HD
HETATM    9  O   UNL     1      40.893 -12.419  -0.174  1.00  0.00    -0.271 OA
BRANCH   7  10
HETATM   10  C   UNL     1      38.008 -11.960  -0.695  1.00  0.00     0.046 A 
HETATM   11  C   UNL     1      37.607 -12.254  -2.024  1.00  0.00    -0.035 A 
HETATM   12  C   UNL     1      37.884 -13.586  -2.670  1.00  0.00     0.050 C 
HETATM   13  C   UNL     1      36.960 -11.272  -2.791  1.00  0.00     0.009 A 
HETATM   14  C   UNL     1      36.710 -10.012  -2.262  1.00  0.00     0.001 A 
HETATM   15  C   UNL     1      37.080  -9.730  -0.951  1.00  0.00     0.009 A 
HETATM   16  C   UNL     1      37.703 -10.699  -0.142  1.00  0.00    -0.035 A 
HETATM   17  C   UNL     1      37.946 -10.323   1.295  1.00  0.00     0.050 C 
ENDBRANCH   7  10
ENDBRANCH   5   6
ENDBRANCH   4   5
ENDBRANCH   2   4
ENDBRANCH   1   2
BRANCH   1  18
HETATM   18  N   UNL     1      42.206 -13.613   4.732  1.00  0.00    -0.341 N 
HETATM   19  C   UNL     1      43.238 -12.763   4.386  1.00  0.00     0.276 C 
HETATM   20  O   UNL     1      43.539 -12.549   3.215  1.00  0.00    -0.265 OA
HETATM   21  H   UNL     1      42.141 -13.849   5.718  1.00  0.00     0.163 HD
BRANCH  19  22
HETATM   22  C   UNL     1      43.948 -12.190   5.508  1.00  0.00     0.142 A 
HETATM   23  O   UNL     1      44.925 -11.254   5.286  1.00  0.00    -0.317 OA
HETATM   24  C   UNL     1      45.391 -10.868   6.504  1.00  0.00     0.143 A 
HETATM   25  C   UNL     1      44.737 -11.539   7.508  1.00  0.00     0.027 A 
HETATM   26  C   UNL     1      43.806 -12.392   6.869  1.00  0.00     0.045 A 
ENDBRANCH  19  22
ENDBRANCH   1  18
BRANCH   1  27
HETATM   27  C   UNL     1      41.357 -15.914   4.309  1.00  0.00     0.074 C 
BRANCH  27  28
HETATM   28  C   UNL     1      42.334 -16.990   3.888  1.00  0.00    -0.056 A 
HETATM   29  C   UNL     1      42.275 -17.497   2.580  1.00  0.00     0.007 A 
HETATM   30  C   UNL     1      43.182 -18.464   2.146  1.00  0.00     0.001 A 
HETATM   31  C   UNL     1      44.167 -18.931   3.012  1.00  0.00     0.000 A 
HETATM   32  C   UNL     1      44.246 -18.427   4.308  1.00  0.00     0.001 A 
HETATM   33  C   UNL     1      43.341 -17.457   4.743  1.00  0.00     0.007 A 
ENDBRANCH  27  28
ENDBRANCH   1  27
TORSDOF 9
ENDMDL
