MODEL 1
REMARK VINA RESULT:      -8.3      0.000      0.000
REMARK  5 active torsions:
REMARK  status: ('A' for Active; 'I' for Inactive)
REMARK    1  A    between atoms: N_2  and  C_4 
REMARK    2  A    between atoms: C_4  and  C_5 
REMARK    3  A    between atoms: C_5  and  N_6 
REMARK    4  A    between atoms: C_11  and  C_12 
REMARK    5  A    between atoms: C_14  and  O_15 
ROOT
HETATM    1  N   UNL     1      41.643 -13.492   5.407  1.00  0.00    -0.332 N 
HETATM    2  C   UNL     1      42.568 -14.346   5.986  1.00  0.00     0.279 C 
HETATM    3  O   UNL     1      43.146 -14.156   7.039  1.00  0.00    -0.265 OA
HETATM    4  C   UNL     1      42.676 -15.517   5.099  1.00  0.00     0.156 A 
HETATM    5  C   UNL     1      41.770 -15.351   4.135  1.00  0.00     0.060 A 
HETATM    6  C   UNL     1      40.916 -14.153   4.322  1.00  0.00     0.161 C 
HETATM    7  O   UNL     1      43.549 -16.554   5.264  1.00  0.00    -0.303 OA
HETATM    8  C   UNL     1      43.519 -17.527   4.286  1.00  0.00     0.090 A 
HETATM    9  C   UNL     1      42.642 -17.476   3.190  1.00  0.00     0.051 A 
HETATM   10  C   UNL     1      41.661 -16.371   3.099  1.00  0.00     0.196 A 
HETATM   11  O   UNL     1      40.803 -16.318   2.233  1.00  0.00    -0.287 OA
HETATM   12  C   UNL     1      44.412 -18.590   4.420  1.00  0.00     0.041 A 
HETATM   13  C   UNL     1      44.442 -19.589   3.445  1.00  0.00     0.045 A 
HETATM   14  C   UNL     1      43.585 -19.515   2.349  1.00  0.00     0.117 A 
HETATM   15  F   UNL     1      43.632 -20.471   1.414  1.00  0.00    -0.206 F 
HETATM   16  C   UNL     1      42.680 -18.469   2.209  1.00  0.00     0.060 A 
ENDROOT
BRANCH   6  17
HETATM   17  C   UNL     1      40.614 -13.255   3.153  1.00  0.00    -0.028 A 
HETATM   18  C   UNL     1      39.267 -12.952   2.878  1.00  0.00     0.046 A 
HETATM   19  C   UNL     1      38.933 -12.077   1.851  1.00  0.00     0.066 A 
HETATM   20  C   UNL     1      39.917 -11.490   1.072  1.00  0.00     0.036 A 
HETATM   21  C   UNL     1      41.258 -11.785   1.327  1.00  0.00     0.003 A 
HETATM   22  C   UNL     1      41.607 -12.659   2.365  1.00  0.00     0.010 A 
BRANCH  19  23
HETATM   23  O   UNL     1      37.609 -11.818   1.660  1.00  0.00    -0.361 OA
HETATM   24  H   UNL     1      37.104 -12.625   1.865  1.00  0.00     0.217 HD
ENDBRANCH  19  23
ENDBRANCH   6  17
BRANCH   1  25
HETATM   25  C   UNL     1      41.500 -12.087   5.788  1.00  0.00     0.155 C 
BRANCH  25  26
HETATM   26  C   UNL     1      42.749 -11.240   5.523  1.00  0.00     0.254 C 
BRANCH  26  27
HETATM   27  N   UNL     1      43.600 -11.092   6.772  1.00  0.00    -0.077 N 
HETATM   28  C   UNL     1      43.274  -9.827   7.513  1.00  0.00     0.269 C 
HETATM   29  H   UNL     1      43.372 -11.887   7.386  1.00  0.00     0.279 HD
HETATM   30  C   UNL     1      45.079 -11.203   6.506  1.00  0.00     0.269 C 
ENDBRANCH  26  27
ENDBRANCH  25  26
ENDBRANCH   1  25
TORSDOF 5
ENDMDL
MODEL 2
REMARK VINA RESULT:      -8.0      1.374      1.685
REMARK  5 active torsions:
REMARK  status: ('A' for Active; 'I' for Inactive)
REMARK    1  A    between atoms: N_2  and  C_4 
REMARK    2  A    between atoms: C_4  and  C_5 
REMARK    3  A    between atoms: C_5  and  N_6 
REMARK    4  A    between atoms: C_11  and  C_12 
REMARK    5  A    between atoms: C_14  and  O_15 
ROOT
HETATM    1  N   UNL     1      41.426 -12.914   4.668  1.00  0.00    -0.332 N 
HETATM    2  C   UNL     1      42.389 -13.637   5.354  1.00  0.00     0.279 C 
HETATM    3  O   UNL     1      42.972 -13.268   6.355  1.00  0.00    -0.265 OA
HETATM    4  C   UNL     1      42.529 -14.926   4.655  1.00  0.00     0.156 A 
HETATM    5  C   UNL     1      41.605 -14.940   3.693  1.00  0.00     0.060 A 
HETATM    6  C   UNL     1      40.711 -13.758   3.709  1.00  0.00     0.161 C 
HETATM    7  O   UNL     1      43.441 -15.895   4.961  1.00  0.00    -0.303 OA
HETATM    8  C   UNL     1      43.434 -17.006   4.144  1.00  0.00     0.090 A 
HETATM    9  C   UNL     1      42.543 -17.155   3.068  1.00  0.00     0.051 A 
HETATM   10  C   UNL     1      41.521 -16.110   2.826  1.00  0.00     0.196 A 
HETATM   11  O   UNL     1      40.652 -16.220   1.977  1.00  0.00    -0.287 OA
HETATM   12  C   UNL     1      44.367 -18.005   4.423  1.00  0.00     0.041 A 
HETATM   13  C   UNL     1      44.421 -19.141   3.612  1.00  0.00     0.045 A 
HETATM   14  C   UNL     1      43.549 -19.265   2.532  1.00  0.00     0.117 A 
HETATM   15  F   UNL     1      43.620 -20.351   1.753  1.00  0.00    -0.206 F 
HETATM   16  C   UNL     1      42.605 -18.284   2.250  1.00  0.00     0.060 A 
ENDROOT
BRANCH   6  17
HETATM   17  C   UNL     1      40.362 -13.061   2.422  1.00  0.00    -0.028 A 
HETATM   18  C   UNL     1      39.026 -12.668   2.219  1.00  0.00     0.046 A 
HETATM   19  C   UNL     1      38.659 -11.964   1.077  1.00  0.00     0.066 A 
HETATM   20  C   UNL     1      39.600 -11.639   0.113  1.00  0.00     0.036 A 
HETATM   21  C   UNL     1      40.929 -12.026   0.296  1.00  0.00     0.003 A 
HETATM   22  C   UNL     1      41.312 -12.729   1.446  1.00  0.00     0.010 A 
BRANCH  19  23
HETATM   23  O   UNL     1      37.351 -11.603   0.963  1.00  0.00    -0.361 OA
HETATM   24  H   UNL     1      36.798 -12.343   1.272  1.00  0.00     0.217 HD
ENDBRANCH  19  23
ENDBRANCH   6  17
BRANCH   1  25
HETATM   25  C   UNL     1      41.238 -11.472   4.831  1.00  0.00     0.155 C 
BRANCH  25  26
HETATM   26  C   UNL     1      42.324 -10.622   4.166  1.00  0.00     0.254 C 
BRANCH  26  27
HETATM   27  N   UNL     1      41.819  -9.228   3.835  1.00  0.00    -0.077 N 
HETATM   28  C   UNL     1      41.372  -8.499   5.069  1.00  0.00     0.269 C 
HETATM   29  H   UNL     1      42.613  -8.710   3.430  1.00  0.00     0.279 HD
HETATM   30  C   UNL     1      40.749  -9.215   2.775  1.00  0.00     0.269 C 
ENDBRANCH  26  27
ENDBRANCH  25  26
ENDBRANCH   1  25
TORSDOF 5
ENDMDL
MODEL 3
REMARK VINA RESULT:      -7.7      2.789      5.660
REMARK  5 active torsions:
REMARK  status: ('A' for Active; 'I' for Inactive)
REMARK    1  A    between atoms: N_2  and  C_4 
REMARK    2  A    between atoms: C_4  and  C_5 
REMARK    3  A    between atoms: C_5  and  N_6 
REMARK    4  A    between atoms: C_11  and  C_12 
REMARK    5  A    between atoms: C_14  and  O_15 
ROOT
HETATM    1  N   UNL     1      41.534 -12.017   3.691  1.00  0.00    -0.332 N 
HETATM    2  C   UNL     1      40.717 -11.212   2.913  1.00  0.00     0.279 C 
HETATM    3  O   UNL     1      40.412 -10.062   3.162  1.00  0.00    -0.265 OA
HETATM    4  C   UNL     1      40.332 -12.010   1.736  1.00  0.00     0.156 A 
HETATM    5  C   UNL     1      40.999 -13.163   1.822  1.00  0.00     0.060 A 
HETATM    6  C   UNL     1      41.947 -13.218   2.961  1.00  0.00     0.161 C 
HETATM    7  O   UNL     1      39.458 -11.614   0.765  1.00  0.00    -0.303 OA
HETATM    8  C   UNL     1      39.200 -12.539  -0.225  1.00  0.00     0.090 A 
HETATM    9  C   UNL     1      39.800 -13.809  -0.255  1.00  0.00     0.051 A 
HETATM   10  C   UNL     1      40.800 -14.161   0.778  1.00  0.00     0.196 A 
HETATM   11  O   UNL     1      41.435 -15.203   0.756  1.00  0.00    -0.287 OA
HETATM   12  C   UNL     1      38.297 -12.168  -1.221  1.00  0.00     0.041 A 
HETATM   13  C   UNL     1      37.979 -13.075  -2.234  1.00  0.00     0.045 A 
HETATM   14  C   UNL     1      38.562 -14.342  -2.239  1.00  0.00     0.117 A 
HETATM   15  F   UNL     1      38.239 -15.208  -3.207  1.00  0.00    -0.206 F 
HETATM   16  C   UNL     1      39.473 -14.721  -1.260  1.00  0.00     0.060 A 
ENDROOT
BRANCH   6  17
HETATM   17  C   UNL     1      42.025 -14.454   3.815  1.00  0.00    -0.028 A 
HETATM   18  C   UNL     1      40.836 -14.945   4.386  1.00  0.00     0.046 A 
HETATM   19  C   UNL     1      40.839 -16.120   5.130  1.00  0.00     0.066 A 
HETATM   20  C   UNL     1      42.012 -16.828   5.331  1.00  0.00     0.036 A 
HETATM   21  C   UNL     1      43.202 -16.352   4.777  1.00  0.00     0.003 A 
HETATM   22  C   UNL     1      43.211 -15.174   4.019  1.00  0.00     0.010 A 
BRANCH  19  23
HETATM   23  O   UNL     1      39.644 -16.540   5.633  1.00  0.00    -0.361 OA
HETATM   24  H   UNL     1      38.945 -15.946   5.306  1.00  0.00     0.217 HD
ENDBRANCH  19  23
ENDBRANCH   6  17
BRANCH   1  25
HETATM   25  C   UNL     1      41.849 -11.727   5.090  1.00  0.00     0.155 C 
BRANCH  25  26
HETATM   26  C   UNL     1      43.213 -11.062   5.297  1.00  0.00     0.254 C 
BRANCH  26  27
HETATM   27  N   UNL     1      44.230 -12.036   5.865  1.00  0.00    -0.077 N 
HETATM   28  C   UNL     1      43.610 -12.946   6.885  1.00  0.00     0.269 C 
HETATM   29  H   UNL     1      44.558 -12.618   5.080  1.00  0.00     0.279 HD
HETATM   30  C   UNL     1      45.464 -11.365   6.410  1.00  0.00     0.269 C 
ENDBRANCH  26  27
ENDBRANCH  25  26
ENDBRANCH   1  25
TORSDOF 5
ENDMDL
MODEL 4
REMARK VINA RESULT:      -7.5      2.394      4.727
REMARK  5 active torsions:
REMARK  status: ('A' for Active; 'I' for Inactive)
REMARK    1  A    between atoms: N_2  and  C_4 
REMARK    2  A    between atoms: C_4  and  C_5 
REMARK    3  A    between atoms: C_5  and  N_6 
REMARK    4  A    between atoms: C_11  and  C_12 
REMARK    5  A    between atoms: C_14  and  O_15 
ROOT
HETATM    1  N   UNL     1      40.838 -13.360   1.711  1.00  0.00    -0.332 N 
HETATM    2  C   UNL     1      40.956 -14.539   0.990  1.00  0.00     0.279 C 
HETATM    3  O   UNL     1      40.503 -14.738  -0.120  1.00  0.00    -0.265 OA
HETATM    4  C   UNL     1      41.751 -15.463   1.817  1.00  0.00     0.156 A 
HETATM    5  C   UNL     1      42.137 -14.776   2.893  1.00  0.00     0.060 A 
HETATM    6  C   UNL     1      41.749 -13.346   2.857  1.00  0.00     0.161 C 
HETATM    7  O   UNL     1      42.021 -16.765   1.507  1.00  0.00    -0.303 OA
HETATM    8  C   UNL     1      42.745 -17.469   2.448  1.00  0.00     0.090 A 
HETATM    9  C   UNL     1      43.195 -16.894   3.648  1.00  0.00     0.051 A 
HETATM   10  C   UNL     1      42.943 -15.456   3.900  1.00  0.00     0.196 A 
HETATM   11  O   UNL     1      43.392 -14.867   4.870  1.00  0.00    -0.287 OA
HETATM   12  C   UNL     1      43.021 -18.807   2.166  1.00  0.00     0.041 A 
HETATM   13  C   UNL     1      43.728 -19.573   3.095  1.00  0.00     0.045 A 
HETATM   14  C   UNL     1      44.146 -18.998   4.294  1.00  0.00     0.117 A 
HETATM   15  F   UNL     1      44.811 -19.746   5.183  1.00  0.00    -0.206 F 
HETATM   16  C   UNL     1      43.891 -17.663   4.582  1.00  0.00     0.060 A 
ENDROOT
BRANCH   6  17
HETATM   17  C   UNL     1      41.176 -12.691   4.084  1.00  0.00    -0.028 A 
HETATM   18  C   UNL     1      41.690 -11.439   4.472  1.00  0.00     0.046 A 
HETATM   19  C   UNL     1      41.155 -10.759   5.560  1.00  0.00     0.066 A 
HETATM   20  C   UNL     1      40.108 -11.300   6.289  1.00  0.00     0.036 A 
HETATM   21  C   UNL     1      39.590 -12.543   5.922  1.00  0.00     0.003 A 
HETATM   22  C   UNL     1      40.116 -13.235   4.823  1.00  0.00     0.010 A 
BRANCH  19  23
HETATM   23  O   UNL     1      41.694  -9.544   5.860  1.00  0.00    -0.361 OA
HETATM   24  H   UNL     1      42.131  -9.605   6.727  1.00  0.00     0.217 HD
ENDBRANCH  19  23
ENDBRANCH   6  17
BRANCH   1  25
HETATM   25  C   UNL     1      39.854 -12.324   1.399  1.00  0.00     0.155 C 
BRANCH  25  26
HETATM   26  C   UNL     1      40.441 -11.100   0.691  1.00  0.00     0.254 C 
BRANCH  26  27
HETATM   27  N   UNL     1      40.100 -11.092  -0.789  1.00  0.00    -0.077 N 
HETATM   28  C   UNL     1      38.764 -11.726  -1.049  1.00  0.00     0.269 C 
HETATM   29  H   UNL     1      40.045 -10.105  -1.079  1.00  0.00     0.279 HD
HETATM   30  C   UNL     1      41.172 -11.704  -1.654  1.00  0.00     0.269 C 
ENDBRANCH  26  27
ENDBRANCH  25  26
ENDBRANCH   1  25
TORSDOF 5
ENDMDL
MODEL 5
REMARK VINA RESULT:      -7.1      1.942      2.440
REMARK  5 active torsions:
REMARK  status: ('A' for Active; 'I' for Inactive)
REMARK    1  A    between atoms: N_2  and  C_4 
REMARK    2  A    between atoms: C_4  and  C_5 
REMARK    3  A    between atoms: C_5  and  N_6 
REMARK    4  A    between atoms: C_11  and  C_12 
REMARK    5  A    between atoms: C_14  and  O_15 
ROOT
HETATM    1  N   UNL     1      42.086 -12.007   6.101  1.00  0.00    -0.332 N 
HETATM    2  C   UNL     1      43.029 -12.937   6.511  1.00  0.00     0.279 C 
HETATM    3  O   UNL     1      43.802 -12.800   7.439  1.00  0.00    -0.265 OA
HETATM    4  C   UNL     1      42.879 -14.109   5.631  1.00  0.00     0.156 A 
HETATM    5  C   UNL     1      41.829 -13.864   4.846  1.00  0.00     0.060 A 
HETATM    6  C   UNL     1      41.123 -12.602   5.173  1.00  0.00     0.161 C 
HETATM    7  O   UNL     1      43.681 -15.214   5.645  1.00  0.00    -0.303 OA
HETATM    8  C   UNL     1      43.395 -16.176   4.699  1.00  0.00     0.090 A 
HETATM    9  C   UNL     1      42.340 -16.049   3.780  1.00  0.00     0.051 A 
HETATM   10  C   UNL     1      41.451 -14.867   3.857  1.00  0.00     0.196 A 
HETATM   11  O   UNL     1      40.458 -14.741   3.161  1.00  0.00    -0.287 OA
HETATM   12  C   UNL     1      44.208 -17.309   4.679  1.00  0.00     0.041 A 
HETATM   13  C   UNL     1      43.979 -18.303   3.725  1.00  0.00     0.045 A 
HETATM   14  C   UNL     1      42.946 -18.153   2.802  1.00  0.00     0.117 A 
HETATM   15  F   UNL     1      42.745 -19.106   1.883  1.00  0.00    -0.206 F 
HETATM   16  C   UNL     1      42.119 -17.037   2.818  1.00  0.00     0.060 A 
ENDROOT
BRANCH   6  17
HETATM   17  C   UNL     1      40.687 -11.677   4.070  1.00  0.00    -0.028 A 
HETATM   18  C   UNL     1      41.650 -11.259   3.132  1.00  0.00     0.046 A 
HETATM   19  C   UNL     1      41.290 -10.456   2.056  1.00  0.00     0.066 A 
HETATM   20  C   UNL     1      39.978 -10.046   1.886  1.00  0.00     0.036 A 
HETATM   21  C   UNL     1      39.011 -10.446   2.809  1.00  0.00     0.003 A 
HETATM   22  C   UNL     1      39.359 -11.261   3.894  1.00  0.00     0.010 A 
BRANCH  19  23
HETATM   23  O   UNL     1      42.276 -10.110   1.181  1.00  0.00    -0.361 OA
HETATM   24  H   UNL     1      43.112 -10.027   1.674  1.00  0.00     0.217 HD
ENDBRANCH  19  23
ENDBRANCH   6  17
BRANCH   1  25
HETATM   25  C   UNL     1      42.129 -10.597   6.487  1.00  0.00     0.155 C 
BRANCH  25  26
HETATM   26  C   UNL     1      40.860 -10.103   7.187  1.00  0.00     0.254 C 
BRANCH  26  27
HETATM   27  N   UNL     1      40.833  -8.588   7.293  1.00  0.00    -0.077 N 
HETATM   28  C   UNL     1      41.041  -7.940   5.955  1.00  0.00     0.269 C 
HETATM   29  H   UNL     1      39.894  -8.327   7.629  1.00  0.00     0.279 HD
HETATM   30  C   UNL     1      41.792  -8.042   8.318  1.00  0.00     0.269 C 
ENDBRANCH  26  27
ENDBRANCH  25  26
ENDBRANCH   1  25
TORSDOF 5
ENDMDL
MODEL 6
REMARK VINA RESULT:      -7.1      4.026      7.902
REMARK  5 active torsions:
REMARK  status: ('A' for Active; 'I' for Inactive)
REMARK    1  A    between atoms: N_2  and  C_4 
REMARK    2  A    between atoms: C_4  and  C_5 
REMARK    3  A    between atoms: C_5  and  N_6 
REMARK    4  A    between atoms: C_11  and  C_12 
REMARK    5  A    between atoms: C_14  and  O_15 
ROOT
HETATM    1  N   UNL     1      39.718 -13.315   0.603  1.00  0.00    -0.332 N 
HETATM    2  C   UNL     1      39.092 -12.094   0.800  1.00  0.00     0.279 C 
HETATM    3  O   UNL     1      38.591 -11.406  -0.068  1.00  0.00    -0.265 OA
HETATM    4  C   UNL     1      39.131 -11.827   2.248  1.00  0.00     0.156 A 
HETATM    5  C   UNL     1      39.663 -12.908   2.821  1.00  0.00     0.060 A 
HETATM    6  C   UNL     1      39.928 -14.015   1.872  1.00  0.00     0.161 C 
HETATM    7  O   UNL     1      38.698 -10.681   2.852  1.00  0.00    -0.303 OA
HETATM    8  C   UNL     1      38.874 -10.618   4.218  1.00  0.00     0.090 A 
HETATM    9  C   UNL     1      39.449 -11.663   4.961  1.00  0.00     0.051 A 
HETATM   10  C   UNL     1      39.830 -12.916   4.270  1.00  0.00     0.196 A 
HETATM   11  O   UNL     1      40.239 -13.900   4.864  1.00  0.00    -0.287 OA
HETATM   12  C   UNL     1      38.456  -9.452   4.860  1.00  0.00     0.041 A 
HETATM   13  C   UNL     1      38.634  -9.324   6.239  1.00  0.00     0.045 A 
HETATM   14  C   UNL     1      39.229 -10.357   6.960  1.00  0.00     0.117 A 
HETATM   15  F   UNL     1      39.407 -10.217   8.279  1.00  0.00    -0.206 F 
HETATM   16  C   UNL     1      39.638 -11.530   6.337  1.00  0.00     0.060 A 
ENDROOT
BRANCH   6  17
HETATM   17  C   UNL     1      41.225 -14.773   1.943  1.00  0.00    -0.028 A 
HETATM   18  C   UNL     1      41.171 -16.169   2.112  1.00  0.00     0.046 A 
HETATM   19  C   UNL     1      42.336 -16.928   2.121  1.00  0.00     0.066 A 
HETATM   20  C   UNL     1      43.575 -16.326   1.970  1.00  0.00     0.036 A 
HETATM   21  C   UNL     1      43.647 -14.941   1.808  1.00  0.00     0.003 A 
HETATM   22  C   UNL     1      42.480 -14.167   1.789  1.00  0.00     0.010 A 
BRANCH  19  23
HETATM   23  O   UNL     1      42.200 -18.275   2.269  1.00  0.00    -0.361 OA
HETATM   24  H   UNL     1      41.435 -18.569   1.742  1.00  0.00     0.217 HD
ENDBRANCH  19  23
ENDBRANCH   6  17
BRANCH   1  25
HETATM   25  C   UNL     1      40.184 -13.775  -0.705  1.00  0.00     0.155 C 
BRANCH  25  26
HETATM   26  C   UNL     1      39.142 -14.577  -1.491  1.00  0.00     0.254 C 
BRANCH  26  27
HETATM   27  N   UNL     1      38.706 -13.846  -2.749  1.00  0.00    -0.077 N 
HETATM   28  C   UNL     1      39.645 -12.724  -3.086  1.00  0.00     0.269 C 
HETATM   29  H   UNL     1      38.739 -14.529  -3.519  1.00  0.00     0.279 HD
HETATM   30  C   UNL     1      37.279 -13.366  -2.699  1.00  0.00     0.269 C 
ENDBRANCH  26  27
ENDBRANCH  25  26
ENDBRANCH   1  25
TORSDOF 5
ENDMDL
MODEL 7
REMARK VINA RESULT:      -7.0     15.547     16.734
REMARK  5 active torsions:
REMARK  status: ('A' for Active; 'I' for Inactive)
REMARK    1  A    between atoms: N_2  and  C_4 
REMARK    2  A    between atoms: C_4  and  C_5 
REMARK    3  A    between atoms: C_5  and  N_6 
REMARK    4  A    between atoms: C_11  and  C_12 
REMARK    5  A    between atoms: C_14  and  O_15 
ROOT
HETATM    1  N   UNL     1      46.772 -28.970   0.220  1.00  0.00    -0.332 N 
HETATM    2  C   UNL     1      46.804 -29.542   1.482  1.00  0.00     0.279 C 
HETATM    3  O   UNL     1      47.796 -29.688   2.169  1.00  0.00    -0.265 OA
HETATM    4  C   UNL     1      45.415 -29.897   1.822  1.00  0.00     0.156 A 
HETATM    5  C   UNL     1      44.651 -29.440   0.828  1.00  0.00     0.060 A 
HETATM    6  C   UNL     1      45.400 -28.667  -0.191  1.00  0.00     0.161 C 
HETATM    7  O   UNL     1      45.024 -30.566   2.946  1.00  0.00    -0.303 OA
HETATM    8  C   UNL     1      43.675 -30.841   3.042  1.00  0.00     0.090 A 
HETATM    9  C   UNL     1      42.748 -30.453   2.061  1.00  0.00     0.051 A 
HETATM   10  C   UNL     1      43.212 -29.662   0.899  1.00  0.00     0.196 A 
HETATM   11  O   UNL     1      42.449 -29.205   0.064  1.00  0.00    -0.287 OA
HETATM   12  C   UNL     1      43.249 -31.538   4.172  1.00  0.00     0.041 A 
HETATM   13  C   UNL     1      41.898 -31.866   4.309  1.00  0.00     0.045 A 
HETATM   14  C   UNL     1      40.992 -31.499   3.316  1.00  0.00     0.117 A 
HETATM   15  F   UNL     1      39.702 -31.831   3.451  1.00  0.00    -0.206 F 
HETATM   16  C   UNL     1      41.400 -30.792   2.192  1.00  0.00     0.060 A 
ENDROOT
BRANCH   6  17
HETATM   17  C   UNL     1      45.136 -28.897  -1.654  1.00  0.00    -0.028 A 
HETATM   18  C   UNL     1      45.360 -27.831  -2.546  1.00  0.00     0.046 A 
HETATM   19  C   UNL     1      45.194 -28.006  -3.915  1.00  0.00     0.066 A 
HETATM   20  C   UNL     1      44.798 -29.230  -4.430  1.00  0.00     0.036 A 
HETATM   21  C   UNL     1      44.566 -30.295  -3.559  1.00  0.00     0.003 A 
HETATM   22  C   UNL     1      44.738 -30.134  -2.178  1.00  0.00     0.010 A 
BRANCH  19  23
HETATM   23  O   UNL     1      45.449 -26.933  -4.715  1.00  0.00    -0.361 OA
HETATM   24  H   UNL     1      45.563 -26.147  -4.151  1.00  0.00     0.217 HD
ENDBRANCH  19  23
ENDBRANCH   6  17
BRANCH   1  25
HETATM   25  C   UNL     1      47.963 -28.794  -0.611  1.00  0.00     0.155 C 
BRANCH  25  26
HETATM   26  C   UNL     1      48.589 -30.107  -1.091  1.00  0.00     0.254 C 
BRANCH  26  27
HETATM   27  N   UNL     1      50.104 -30.071  -1.001  1.00  0.00    -0.077 N 
HETATM   28  C   UNL     1      50.741 -30.660  -2.226  1.00  0.00     0.269 C 
HETATM   29  H   UNL     1      50.378 -29.079  -0.947  1.00  0.00     0.279 HD
HETATM   30  C   UNL     1      50.646 -30.705   0.254  1.00  0.00     0.269 C 
ENDBRANCH  26  27
ENDBRANCH  25  26
ENDBRANCH   1  25
TORSDOF 5
ENDMDL
MODEL 8
REMARK VINA RESULT:      -7.0     15.602     17.101
REMARK  5 active torsions:
REMARK  status: ('A' for Active; 'I' for Inactive)
REMARK    1  A    between atoms: N_2  and  C_4 
REMARK    2  A    between atoms: C_4  and  C_5 
REMARK    3  A    between atoms: C_5  and  N_6 
REMARK    4  A    between atoms: C_11  and  C_12 
REMARK    5  A    between atoms: C_14  and  O_15 
ROOT
HETATM    1  N   UNL     1      45.651 -28.632  -0.286  1.00  0.00    -0.332 N 
HETATM    2  C   UNL     1      47.027 -28.560  -0.430  1.00  0.00     0.279 C 
HETATM    3  O   UNL     1      47.617 -28.107  -1.391  1.00  0.00    -0.265 OA
HETATM    4  C   UNL     1      47.611 -29.106   0.808  1.00  0.00     0.156 A 
HETATM    5  C   UNL     1      46.592 -29.363   1.629  1.00  0.00     0.060 A 
HETATM    6  C   UNL     1      45.276 -28.937   1.096  1.00  0.00     0.161 C 
HETATM    7  O   UNL     1      48.944 -29.296   1.035  1.00  0.00    -0.303 OA
HETATM    8  C   UNL     1      49.272 -29.868   2.246  1.00  0.00     0.090 A 
HETATM    9  C   UNL     1      48.308 -30.225   3.205  1.00  0.00     0.051 A 
HETATM   10  C   UNL     1      46.882 -29.926   2.942  1.00  0.00     0.196 A 
HETATM   11  O   UNL     1      46.005 -30.114   3.769  1.00  0.00    -0.287 OA
HETATM   12  C   UNL     1      50.626 -30.090   2.499  1.00  0.00     0.041 A 
HETATM   13  C   UNL     1      51.012 -30.689   3.699  1.00  0.00     0.045 A 
HETATM   14  C   UNL     1      50.045 -31.063   4.630  1.00  0.00     0.117 A 
HETATM   15  F   UNL     1      50.426 -31.650   5.771  1.00  0.00    -0.206 F 
HETATM   16  C   UNL     1      48.694 -30.836   4.399  1.00  0.00     0.060 A 
ENDROOT
BRANCH   6  17
HETATM   17  C   UNL     1      44.084 -29.846   1.219  1.00  0.00    -0.028 A 
HETATM   18  C   UNL     1      44.248 -31.206   0.893  1.00  0.00     0.046 A 
HETATM   19  C   UNL     1      43.199 -32.104   1.049  1.00  0.00     0.066 A 
HETATM   20  C   UNL     1      41.968 -31.680   1.522  1.00  0.00     0.036 A 
HETATM   21  C   UNL     1      41.786 -30.334   1.845  1.00  0.00     0.003 A 
HETATM   22  C   UNL     1      42.838 -29.421   1.699  1.00  0.00     0.010 A 
BRANCH  19  23
HETATM   23  O   UNL     1      43.442 -33.406   0.731  1.00  0.00    -0.361 OA
HETATM   24  H   UNL     1      42.838 -33.668   0.013  1.00  0.00     0.217 HD
ENDBRANCH  19  23
ENDBRANCH   6  17
BRANCH   1  25
HETATM   25  C   UNL     1      44.720 -28.509  -1.408  1.00  0.00     0.155 C 
BRANCH  25  26
HETATM   26  C   UNL     1      44.808 -29.657  -2.419  1.00  0.00     0.254 C 
BRANCH  26  27
HETATM   27  N   UNL     1      45.392 -29.193  -3.742  1.00  0.00    -0.077 N 
HETATM   28  C   UNL     1      45.203 -27.717  -3.939  1.00  0.00     0.269 C 
HETATM   29  H   UNL     1      46.405 -29.381  -3.705  1.00  0.00     0.279 HD
HETATM   30  C   UNL     1      44.884 -29.971  -4.928  1.00  0.00     0.269 C 
ENDBRANCH  26  27
ENDBRANCH  25  26
ENDBRANCH   1  25
TORSDOF 5
ENDMDL
MODEL 9
REMARK VINA RESULT:      -7.0      2.567      3.401
REMARK  5 active torsions:
REMARK  status: ('A' for Active; 'I' for Inactive)
REMARK    1  A    between atoms: N_2  and  C_4 
REMARK    2  A    between atoms: C_4  and  C_5 
REMARK    3  A    between atoms: C_5  and  N_6 
REMARK    4  A    between atoms: C_11  and  C_12 
REMARK    5  A    between atoms: C_14  and  O_15 
ROOT
HETATM    1  N   UNL     1      40.374 -12.042   3.424  1.00  0.00    -0.332 N 
HETATM    2  C   UNL     1      41.282 -12.557   4.336  1.00  0.00     0.279 C 
HETATM    3  O   UNL     1      41.697 -11.982   5.323  1.00  0.00    -0.265 OA
HETATM    4  C   UNL     1      41.604 -13.922   3.888  1.00  0.00     0.156 A 
HETATM    5  C   UNL     1      40.823 -14.173   2.836  1.00  0.00     0.060 A 
HETATM    6  C   UNL     1      39.855 -13.089   2.542  1.00  0.00     0.161 C 
HETATM    7  O   UNL     1      42.530 -14.744   4.463  1.00  0.00    -0.303 OA
HETATM    8  C   UNL     1      42.711 -15.967   3.852  1.00  0.00     0.090 A 
HETATM    9  C   UNL     1      41.986 -16.365   2.716  1.00  0.00     0.051 A 
HETATM   10  C   UNL     1      40.938 -15.469   2.177  1.00  0.00     0.196 A 
HETATM   11  O   UNL     1      40.202 -15.791   1.259  1.00  0.00    -0.287 OA
HETATM   12  C   UNL     1      43.664 -16.821   4.409  1.00  0.00     0.041 A 
HETATM   13  C   UNL     1      43.906 -18.061   3.815  1.00  0.00     0.045 A 
HETATM   14  C   UNL     1      43.199 -18.434   2.673  1.00  0.00     0.117 A 
HETATM   15  F   UNL     1      43.449 -19.619   2.105  1.00  0.00    -0.206 F 
HETATM   16  C   UNL     1      42.237 -17.600   2.116  1.00  0.00     0.060 A 
ENDROOT
BRANCH   6  17
HETATM   17  C   UNL     1      39.638 -12.640   1.122  1.00  0.00    -0.028 A 
HETATM   18  C   UNL     1      40.741 -12.635   0.249  1.00  0.00     0.046 A 
HETATM   19  C   UNL     1      40.586 -12.291  -1.089  1.00  0.00     0.066 A 
HETATM   20  C   UNL     1      39.343 -11.940  -1.590  1.00  0.00     0.036 A 
HETATM   21  C   UNL     1      38.239 -11.933  -0.736  1.00  0.00     0.003 A 
HETATM   22  C   UNL     1      38.381 -12.285   0.612  1.00  0.00     0.010 A 
BRANCH  19  23
HETATM   23  O   UNL     1      41.699 -12.330  -1.874  1.00  0.00    -0.361 OA
HETATM   24  H   UNL     1      41.575 -11.712  -2.617  1.00  0.00     0.217 HD
ENDBRANCH  19  23
ENDBRANCH   6  17
BRANCH   1  25
HETATM   25  C   UNL     1      40.066 -10.616   3.316  1.00  0.00     0.155 C 
BRANCH  25  26
HETATM   26  C   UNL     1      38.702 -10.227   3.894  1.00  0.00     0.254 C 
BRANCH  26  27
HETATM   27  N   UNL     1      38.447  -8.735   3.771  1.00  0.00    -0.077 N 
HETATM   28  C   UNL     1      39.729  -7.970   3.609  1.00  0.00     0.269 C 
HETATM   29  H   UNL     1      37.885  -8.596   2.918  1.00  0.00     0.279 HD
HETATM   30  C   UNL     1      37.615  -8.174   4.895  1.00  0.00     0.269 C 
ENDBRANCH  26  27
ENDBRANCH  25  26
ENDBRANCH   1  25
TORSDOF 5
ENDMDL
MODEL 10
REMARK VINA RESULT:      -6.9     15.734     17.625
REMARK  5 active torsions:
REMARK  status: ('A' for Active; 'I' for Inactive)
REMARK    1  A    between atoms: N_2  and  C_4 
REMARK    2  A    between atoms: C_4  and  C_5 
REMARK    3  A    between atoms: C_5  and  N_6 
REMARK    4  A    between atoms: C_11  and  C_12 
REMARK    5  A    between atoms: C_14  and  O_15 
ROOT
HETATM    1  N   UNL     1      45.765 -31.688   2.472  1.00  0.00    -0.332 N 
HETATM    2  C   UNL     1      44.847 -32.040   1.495  1.00  0.00     0.279 C 
HETATM    3  O   UNL     1      44.096 -32.995   1.540  1.00  0.00    -0.265 OA
HETATM    4  C   UNL     1      44.947 -31.024   0.434  1.00  0.00     0.156 A 
HETATM    5  C   UNL     1      45.808 -30.102   0.868  1.00  0.00     0.060 A 
HETATM    6  C   UNL     1      46.279 -30.334   2.255  1.00  0.00     0.161 C 
HETATM    7  O   UNL     1      44.272 -31.052  -0.753  1.00  0.00    -0.303 OA
HETATM    8  C   UNL     1      44.551 -30.024  -1.628  1.00  0.00     0.090 A 
HETATM    9  C   UNL     1      45.460 -28.995  -1.328  1.00  0.00     0.051 A 
HETATM   10  C   UNL     1      46.107 -28.967   0.003  1.00  0.00     0.196 A 
HETATM   11  O   UNL     1      46.826 -28.051   0.369  1.00  0.00    -0.287 OA
HETATM   12  C   UNL     1      43.889 -30.037  -2.856  1.00  0.00     0.041 A 
HETATM   13  C   UNL     1      44.153 -29.033  -3.790  1.00  0.00     0.045 A 
HETATM   14  C   UNL     1      45.076 -28.032  -3.491  1.00  0.00     0.117 A 
HETATM   15  F   UNL     1      45.331 -27.084  -4.400  1.00  0.00    -0.206 F 
HETATM   16  C   UNL     1      45.733 -27.999  -2.267  1.00  0.00     0.060 A 
ENDROOT
BRANCH   6  17
HETATM   17  C   UNL     1      47.736 -30.173   2.591  1.00  0.00    -0.028 A 
HETATM   18  C   UNL     1      48.685 -30.782   1.749  1.00  0.00     0.046 A 
HETATM   19  C   UNL     1      50.046 -30.612   1.974  1.00  0.00     0.066 A 
HETATM   20  C   UNL     1      50.498 -29.846   3.037  1.00  0.00     0.036 A 
HETATM   21  C   UNL     1      49.571 -29.240   3.886  1.00  0.00     0.003 A 
HETATM   22  C   UNL     1      48.196 -29.397   3.664  1.00  0.00     0.010 A 
BRANCH  19  23
HETATM   23  O   UNL     1      50.901 -31.217   1.103  1.00  0.00    -0.361 OA
HETATM   24  H   UNL     1      50.378 -31.738   0.468  1.00  0.00     0.217 HD
ENDBRANCH  19  23
ENDBRANCH   6  17
BRANCH   1  25
HETATM   25  C   UNL     1      46.215 -32.606   3.518  1.00  0.00     0.155 C 
BRANCH  25  26
HETATM   26  C   UNL     1      45.169 -32.878   4.602  1.00  0.00     0.254 C 
BRANCH  26  27
HETATM   27  N   UNL     1      45.234 -31.845   5.714  1.00  0.00    -0.077 N 
HETATM   28  C   UNL     1      46.653 -31.545   6.103  1.00  0.00     0.269 C 
HETATM   29  H   UNL     1      44.817 -30.979   5.343  1.00  0.00     0.279 HD
HETATM   30  C   UNL     1      44.404 -32.206   6.918  1.00  0.00     0.269 C 
ENDBRANCH  26  27
ENDBRANCH  25  26
ENDBRANCH   1  25
TORSDOF 5
ENDMDL
