MODEL 1
REMARK VINA RESULT:      -9.1      0.000      0.000
REMARK  6 active torsions:
REMARK  status: ('A' for Active; 'I' for Inactive)
REMARK    1  A    between atoms: C_6  and  C_7 
REMARK    2  A    between atoms: C_7  and  N_8 
REMARK    3  A    between atoms: C_12  and  C_13 
REMARK    4  A    between atoms: C_13  and  C_14 
REMARK    5  A    between atoms: N_23  and  C_24 
REMARK    6  A    between atoms: C_24  and  C_25 
ROOT
HETATM    1  C   UNL     1      41.754 -14.475   4.056  1.00  0.00     0.149 C 
HETATM    2  N   UNL     1      42.531 -13.760   3.054  1.00  0.00    -0.220 NA
HETATM    3  C   UNL     1      43.130 -12.644   3.593  1.00  0.00     0.304 C 
HETATM    4  O   UNL     1      44.013 -12.030   3.021  1.00  0.00    -0.253 OA
HETATM    5  N   UNL     1      42.587 -12.392   4.809  1.00  0.00    -0.270 N 
HETATM    6  C   UNL     1      41.823 -13.450   5.209  1.00  0.00     0.257 C 
HETATM    7  O   UNL     1      41.255 -13.568   6.288  1.00  0.00    -0.270 OA
HETATM    8  H   UNL     1      43.169 -14.308   2.479  1.00  0.00     0.134 HD
ENDROOT
BRANCH   1   9
HETATM    9  C   UNL     1      40.275 -14.726   3.610  1.00  0.00     0.028 C 
HETATM   10  C   UNL     1      40.114 -15.713   2.436  1.00  0.00     0.035 C 
HETATM   11  C   UNL     1      40.471 -15.128   1.075  1.00  0.00     0.235 C 
HETATM   12  N   UNL     1      39.682 -13.865   0.824  1.00  0.00    -0.067 N 
HETATM   13  H   UNL     1      38.695 -14.140   0.762  1.00  0.00     0.280 HD
HETATM   14  C   UNL     1      39.811 -12.838   1.921  1.00  0.00     0.235 C 
HETATM   15  C   UNL     1      39.467 -13.455   3.268  1.00  0.00     0.035 C 
BRANCH  12  16
HETATM   16  C   UNL     1      40.028 -13.231  -0.516  1.00  0.00     0.273 C 
BRANCH  16  17
HETATM   17  C   UNL     1      38.828 -12.786  -1.313  1.00  0.00    -0.027 A 
HETATM   18  C   UNL     1      38.213 -13.608  -2.281  1.00  0.00    -0.054 A 
HETATM   19  C   UNL     1      37.103 -13.119  -2.994  1.00  0.00     0.014 A 
HETATM   20  C   UNL     1      38.717 -14.988  -2.613  1.00  0.00     0.049 C 
HETATM   21  C   UNL     1      36.600 -11.834  -2.767  1.00  0.00    -0.061 A 
HETATM   22  C   UNL     1      35.425 -11.317  -3.545  1.00  0.00     0.048 C 
HETATM   23  C   UNL     1      37.208 -11.029  -1.803  1.00  0.00     0.007 A 
HETATM   24  C   UNL     1      38.310 -11.496  -1.085  1.00  0.00     0.010 A 
ENDBRANCH  16  17
ENDBRANCH  12  16
ENDBRANCH   1   9
BRANCH   1  25
HETATM   25  C   UNL     1      42.481 -15.778   4.393  1.00  0.00     0.067 A 
HETATM   26  N   UNL     1      42.268 -16.250   5.659  1.00  0.00    -0.263 NA
HETATM   27  C   UNL     1      42.881 -17.406   6.009  1.00  0.00     0.117 A 
HETATM   28  C   UNL     1      43.722 -18.110   5.169  1.00  0.00     0.019 A 
HETATM   29  C   UNL     1      43.954 -17.604   3.896  1.00  0.00     0.003 A 
HETATM   30  C   UNL     1      43.334 -16.421   3.500  1.00  0.00     0.030 A 
ENDBRANCH   1  25
BRANCH   5  31
HETATM   31  C   UNL     1      42.908 -11.240   5.634  1.00  0.00     0.168 C 
BRANCH  31  32
HETATM   32  C   UNL     1      44.006 -11.545   6.659  1.00  0.00     0.140 C 
HETATM   33  O   UNL     1      45.320 -11.310   6.100  1.00  0.00    -0.384 OA
HETATM   34  C   UNL     1      46.155 -10.787   7.151  1.00  0.00     0.168 C 
HETATM   35  C   UNL     1      45.334 -10.777   8.424  1.00  0.00     0.029 C 
HETATM   36  C   UNL     1      43.925 -10.666   7.897  1.00  0.00     0.036 C 
ENDBRANCH  31  32
ENDBRANCH   5  31
TORSDOF 6
ENDMDL
MODEL 2
REMARK VINA RESULT:      -9.0      2.815      8.133
REMARK  6 active torsions:
REMARK  status: ('A' for Active; 'I' for Inactive)
REMARK    1  A    between atoms: C_6  and  C_7 
REMARK    2  A    between atoms: C_7  and  N_8 
REMARK    3  A    between atoms: C_12  and  C_13 
REMARK    4  A    between atoms: C_13  and  C_14 
REMARK    5  A    between atoms: N_23  and  C_24 
REMARK    6  A    between atoms: C_24  and  C_25 
ROOT
HETATM    1  C   UNL     1      39.809 -11.337   3.045  1.00  0.00     0.149 C 
HETATM    2  N   UNL     1      41.127 -11.296   2.429  1.00  0.00    -0.220 NA
HETATM    3  C   UNL     1      41.071 -10.743   1.169  1.00  0.00     0.304 C 
HETATM    4  O   UNL     1      42.064 -10.385   0.562  1.00  0.00    -0.253 OA
HETATM    5  N   UNL     1      39.777 -10.671   0.774  1.00  0.00    -0.270 N 
HETATM    6  C   UNL     1      38.949 -10.924   1.830  1.00  0.00     0.257 C 
HETATM    7  O   UNL     1      37.726 -10.866   1.823  1.00  0.00    -0.270 OA
HETATM    8  H   UNL     1      41.892 -10.920   2.988  1.00  0.00     0.134 HD
ENDROOT
BRANCH   1   9
HETATM    9  C   UNL     1      39.421 -12.765   3.552  1.00  0.00     0.028 C 
HETATM   10  C   UNL     1      40.180 -13.231   4.812  1.00  0.00     0.035 C 
HETATM   11  C   UNL     1      41.617 -13.665   4.550  1.00  0.00     0.235 C 
HETATM   12  N   UNL     1      41.656 -14.730   3.479  1.00  0.00    -0.067 N 
HETATM   13  H   UNL     1      41.177 -15.553   3.862  1.00  0.00     0.280 HD
HETATM   14  C   UNL     1      40.953 -14.336   2.203  1.00  0.00     0.235 C 
HETATM   15  C   UNL     1      39.530 -13.889   2.498  1.00  0.00     0.035 C 
BRANCH  12  16
HETATM   16  C   UNL     1      43.077 -15.175   3.167  1.00  0.00     0.273 C 
BRANCH  16  17
HETATM   17  C   UNL     1      43.300 -16.660   3.303  1.00  0.00    -0.027 A 
HETATM   18  C   UNL     1      43.792 -17.247   4.489  1.00  0.00    -0.054 A 
HETATM   19  C   UNL     1      43.985 -18.640   4.538  1.00  0.00     0.014 A 
HETATM   20  C   UNL     1      44.155 -16.437   5.705  1.00  0.00     0.049 C 
HETATM   21  C   UNL     1      43.704 -19.453   3.436  1.00  0.00    -0.061 A 
HETATM   22  C   UNL     1      43.928 -20.937   3.495  1.00  0.00     0.048 C 
HETATM   23  C   UNL     1      43.210 -18.868   2.270  1.00  0.00     0.007 A 
HETATM   24  C   UNL     1      43.012 -17.488   2.201  1.00  0.00     0.010 A 
ENDBRANCH  16  17
ENDBRANCH  12  16
ENDBRANCH   1   9
BRANCH   1  25
HETATM   25  C   UNL     1      39.766 -10.297   4.166  1.00  0.00     0.067 A 
HETATM   26  N   UNL     1      40.979  -9.770   4.514  1.00  0.00    -0.263 NA
HETATM   27  C   UNL     1      40.998  -8.837   5.496  1.00  0.00     0.117 A 
HETATM   28  C   UNL     1      39.870  -8.415   6.173  1.00  0.00     0.019 A 
HETATM   29  C   UNL     1      38.648  -8.981   5.830  1.00  0.00     0.003 A 
HETATM   30  C   UNL     1      38.590  -9.938   4.819  1.00  0.00     0.030 A 
ENDBRANCH   1  25
BRANCH   5  31
HETATM   31  C   UNL     1      39.337 -10.226  -0.538  1.00  0.00     0.168 C 
BRANCH  31  32
HETATM   32  C   UNL     1      39.105 -11.394  -1.502  1.00  0.00     0.140 C 
HETATM   33  O   UNL     1      39.818 -12.576  -1.070  1.00  0.00    -0.384 OA
HETATM   34  C   UNL     1      39.004 -13.721  -1.389  1.00  0.00     0.168 C 
HETATM   35  C   UNL     1      37.776 -13.217  -2.119  1.00  0.00     0.029 C 
HETATM   36  C   UNL     1      37.646 -11.809  -1.594  1.00  0.00     0.036 C 
ENDBRANCH  31  32
ENDBRANCH   5  31
TORSDOF 6
ENDMDL
MODEL 3
REMARK VINA RESULT:      -8.8      1.860      2.886
REMARK  6 active torsions:
REMARK  status: ('A' for Active; 'I' for Inactive)
REMARK    1  A    between atoms: C_6  and  C_7 
REMARK    2  A    between atoms: C_7  and  N_8 
REMARK    3  A    between atoms: C_12  and  C_13 
REMARK    4  A    between atoms: C_13  and  C_14 
REMARK    5  A    between atoms: N_23  and  C_24 
REMARK    6  A    between atoms: C_24  and  C_25 
ROOT
HETATM    1  C   UNL     1      42.299 -13.800   4.635  1.00  0.00     0.149 C 
HETATM    2  N   UNL     1      42.710 -12.563   3.985  1.00  0.00    -0.220 NA
HETATM    3  C   UNL     1      43.789 -11.999   4.629  1.00  0.00     0.304 C 
HETATM    4  O   UNL     1      44.454 -11.104   4.137  1.00  0.00    -0.253 OA
HETATM    5  N   UNL     1      43.957 -12.606   5.829  1.00  0.00    -0.270 N 
HETATM    6  C   UNL     1      43.183 -13.728   5.899  1.00  0.00     0.257 C 
HETATM    7  O   UNL     1      43.159 -14.536   6.819  1.00  0.00    -0.270 OA
HETATM    8  H   UNL     1      42.824 -12.583   2.973  1.00  0.00     0.134 HD
ENDROOT
BRANCH   1   9
HETATM    9  C   UNL     1      40.779 -13.812   5.007  1.00  0.00     0.028 C 
HETATM   10  C   UNL     1      39.844 -14.300   3.882  1.00  0.00     0.035 C 
HETATM   11  C   UNL     1      39.610 -13.277   2.777  1.00  0.00     0.235 C 
HETATM   12  N   UNL     1      39.110 -11.978   3.362  1.00  0.00    -0.067 N 
HETATM   13  H   UNL     1      38.186 -12.172   3.768  1.00  0.00     0.280 HD
HETATM   14  C   UNL     1      39.989 -11.424   4.456  1.00  0.00     0.235 C 
HETATM   15  C   UNL     1      40.220 -12.472   5.533  1.00  0.00     0.035 C 
BRANCH  12  16
HETATM   16  C   UNL     1      38.888 -10.917   2.294  1.00  0.00     0.273 C 
BRANCH  16  17
HETATM   17  C   UNL     1      39.386 -11.309   0.926  1.00  0.00    -0.027 A 
HETATM   18  C   UNL     1      40.715 -11.081   0.509  1.00  0.00    -0.054 A 
HETATM   19  C   UNL     1      41.105 -11.464  -0.787  1.00  0.00     0.014 A 
HETATM   20  C   UNL     1      41.737 -10.408   1.388  1.00  0.00     0.049 C 
HETATM   21  C   UNL     1      40.202 -12.061  -1.672  1.00  0.00    -0.061 A 
HETATM   22  C   UNL     1      40.626 -12.451  -3.059  1.00  0.00     0.048 C 
HETATM   23  C   UNL     1      38.892 -12.291  -1.252  1.00  0.00     0.007 A 
HETATM   24  C   UNL     1      38.486 -11.918   0.030  1.00  0.00     0.010 A 
ENDBRANCH  16  17
ENDBRANCH  12  16
ENDBRANCH   1   9
BRANCH   1  25
HETATM   25  C   UNL     1      42.678 -14.972   3.728  1.00  0.00     0.067 A 
HETATM   26  N   UNL     1      42.651 -16.201   4.328  1.00  0.00    -0.263 NA
HETATM   27  C   UNL     1      42.970 -17.276   3.568  1.00  0.00     0.117 A 
HETATM   28  C   UNL     1      43.342 -17.192   2.240  1.00  0.00     0.019 A 
HETATM   29  C   UNL     1      43.394 -15.934   1.651  1.00  0.00     0.003 A 
HETATM   30  C   UNL     1      43.065 -14.807   2.401  1.00  0.00     0.030 A 
ENDBRANCH   1  25
BRANCH   5  31
HETATM   31  C   UNL     1      44.942 -12.212   6.823  1.00  0.00     0.168 C 
BRANCH  31  32
HETATM   32  C   UNL     1      44.525 -10.952   7.589  1.00  0.00     0.140 C 
HETATM   33  O   UNL     1      44.149 -11.270   8.949  1.00  0.00    -0.384 OA
HETATM   34  C   UNL     1      44.580 -10.181   9.788  1.00  0.00     0.168 C 
HETATM   35  C   UNL     1      45.175  -9.119   8.887  1.00  0.00     0.029 C 
HETATM   36  C   UNL     1      45.641  -9.928   7.702  1.00  0.00     0.036 C 
ENDBRANCH  31  32
ENDBRANCH   5  31
TORSDOF 6
ENDMDL
MODEL 4
REMARK VINA RESULT:      -8.4      2.863      8.805
REMARK  6 active torsions:
REMARK  status: ('A' for Active; 'I' for Inactive)
REMARK    1  A    between atoms: C_6  and  C_7 
REMARK    2  A    between atoms: C_7  and  N_8 
REMARK    3  A    between atoms: C_12  and  C_13 
REMARK    4  A    between atoms: C_13  and  C_14 
REMARK    5  A    between atoms: N_23  and  C_24 
REMARK    6  A    between atoms: C_24  and  C_25 
ROOT
HETATM    1  C   UNL     1      40.842 -13.293   3.534  1.00  0.00     0.149 C 
HETATM    2  N   UNL     1      42.253 -13.016   3.302  1.00  0.00    -0.220 NA
HETATM    3  C   UNL     1      42.836 -14.006   2.544  1.00  0.00     0.304 C 
HETATM    4  O   UNL     1      43.929 -13.878   2.022  1.00  0.00    -0.253 OA
HETATM    5  N   UNL     1      42.001 -15.072   2.488  1.00  0.00    -0.270 N 
HETATM    6  C   UNL     1      40.771 -14.730   2.973  1.00  0.00     0.257 C 
HETATM    7  O   UNL     1      39.776 -15.444   2.995  1.00  0.00    -0.270 OA
HETATM    8  H   UNL     1      42.497 -12.080   2.979  1.00  0.00     0.134 HD
ENDROOT
BRANCH   1   9
HETATM    9  C   UNL     1      40.461 -13.258   5.051  1.00  0.00     0.028 C 
HETATM   10  C   UNL     1      39.963 -11.890   5.560  1.00  0.00     0.035 C 
HETATM   11  C   UNL     1      41.068 -10.862   5.770  1.00  0.00     0.235 C 
HETATM   12  N   UNL     1      42.134 -11.418   6.685  1.00  0.00    -0.067 N 
HETATM   13  H   UNL     1      41.695 -11.552   7.604  1.00  0.00     0.280 HD
HETATM   14  C   UNL     1      42.689 -12.747   6.237  1.00  0.00     0.235 C 
HETATM   15  C   UNL     1      41.563 -13.745   6.018  1.00  0.00     0.035 C 
BRANCH  12  16
HETATM   16  C   UNL     1      43.273 -10.432   6.901  1.00  0.00     0.273 C 
BRANCH  16  17
HETATM   17  C   UNL     1      43.372  -9.906   8.311  1.00  0.00    -0.027 A 
HETATM   18  C   UNL     1      44.573  -9.941   9.051  1.00  0.00    -0.054 A 
HETATM   19  C   UNL     1      44.585  -9.442  10.366  1.00  0.00     0.014 A 
HETATM   20  C   UNL     1      45.848 -10.526   8.501  1.00  0.00     0.049 C 
HETATM   21  C   UNL     1      43.432  -8.916  10.956  1.00  0.00    -0.061 A 
HETATM   22  C   UNL     1      43.455  -8.401  12.366  1.00  0.00     0.048 C 
HETATM   23  C   UNL     1      42.250  -8.877  10.217  1.00  0.00     0.007 A 
HETATM   24  C   UNL     1      42.217  -9.368   8.911  1.00  0.00     0.010 A 
ENDBRANCH  16  17
ENDBRANCH  12  16
ENDBRANCH   1   9
BRANCH   1  25
HETATM   25  C   UNL     1      40.013 -12.307   2.710  1.00  0.00     0.067 A 
HETATM   26  N   UNL     1      40.708 -11.241   2.208  1.00  0.00    -0.263 NA
HETATM   27  C   UNL     1      40.024 -10.342   1.463  1.00  0.00     0.117 A 
HETATM   28  C   UNL     1      38.669 -10.432   1.207  1.00  0.00     0.019 A 
HETATM   29  C   UNL     1      37.969 -11.504   1.747  1.00  0.00     0.003 A 
HETATM   30  C   UNL     1      38.642 -12.453   2.513  1.00  0.00     0.030 A 
ENDBRANCH   1  25
BRANCH   5  31
HETATM   31  C   UNL     1      42.320 -16.339   1.852  1.00  0.00     0.168 C 
BRANCH  31  32
HETATM   32  C   UNL     1      42.544 -17.463   2.870  1.00  0.00     0.140 C 
HETATM   33  O   UNL     1      43.044 -18.658   2.226  1.00  0.00    -0.384 OA
HETATM   34  C   UNL     1      43.973 -19.286   3.130  1.00  0.00     0.168 C 
HETATM   35  C   UNL     1      43.979 -18.479   4.412  1.00  0.00     0.029 C 
HETATM   36  C   UNL     1      43.574 -17.109   3.930  1.00  0.00     0.036 C 
ENDBRANCH  31  32
ENDBRANCH   5  31
TORSDOF 6
ENDMDL
MODEL 5
REMARK VINA RESULT:      -8.4      2.273      7.886
REMARK  6 active torsions:
REMARK  status: ('A' for Active; 'I' for Inactive)
REMARK    1  A    between atoms: C_6  and  C_7 
REMARK    2  A    between atoms: C_7  and  N_8 
REMARK    3  A    between atoms: C_12  and  C_13 
REMARK    4  A    between atoms: C_13  and  C_14 
REMARK    5  A    between atoms: N_23  and  C_24 
REMARK    6  A    between atoms: C_24  and  C_25 
ROOT
HETATM    1  C   UNL     1      40.820 -13.823   1.230  1.00  0.00     0.149 C 
HETATM    2  N   UNL     1      42.276 -13.811   1.228  1.00  0.00    -0.220 NA
HETATM    3  C   UNL     1      42.784 -15.044   1.569  1.00  0.00     0.304 C 
HETATM    4  O   UNL     1      43.953 -15.343   1.403  1.00  0.00    -0.253 OA
HETATM    5  N   UNL     1      41.789 -15.808   2.080  1.00  0.00    -0.270 N 
HETATM    6  C   UNL     1      40.580 -15.214   1.857  1.00  0.00     0.257 C 
HETATM    7  O   UNL     1      39.481 -15.680   2.130  1.00  0.00    -0.270 OA
HETATM    8  H   UNL     1      42.738 -13.409   0.413  1.00  0.00     0.134 HD
ENDROOT
BRANCH   1   9
HETATM    9  C   UNL     1      40.206 -12.690   2.117  1.00  0.00     0.028 C 
HETATM   10  C   UNL     1      41.061 -11.409   2.209  1.00  0.00     0.035 C 
HETATM   11  C   UNL     1      42.272 -11.531   3.126  1.00  0.00     0.235 C 
HETATM   12  N   UNL     1      41.845 -11.989   4.500  1.00  0.00    -0.067 N 
HETATM   13  H   UNL     1      41.266 -11.239   4.896  1.00  0.00     0.280 HD
HETATM   14  C   UNL     1      41.024 -13.254   4.493  1.00  0.00     0.235 C 
HETATM   15  C   UNL     1      39.835 -13.110   3.556  1.00  0.00     0.035 C 
BRANCH  12  16
HETATM   16  C   UNL     1      43.029 -12.150   5.443  1.00  0.00     0.273 C 
BRANCH  16  17
HETATM   17  C   UNL     1      43.182 -11.025   6.436  1.00  0.00    -0.027 A 
HETATM   18  C   UNL     1      44.424 -10.689   7.015  1.00  0.00    -0.054 A 
HETATM   19  C   UNL     1      44.486  -9.633   7.943  1.00  0.00     0.014 A 
HETATM   20  C   UNL     1      45.693 -11.438   6.706  1.00  0.00     0.049 C 
HETATM   21  C   UNL     1      43.343  -8.915   8.307  1.00  0.00    -0.061 A 
HETATM   22  C   UNL     1      43.420  -7.800   9.311  1.00  0.00     0.048 C 
HETATM   23  C   UNL     1      42.120  -9.247   7.725  1.00  0.00     0.007 A 
HETATM   24  C   UNL     1      42.037 -10.291   6.802  1.00  0.00     0.010 A 
ENDBRANCH  16  17
ENDBRANCH  12  16
ENDBRANCH   1   9
BRANCH   1  25
HETATM   25  C   UNL     1      40.333 -13.747  -0.218  1.00  0.00     0.067 A 
HETATM   26  N   UNL     1      40.664 -12.598  -0.882  1.00  0.00    -0.263 NA
HETATM   27  C   UNL     1      40.265 -12.483  -2.171  1.00  0.00     0.117 A 
HETATM   28  C   UNL     1      39.528 -13.445  -2.834  1.00  0.00     0.019 A 
HETATM   29  C   UNL     1      39.173 -14.595  -2.138  1.00  0.00     0.003 A 
HETATM   30  C   UNL     1      39.572 -14.750  -0.813  1.00  0.00     0.030 A 
ENDBRANCH   1  25
BRANCH   5  31
HETATM   31  C   UNL     1      41.970 -17.141   2.633  1.00  0.00     0.168 C 
BRANCH  31  32
HETATM   32  C   UNL     1      43.034 -17.174   3.735  1.00  0.00     0.140 C 
HETATM   33  O   UNL     1      42.431 -17.057   5.045  1.00  0.00    -0.384 OA
HETATM   34  C   UNL     1      43.190 -17.881   5.951  1.00  0.00     0.168 C 
HETATM   35  C   UNL     1      44.353 -18.462   5.174  1.00  0.00     0.029 C 
HETATM   36  C   UNL     1      43.822 -18.473   3.762  1.00  0.00     0.036 C 
ENDBRANCH  31  32
ENDBRANCH   5  31
TORSDOF 6
ENDMDL
MODEL 6
REMARK VINA RESULT:      -8.2      1.494      2.536
REMARK  6 active torsions:
REMARK  status: ('A' for Active; 'I' for Inactive)
REMARK    1  A    between atoms: C_6  and  C_7 
REMARK    2  A    between atoms: C_7  and  N_8 
REMARK    3  A    between atoms: C_12  and  C_13 
REMARK    4  A    between atoms: C_13  and  C_14 
REMARK    5  A    between atoms: N_23  and  C_24 
REMARK    6  A    between atoms: C_24  and  C_25 
ROOT
HETATM    1  C   UNL     1      41.807 -14.876   3.530  1.00  0.00     0.149 C 
HETATM    2  N   UNL     1      42.558 -13.940   2.704  1.00  0.00    -0.220 NA
HETATM    3  C   UNL     1      42.986 -12.859   3.442  1.00  0.00     0.304 C 
HETATM    4  O   UNL     1      43.825 -12.076   3.035  1.00  0.00    -0.253 OA
HETATM    5  N   UNL     1      42.340 -12.851   4.633  1.00  0.00    -0.270 N 
HETATM    6  C   UNL     1      41.681 -14.033   4.818  1.00  0.00     0.257 C 
HETATM    7  O   UNL     1      41.062 -14.370   5.819  1.00  0.00    -0.270 OA
HETATM    8  H   UNL     1      43.291 -14.326   2.112  1.00  0.00     0.134 HD
ENDROOT
BRANCH   1   9
HETATM    9  C   UNL     1      40.400 -15.214   2.935  1.00  0.00     0.028 C 
HETATM   10  C   UNL     1      40.429 -15.855   1.533  1.00  0.00     0.035 C 
HETATM   11  C   UNL     1      40.720 -14.874   0.404  1.00  0.00     0.235 C 
HETATM   12  N   UNL     1      39.742 -13.723   0.445  1.00  0.00    -0.067 N 
HETATM   13  H   UNL     1      38.814 -14.116   0.247  1.00  0.00     0.280 HD
HETATM   14  C   UNL     1      39.675 -13.028   1.782  1.00  0.00     0.235 C 
HETATM   15  C   UNL     1      39.404 -14.034   2.890  1.00  0.00     0.035 C 
BRANCH  12  16
HETATM   16  C   UNL     1      40.012 -12.703  -0.651  1.00  0.00     0.273 C 
BRANCH  16  17
HETATM   17  C   UNL     1      38.782 -12.281  -1.415  1.00  0.00    -0.027 A 
HETATM   18  C   UNL     1      38.319 -10.948  -1.430  1.00  0.00    -0.054 A 
HETATM   19  C   UNL     1      37.157 -10.632  -2.157  1.00  0.00     0.014 A 
HETATM   20  C   UNL     1      39.003  -9.843  -0.668  1.00  0.00     0.049 C 
HETATM   21  C   UNL     1      36.449 -11.611  -2.860  1.00  0.00    -0.061 A 
HETATM   22  C   UNL     1      35.200 -11.264  -3.619  1.00  0.00     0.048 C 
HETATM   23  C   UNL     1      36.915 -12.926  -2.847  1.00  0.00     0.007 A 
HETATM   24  C   UNL     1      38.066 -13.259  -2.132  1.00  0.00     0.010 A 
ENDBRANCH  16  17
ENDBRANCH  12  16
ENDBRANCH   1   9
BRANCH   1  25
HETATM   25  C   UNL     1      42.659 -16.129   3.738  1.00  0.00     0.067 A 
HETATM   26  N   UNL     1      43.360 -16.165   4.913  1.00  0.00    -0.263 NA
HETATM   27  C   UNL     1      44.124 -17.257   5.154  1.00  0.00     0.117 A 
HETATM   28  C   UNL     1      44.251 -18.312   4.271  1.00  0.00     0.019 A 
HETATM   29  C   UNL     1      43.558 -18.249   3.068  1.00  0.00     0.003 A 
HETATM   30  C   UNL     1      42.756 -17.145   2.791  1.00  0.00     0.030 A 
ENDBRANCH   1  25
BRANCH   5  31
HETATM   31  C   UNL     1      42.469 -11.807   5.636  1.00  0.00     0.168 C 
BRANCH  31  32
HETATM   32  C   UNL     1      41.329 -10.785   5.563  1.00  0.00     0.140 C 
HETATM   33  O   UNL     1      40.680 -10.821   4.271  1.00  0.00    -0.384 OA
HETATM   34  C   UNL     1      39.275 -10.577   4.480  1.00  0.00     0.168 C 
HETATM   35  C   UNL     1      39.074 -10.304   5.956  1.00  0.00     0.029 C 
HETATM   36  C   UNL     1      40.230 -11.046   6.580  1.00  0.00     0.036 C 
ENDBRANCH  31  32
ENDBRANCH   5  31
TORSDOF 6
ENDMDL
MODEL 7
REMARK VINA RESULT:      -8.2      2.021      5.056
REMARK  6 active torsions:
REMARK  status: ('A' for Active; 'I' for Inactive)
REMARK    1  A    between atoms: C_6  and  C_7 
REMARK    2  A    between atoms: C_7  and  N_8 
REMARK    3  A    between atoms: C_12  and  C_13 
REMARK    4  A    between atoms: C_13  and  C_14 
REMARK    5  A    between atoms: N_23  and  C_24 
REMARK    6  A    between atoms: C_24  and  C_25 
ROOT
HETATM    1  C   UNL     1      42.511 -12.532   5.563  1.00  0.00     0.149 C 
HETATM    2  N   UNL     1      41.098 -12.875   5.490  1.00  0.00    -0.220 NA
HETATM    3  C   UNL     1      40.828 -14.022   6.203  1.00  0.00     0.304 C 
HETATM    4  O   UNL     1      39.696 -14.368   6.488  1.00  0.00    -0.253 OA
HETATM    5  N   UNL     1      41.995 -14.637   6.513  1.00  0.00    -0.270 N 
HETATM    6  C   UNL     1      43.047 -13.807   6.249  1.00  0.00     0.257 C 
HETATM    7  O   UNL     1      44.227 -14.035   6.484  1.00  0.00    -0.270 OA
HETATM    8  H   UNL     1      40.427 -12.131   5.676  1.00  0.00     0.134 HD
ENDROOT
BRANCH   1   9
HETATM    9  C   UNL     1      43.159 -12.334   4.152  1.00  0.00     0.028 C 
HETATM   10  C   UNL     1      42.582 -11.160   3.336  1.00  0.00     0.035 C 
HETATM   11  C   UNL     1      41.217 -11.442   2.718  1.00  0.00     0.235 C 
HETATM   12  N   UNL     1      41.269 -12.700   1.883  1.00  0.00    -0.067 N 
HETATM   13  H   UNL     1      41.901 -12.508   1.097  1.00  0.00     0.280 HD
HETATM   14  C   UNL     1      41.802 -13.901   2.624  1.00  0.00     0.235 C 
HETATM   15  C   UNL     1      43.153 -13.584   3.245  1.00  0.00     0.035 C 
BRANCH  12  16
HETATM   16  C   UNL     1      39.918 -13.033   1.268  1.00  0.00     0.273 C 
BRANCH  16  17
HETATM   17  C   UNL     1      39.582 -12.219   0.044  1.00  0.00    -0.027 A 
HETATM   18  C   UNL     1      38.441 -11.391  -0.026  1.00  0.00    -0.054 A 
HETATM   19  C   UNL     1      38.186 -10.669  -1.206  1.00  0.00     0.014 A 
HETATM   20  C   UNL     1      37.454 -11.272   1.106  1.00  0.00     0.049 C 
HETATM   21  C   UNL     1      39.038 -10.757  -2.312  1.00  0.00    -0.061 A 
HETATM   22  C   UNL     1      38.747  -9.993  -3.571  1.00  0.00     0.048 C 
HETATM   23  C   UNL     1      40.168 -11.570  -2.234  1.00  0.00     0.007 A 
HETATM   24  C   UNL     1      40.438 -12.295  -1.072  1.00  0.00     0.010 A 
ENDBRANCH  16  17
ENDBRANCH  12  16
ENDBRANCH   1   9
BRANCH   1  25
HETATM   25  C   UNL     1      42.664 -11.291   6.444  1.00  0.00     0.067 A 
HETATM   26  N   UNL     1      41.517 -10.569   6.633  1.00  0.00    -0.263 NA
HETATM   27  C   UNL     1      41.594  -9.465   7.414  1.00  0.00     0.117 A 
HETATM   28  C   UNL     1      42.763  -9.022   8.002  1.00  0.00     0.019 A 
HETATM   29  C   UNL     1      43.926  -9.749   7.778  1.00  0.00     0.003 A 
HETATM   30  C   UNL     1      43.884 -10.894   6.986  1.00  0.00     0.030 A 
ENDBRANCH   1  25
BRANCH   5  31
HETATM   31  C   UNL     1      42.099 -15.923   7.182  1.00  0.00     0.168 C 
BRANCH  31  32
HETATM   32  C   UNL     1      42.462 -17.055   6.216  1.00  0.00     0.140 C 
HETATM   33  O   UNL     1      42.209 -16.670   4.844  1.00  0.00    -0.384 OA
HETATM   34  C   UNL     1      43.237 -17.263   4.026  1.00  0.00     0.168 C 
HETATM   35  C   UNL     1      44.107 -18.110   4.932  1.00  0.00     0.029 C 
HETATM   36  C   UNL     1      43.932 -17.435   6.269  1.00  0.00     0.036 C 
ENDBRANCH  31  32
ENDBRANCH   5  31
TORSDOF 6
ENDMDL
MODEL 8
REMARK VINA RESULT:      -8.1      3.716      7.238
REMARK  6 active torsions:
REMARK  status: ('A' for Active; 'I' for Inactive)
REMARK    1  A    between atoms: C_6  and  C_7 
REMARK    2  A    between atoms: C_7  and  N_8 
REMARK    3  A    between atoms: C_12  and  C_13 
REMARK    4  A    between atoms: C_13  and  C_14 
REMARK    5  A    between atoms: N_23  and  C_24 
REMARK    6  A    between atoms: C_24  and  C_25 
ROOT
HETATM    1  C   UNL     1      41.047  -9.703   5.657  1.00  0.00     0.149 C 
HETATM    2  N   UNL     1      40.064 -10.617   6.223  1.00  0.00    -0.220 NA
HETATM    3  C   UNL     1      39.726 -10.252   7.507  1.00  0.00     0.304 C 
HETATM    4  O   UNL     1      38.761 -10.712   8.089  1.00  0.00    -0.253 OA
HETATM    5  N   UNL     1      40.615  -9.331   7.955  1.00  0.00    -0.270 N 
HETATM    6  C   UNL     1      41.387  -8.883   6.922  1.00  0.00     0.257 C 
HETATM    7  O   UNL     1      42.233  -8.000   6.979  1.00  0.00    -0.270 OA
HETATM    8  H   UNL     1      39.250 -10.839   5.652  1.00  0.00     0.134 HD
ENDROOT
BRANCH   1   9
HETATM    9  C   UNL     1      42.311 -10.440   5.104  1.00  0.00     0.028 C 
HETATM   10  C   UNL     1      42.139 -11.050   3.699  1.00  0.00     0.035 C 
HETATM   11  C   UNL     1      41.323 -12.337   3.673  1.00  0.00     0.235 C 
HETATM   12  N   UNL     1      41.912 -13.350   4.627  1.00  0.00    -0.067 N 
HETATM   13  H   UNL     1      42.840 -13.596   4.262  1.00  0.00     0.280 HD
HETATM   14  C   UNL     1      42.088 -12.832   6.032  1.00  0.00     0.235 C 
HETATM   15  C   UNL     1      42.887 -11.538   6.025  1.00  0.00     0.035 C 
BRANCH  12  16
HETATM   16  C   UNL     1      41.111 -14.644   4.652  1.00  0.00     0.273 C 
BRANCH  16  17
HETATM   17  C   UNL     1      41.839 -15.828   4.068  1.00  0.00    -0.027 A 
HETATM   18  C   UNL     1      41.513 -16.372   2.807  1.00  0.00    -0.054 A 
HETATM   19  C   UNL     1      42.229 -17.486   2.332  1.00  0.00     0.014 A 
HETATM   20  C   UNL     1      40.399 -15.828   1.952  1.00  0.00     0.049 C 
HETATM   21  C   UNL     1      43.254 -18.068   3.086  1.00  0.00    -0.061 A 
HETATM   22  C   UNL     1      44.001 -19.266   2.575  1.00  0.00     0.048 C 
HETATM   23  C   UNL     1      43.576 -17.521   4.328  1.00  0.00     0.007 A 
HETATM   24  C   UNL     1      42.877 -16.416   4.816  1.00  0.00     0.010 A 
ENDBRANCH  16  17
ENDBRANCH  12  16
ENDBRANCH   1   9
BRANCH   1  25
HETATM   25  C   UNL     1      40.359  -8.856   4.585  1.00  0.00     0.067 A 
HETATM   26  N   UNL     1      39.120  -9.294   4.206  1.00  0.00    -0.263 NA
HETATM   27  C   UNL     1      38.462  -8.576   3.266  1.00  0.00     0.117 A 
HETATM   28  C   UNL     1      38.984  -7.451   2.658  1.00  0.00     0.019 A 
HETATM   29  C   UNL     1      40.256  -7.033   3.030  1.00  0.00     0.003 A 
HETATM   30  C   UNL     1      40.959  -7.744   4.000  1.00  0.00     0.030 A 
ENDBRANCH   1  25
BRANCH   5  31
HETATM   31  C   UNL     1      40.629  -8.783   9.301  1.00  0.00     0.168 C 
BRANCH  31  32
HETATM   32  C   UNL     1      41.702  -9.431  10.183  1.00  0.00     0.140 C 
HETATM   33  O   UNL     1      42.939  -8.681  10.133  1.00  0.00    -0.384 OA
HETATM   34  C   UNL     1      43.538  -8.739  11.442  1.00  0.00     0.168 C 
HETATM   35  C   UNL     1      42.666  -9.628  12.304  1.00  0.00     0.029 C 
HETATM   36  C   UNL     1      41.314  -9.482  11.651  1.00  0.00     0.036 C 
ENDBRANCH  31  32
ENDBRANCH   5  31
TORSDOF 6
ENDMDL
MODEL 9
REMARK VINA RESULT:      -8.1     16.761     19.626
REMARK  6 active torsions:
REMARK  status: ('A' for Active; 'I' for Inactive)
REMARK    1  A    between atoms: C_6  and  C_7 
REMARK    2  A    between atoms: C_7  and  N_8 
REMARK    3  A    between atoms: C_12  and  C_13 
REMARK    4  A    between atoms: C_13  and  C_14 
REMARK    5  A    between atoms: N_23  and  C_24 
REMARK    6  A    between atoms: C_24  and  C_25 
ROOT
HETATM    1  C   UNL     1      48.746 -30.267   0.266  1.00  0.00     0.149 C 
HETATM    2  N   UNL     1      47.731 -31.229  -0.141  1.00  0.00    -0.220 NA
HETATM    3  C   UNL     1      48.289 -32.274  -0.842  1.00  0.00     0.304 C 
HETATM    4  O   UNL     1      47.686 -33.307  -1.073  1.00  0.00    -0.253 OA
HETATM    5  N   UNL     1      49.558 -31.950  -1.188  1.00  0.00    -0.270 N 
HETATM    6  C   UNL     1      49.952 -30.824  -0.522  1.00  0.00     0.257 C 
HETATM    7  O   UNL     1      51.064 -30.312  -0.558  1.00  0.00    -0.270 OA
HETATM    8  H   UNL     1      47.073 -31.542   0.571  1.00  0.00     0.134 HD
ENDROOT
BRANCH   1   9
HETATM    9  C   UNL     1      48.408 -28.806  -0.176  1.00  0.00     0.028 C 
HETATM   10  C   UNL     1      47.306 -28.118   0.656  1.00  0.00     0.035 C 
HETATM   11  C   UNL     1      45.894 -28.590   0.332  1.00  0.00     0.235 C 
HETATM   12  N   UNL     1      45.618 -28.443  -1.146  1.00  0.00    -0.067 N 
HETATM   13  H   UNL     1      45.634 -27.437  -1.352  1.00  0.00     0.280 HD
HETATM   14  C   UNL     1      46.643 -29.113  -2.027  1.00  0.00     0.235 C 
HETATM   15  C   UNL     1      48.042 -28.638  -1.668  1.00  0.00     0.035 C 
BRANCH  12  16
HETATM   16  C   UNL     1      44.224 -28.929  -1.519  1.00  0.00     0.273 C 
BRANCH  16  17
HETATM   17  C   UNL     1      44.198 -29.885  -2.684  1.00  0.00    -0.027 A 
HETATM   18  C   UNL     1      44.242 -31.286  -2.517  1.00  0.00    -0.054 A 
HETATM   19  C   UNL     1      44.225 -32.115  -3.653  1.00  0.00     0.014 A 
HETATM   20  C   UNL     1      44.341 -31.938  -1.163  1.00  0.00     0.049 C 
HETATM   21  C   UNL     1      44.170 -31.581  -4.944  1.00  0.00    -0.061 A 
HETATM   22  C   UNL     1      44.168 -32.476  -6.149  1.00  0.00     0.048 C 
HETATM   23  C   UNL     1      44.118 -30.196  -5.103  1.00  0.00     0.007 A 
HETATM   24  C   UNL     1      44.135 -29.356  -3.988  1.00  0.00     0.010 A 
ENDBRANCH  16  17
ENDBRANCH  12  16
ENDBRANCH   1   9
BRANCH   1  25
HETATM   25  C   UNL     1      48.941 -30.380   1.779  1.00  0.00     0.067 A 
HETATM   26  N   UNL     1      47.950 -31.050   2.443  1.00  0.00    -0.263 NA
HETATM   27  C   UNL     1      48.077 -31.187   3.784  1.00  0.00     0.117 A 
HETATM   28  C   UNL     1      49.131 -30.668   4.511  1.00  0.00     0.019 A 
HETATM   29  C   UNL     1      50.116 -29.964   3.828  1.00  0.00     0.003 A 
HETATM   30  C   UNL     1      50.022 -29.810   2.447  1.00  0.00     0.030 A 
ENDBRANCH   1  25
BRANCH   5  31
HETATM   31  C   UNL     1      50.426 -32.773  -2.014  1.00  0.00     0.168 C 
BRANCH  31  32
HETATM   32  C   UNL     1      50.336 -32.405  -3.499  1.00  0.00     0.140 C 
HETATM   33  O   UNL     1      51.642 -32.427  -4.121  1.00  0.00    -0.384 OA
HETATM   34  C   UNL     1      51.478 -32.914  -5.467  1.00  0.00     0.168 C 
HETATM   35  C   UNL     1      49.996 -33.122  -5.699  1.00  0.00     0.029 C 
HETATM   36  C   UNL     1      49.485 -33.374  -4.302  1.00  0.00     0.036 C 
ENDBRANCH  31  32
ENDBRANCH   5  31
TORSDOF 6
ENDMDL
MODEL 10
REMARK VINA RESULT:      -7.9      2.968      7.687
REMARK  6 active torsions:
REMARK  status: ('A' for Active; 'I' for Inactive)
REMARK    1  A    between atoms: C_6  and  C_7 
REMARK    2  A    between atoms: C_7  and  N_8 
REMARK    3  A    between atoms: C_12  and  C_13 
REMARK    4  A    between atoms: C_13  and  C_14 
REMARK    5  A    between atoms: N_23  and  C_24 
REMARK    6  A    between atoms: C_24  and  C_25 
ROOT
HETATM    1  C   UNL     1      40.058 -10.783   5.197  1.00  0.00     0.149 C 
HETATM    2  N   UNL     1      40.919 -10.586   4.039  1.00  0.00    -0.220 NA
HETATM    3  C   UNL     1      40.391  -9.647   3.181  1.00  0.00     0.304 C 
HETATM    4  O   UNL     1      41.036  -9.143   2.280  1.00  0.00    -0.253 OA
HETATM    5  N   UNL     1      39.102  -9.407   3.525  1.00  0.00    -0.270 N 
HETATM    6  C   UNL     1      38.829  -9.965   4.741  1.00  0.00     0.257 C 
HETATM    7  O   UNL     1      37.780  -9.868   5.364  1.00  0.00    -0.270 OA
HETATM    8  H   UNL     1      41.912 -10.440   4.216  1.00  0.00     0.134 HD
ENDROOT
BRANCH   1   9
HETATM    9  C   UNL     1      39.684 -12.285   5.424  1.00  0.00     0.028 C 
HETATM   10  C   UNL     1      40.627 -13.048   6.376  1.00  0.00     0.035 C 
HETATM   11  C   UNL     1      41.966 -13.429   5.756  1.00  0.00     0.235 C 
HETATM   12  N   UNL     1      41.749 -14.209   4.480  1.00  0.00    -0.067 N 
HETATM   13  H   UNL     1      41.299 -15.093   4.746  1.00  0.00     0.280 HD
HETATM   14  C   UNL     1      40.854 -13.513   3.486  1.00  0.00     0.235 C 
HETATM   15  C   UNL     1      39.535 -13.128   4.138  1.00  0.00     0.035 C 
BRANCH  12  16
HETATM   16  C   UNL     1      43.063 -14.588   3.812  1.00  0.00     0.273 C 
BRANCH  16  17
HETATM   17  C   UNL     1      43.215 -16.065   3.551  1.00  0.00    -0.027 A 
HETATM   18  C   UNL     1      43.769 -16.950   4.501  1.00  0.00    -0.054 A 
HETATM   19  C   UNL     1      43.890 -18.314   4.181  1.00  0.00     0.014 A 
HETATM   20  C   UNL     1      44.273 -16.488   5.843  1.00  0.00     0.049 C 
HETATM   21  C   UNL     1      43.477 -18.812   2.942  1.00  0.00    -0.061 A 
HETATM   22  C   UNL     1      43.625 -20.268   2.607  1.00  0.00     0.048 C 
HETATM   23  C   UNL     1      42.923 -17.934   2.010  1.00  0.00     0.007 A 
HETATM   24  C   UNL     1      42.795 -16.576   2.308  1.00  0.00     0.010 A 
ENDBRANCH  16  17
ENDBRANCH  12  16
ENDBRANCH   1   9
BRANCH   1  25
HETATM   25  C   UNL     1      40.741 -10.169   6.420  1.00  0.00     0.067 A 
HETATM   26  N   UNL     1      39.916  -9.923   7.483  1.00  0.00    -0.263 NA
HETATM   27  C   UNL     1      40.472  -9.388   8.596  1.00  0.00     0.117 A 
HETATM   28  C   UNL     1      41.809  -9.058   8.701  1.00  0.00     0.019 A 
HETATM   29  C   UNL     1      42.630  -9.286   7.603  1.00  0.00     0.003 A 
HETATM   30  C   UNL     1      42.095  -9.842   6.445  1.00  0.00     0.030 A 
ENDBRANCH   1  25
BRANCH   5  31
HETATM   31  C   UNL     1      38.198  -8.540   2.787  1.00  0.00     0.168 C 
BRANCH  31  32
HETATM   32  C   UNL     1      37.607  -9.231   1.553  1.00  0.00     0.140 C 
HETATM   33  O   UNL     1      38.382  -8.932   0.368  1.00  0.00    -0.384 OA
HETATM   34  C   UNL     1      38.386 -10.110  -0.461  1.00  0.00     0.168 C 
HETATM   35  C   UNL     1      37.509 -11.145   0.213  1.00  0.00     0.029 C 
HETATM   36  C   UNL     1      37.601 -10.746   1.665  1.00  0.00     0.036 C 
ENDBRANCH  31  32
ENDBRANCH   5  31
TORSDOF 6
ENDMDL
