MODEL 1
REMARK VINA RESULT:      -8.6      0.000      0.000
REMARK  5 active torsions:
REMARK  status: ('A' for Active; 'I' for Inactive)
REMARK    1  A    between atoms: C_4  and  C_5 
REMARK    2  A    between atoms: C_5  and  C_6 
REMARK    3  A    between atoms: C_6  and  C_7 
REMARK       I    between atoms: C_7  and  N_8 
REMARK    4  A    between atoms: N_8  and  C_9 
REMARK    5  A    between atoms: C_11  and  C_12 
ROOT
HETATM    1  C   UNL     1      42.405 -13.848   5.632  1.00  0.00     0.222 C 
HETATM    2  N   UNL     1      43.345 -14.256   4.708  1.00  0.00    -0.327 N 
HETATM    3  O   UNL     1      41.266 -14.303   5.735  1.00  0.00    -0.273 OA
HETATM    4  H   UNL     1      44.225 -13.757   4.682  1.00  0.00     0.169 HD
ENDROOT
BRANCH   2   5
HETATM    5  C   UNL     1      43.255 -15.329   3.794  1.00  0.00     0.035 A 
HETATM    6  C   UNL     1      43.494 -16.666   4.123  1.00  0.00     0.042 A 
HETATM    7  C   UNL     1      43.432 -17.676   3.148  1.00  0.00    -0.021 A 
HETATM    8  C   UNL     1      43.108 -17.326   1.831  1.00  0.00     0.012 A 
HETATM    9  C   UNL     1      42.860 -15.996   1.493  1.00  0.00     0.003 A 
HETATM   10  C   UNL     1      42.937 -15.003   2.470  1.00  0.00     0.029 A 
BRANCH   7  11
HETATM   11  C   UNL     1      43.707 -19.065   3.485  1.00  0.00     0.010 A 
HETATM   12  C   UNL     1      43.631 -20.243   2.704  1.00  0.00     0.152 A 
HETATM   13  N   UNL     1      43.992 -21.339   3.377  1.00  0.00    -0.187 NA
HETATM   14  N   UNL     1      44.299 -20.868   4.597  1.00  0.00    -0.289 N 
HETATM   15  H   UNL     1      44.607 -21.526   5.305  1.00  0.00     0.188 HD
HETATM   16  C   UNL     1      44.152 -19.516   4.710  1.00  0.00     0.123 A 
ENDBRANCH   7  11
ENDBRANCH   2   5
BRANCH   1  17
HETATM   17  C   UNL     1      42.863 -12.805   6.650  1.00  0.00     0.108 C 
BRANCH  17  18
HETATM   18  C   UNL     1      44.359 -12.529   6.799  1.00  0.00     0.048 C 
BRANCH  18  19
HETATM   19  C   UNL     1      44.792 -11.331   7.621  1.00  0.00    -0.057 A 
HETATM   20  C   UNL     1      44.135 -10.899   8.783  1.00  0.00     0.013 A 
HETATM   21  C   UNL     1      44.613  -9.810   9.527  1.00  0.00    -0.061 A 
HETATM   22  C   UNL     1      43.938  -9.392  10.800  1.00  0.00     0.048 C 
HETATM   23  C   UNL     1      45.750  -9.127   9.084  1.00  0.00     0.007 A 
HETATM   24  C   UNL     1      46.399  -9.525   7.918  1.00  0.00     0.001 A 
HETATM   25  C   UNL     1      45.926 -10.620   7.195  1.00  0.00     0.007 A 
ENDBRANCH  18  19
ENDBRANCH  17  18
ENDBRANCH   1  17
TORSDOF 5
ENDMDL
MODEL 2
REMARK VINA RESULT:      -8.4      5.104      8.292
REMARK  5 active torsions:
REMARK  status: ('A' for Active; 'I' for Inactive)
REMARK    1  A    between atoms: C_4  and  C_5 
REMARK    2  A    between atoms: C_5  and  C_6 
REMARK    3  A    between atoms: C_6  and  C_7 
REMARK       I    between atoms: C_7  and  N_8 
REMARK    4  A    between atoms: N_8  and  C_9 
REMARK    5  A    between atoms: C_11  and  C_12 
ROOT
HETATM    1  C   UNL     1      41.349 -14.782   3.449  1.00  0.00     0.222 C 
HETATM    2  N   UNL     1      41.939 -14.210   2.341  1.00  0.00    -0.327 N 
HETATM    3  O   UNL     1      40.155 -14.709   3.736  1.00  0.00    -0.273 OA
HETATM    4  H   UNL     1      42.944 -14.287   2.252  1.00  0.00     0.169 HD
ENDROOT
BRANCH   2   5
HETATM    5  C   UNL     1      41.306 -13.548   1.267  1.00  0.00     0.035 A 
HETATM    6  C   UNL     1      40.606 -14.194   0.245  1.00  0.00     0.042 A 
HETATM    7  C   UNL     1      40.042 -13.471  -0.820  1.00  0.00    -0.021 A 
HETATM    8  C   UNL     1      40.177 -12.077  -0.837  1.00  0.00     0.012 A 
HETATM    9  C   UNL     1      40.868 -11.421   0.181  1.00  0.00     0.003 A 
HETATM   10  C   UNL     1      41.432 -12.153   1.224  1.00  0.00     0.029 A 
BRANCH   7  11
HETATM   11  C   UNL     1      39.335 -14.146  -1.898  1.00  0.00     0.010 A 
HETATM   12  C   UNL     1      38.913 -13.682  -3.167  1.00  0.00     0.152 A 
HETATM   13  N   UNL     1      38.307 -14.626  -3.892  1.00  0.00    -0.187 NA
HETATM   14  N   UNL     1      38.333 -15.701  -3.088  1.00  0.00    -0.289 N 
HETATM   15  H   UNL     1      37.921 -16.565  -3.424  1.00  0.00     0.188 HD
HETATM   16  C   UNL     1      38.942 -15.468  -1.889  1.00  0.00     0.123 A 
ENDBRANCH   7  11
ENDBRANCH   2   5
BRANCH   1  17
HETATM   17  C   UNL     1      42.255 -15.636   4.335  1.00  0.00     0.108 C 
BRANCH  17  18
HETATM   18  C   UNL     1      43.524 -16.235   3.729  1.00  0.00     0.048 C 
BRANCH  18  19
HETATM   19  C   UNL     1      43.581 -17.736   3.516  1.00  0.00    -0.057 A 
HETATM   20  C   UNL     1      44.019 -18.649   4.488  1.00  0.00     0.013 A 
HETATM   21  C   UNL     1      44.004 -20.031   4.245  1.00  0.00    -0.061 A 
HETATM   22  C   UNL     1      44.419 -21.003   5.311  1.00  0.00     0.048 C 
HETATM   23  C   UNL     1      43.570 -20.502   3.003  1.00  0.00     0.007 A 
HETATM   24  C   UNL     1      43.159 -19.608   2.018  1.00  0.00     0.001 A 
HETATM   25  C   UNL     1      43.161 -18.237   2.274  1.00  0.00     0.007 A 
ENDBRANCH  18  19
ENDBRANCH  17  18
ENDBRANCH   1  17
TORSDOF 5
ENDMDL
MODEL 3
REMARK VINA RESULT:      -8.2      5.815      9.801
REMARK  5 active torsions:
REMARK  status: ('A' for Active; 'I' for Inactive)
REMARK    1  A    between atoms: C_4  and  C_5 
REMARK    2  A    between atoms: C_5  and  C_6 
REMARK    3  A    between atoms: C_6  and  C_7 
REMARK       I    between atoms: C_7  and  N_8 
REMARK    4  A    between atoms: N_8  and  C_9 
REMARK    5  A    between atoms: C_11  and  C_12 
ROOT
HETATM    1  C   UNL     1      40.810 -14.942   0.791  1.00  0.00     0.222 C 
HETATM    2  N   UNL     1      40.782 -14.123  -0.318  1.00  0.00    -0.327 N 
HETATM    3  O   UNL     1      39.836 -15.517   1.275  1.00  0.00    -0.273 OA
HETATM    4  H   UNL     1      41.641 -13.655  -0.579  1.00  0.00     0.169 HD
ENDROOT
BRANCH   2   5
HETATM    5  C   UNL     1      39.695 -13.872  -1.184  1.00  0.00     0.035 A 
HETATM    6  C   UNL     1      38.930 -12.702  -1.170  1.00  0.00     0.042 A 
HETATM    7  C   UNL     1      37.831 -12.542  -2.031  1.00  0.00    -0.021 A 
HETATM    8  C   UNL     1      37.517 -13.573  -2.926  1.00  0.00     0.012 A 
HETATM    9  C   UNL     1      38.278 -14.741  -2.954  1.00  0.00     0.003 A 
HETATM   10  C   UNL     1      39.358 -14.890  -2.085  1.00  0.00     0.029 A 
BRANCH   7  11
HETATM   11  C   UNL     1      37.018 -11.335  -1.997  1.00  0.00     0.010 A 
HETATM   12  C   UNL     1      36.853 -10.354  -0.991  1.00  0.00     0.152 A 
HETATM   13  N   UNL     1      36.026  -9.370  -1.353  1.00  0.00    -0.187 NA
HETATM   14  N   UNL     1      35.651  -9.718  -2.594  1.00  0.00    -0.289 N 
HETATM   15  H   UNL     1      35.007  -9.113  -3.092  1.00  0.00     0.188 HD
HETATM   16  C   UNL     1      36.222 -10.880  -3.027  1.00  0.00     0.123 A 
ENDBRANCH   7  11
ENDBRANCH   2   5
BRANCH   1  17
HETATM   17  C   UNL     1      42.185 -15.207   1.403  1.00  0.00     0.108 C 
BRANCH  17  18
HETATM   18  C   UNL     1      42.269 -15.614   2.874  1.00  0.00     0.048 C 
BRANCH  18  19
HETATM   19  C   UNL     1      42.929 -16.934   3.220  1.00  0.00    -0.057 A 
HETATM   20  C   UNL     1      42.913 -18.061   2.384  1.00  0.00     0.013 A 
HETATM   21  C   UNL     1      43.584 -19.241   2.741  1.00  0.00    -0.061 A 
HETATM   22  C   UNL     1      43.609 -20.421   1.814  1.00  0.00     0.048 C 
HETATM   23  C   UNL     1      44.257 -19.300   3.964  1.00  0.00     0.007 A 
HETATM   24  C   UNL     1      44.260 -18.201   4.818  1.00  0.00     0.001 A 
HETATM   25  C   UNL     1      43.605 -17.026   4.447  1.00  0.00     0.007 A 
ENDBRANCH  18  19
ENDBRANCH  17  18
ENDBRANCH   1  17
TORSDOF 5
ENDMDL
MODEL 4
REMARK VINA RESULT:      -8.1      3.038      9.400
REMARK  5 active torsions:
REMARK  status: ('A' for Active; 'I' for Inactive)
REMARK    1  A    between atoms: C_4  and  C_5 
REMARK    2  A    between atoms: C_5  and  C_6 
REMARK    3  A    between atoms: C_6  and  C_7 
REMARK       I    between atoms: C_7  and  N_8 
REMARK    4  A    between atoms: N_8  and  C_9 
REMARK    5  A    between atoms: C_11  and  C_12 
ROOT
HETATM    1  C   UNL     1      43.326 -12.296   5.631  1.00  0.00     0.222 C 
HETATM    2  N   UNL     1      44.231 -12.410   6.666  1.00  0.00    -0.327 N 
HETATM    3  O   UNL     1      42.655 -11.295   5.381  1.00  0.00    -0.273 OA
HETATM    4  H   UNL     1      44.673 -13.310   6.806  1.00  0.00     0.169 HD
ENDROOT
BRANCH   2   5
HETATM    5  C   UNL     1      44.664 -11.402   7.555  1.00  0.00     0.035 A 
HETATM    6  C   UNL     1      44.054 -11.117   8.779  1.00  0.00     0.042 A 
HETATM    7  C   UNL     1      44.512 -10.066   9.592  1.00  0.00    -0.021 A 
HETATM    8  C   UNL     1      45.610  -9.309   9.164  1.00  0.00     0.012 A 
HETATM    9  C   UNL     1      46.231  -9.590   7.948  1.00  0.00     0.003 A 
HETATM   10  C   UNL     1      45.757 -10.628   7.147  1.00  0.00     0.029 A 
BRANCH   7  11
HETATM   11  C   UNL     1      43.859  -9.751  10.855  1.00  0.00     0.010 A 
HETATM   12  C   UNL     1      43.250 -10.589  11.819  1.00  0.00     0.152 A 
HETATM   13  N   UNL     1      42.778  -9.915  12.871  1.00  0.00    -0.187 NA
HETATM   14  N   UNL     1      43.078  -8.638  12.584  1.00  0.00    -0.289 N 
HETATM   15  H   UNL     1      42.813  -7.919  13.247  1.00  0.00     0.188 HD
HETATM   16  C   UNL     1      43.730  -8.489  11.394  1.00  0.00     0.123 A 
ENDBRANCH   7  11
ENDBRANCH   2   5
BRANCH   1  17
HETATM   17  C   UNL     1      43.223 -13.491   4.685  1.00  0.00     0.108 C 
BRANCH  17  18
HETATM   18  C   UNL     1      42.920 -14.870   5.271  1.00  0.00     0.048 C 
BRANCH  18  19
HETATM   19  C   UNL     1      43.224 -16.093   4.429  1.00  0.00    -0.057 A 
HETATM   20  C   UNL     1      43.658 -17.319   4.956  1.00  0.00     0.013 A 
HETATM   21  C   UNL     1      43.879 -18.429   4.127  1.00  0.00    -0.061 A 
HETATM   22  C   UNL     1      44.287 -19.752   4.706  1.00  0.00     0.048 C 
HETATM   23  C   UNL     1      43.687 -18.302   2.748  1.00  0.00     0.007 A 
HETATM   24  C   UNL     1      43.283 -17.085   2.205  1.00  0.00     0.001 A 
HETATM   25  C   UNL     1      43.050 -15.991   3.039  1.00  0.00     0.007 A 
ENDBRANCH  18  19
ENDBRANCH  17  18
ENDBRANCH   1  17
TORSDOF 5
ENDMDL
MODEL 5
REMARK VINA RESULT:      -7.9      3.557      5.359
REMARK  5 active torsions:
REMARK  status: ('A' for Active; 'I' for Inactive)
REMARK    1  A    between atoms: C_4  and  C_5 
REMARK    2  A    between atoms: C_5  and  C_6 
REMARK    3  A    between atoms: C_6  and  C_7 
REMARK       I    between atoms: C_7  and  N_8 
REMARK    4  A    between atoms: N_8  and  C_9 
REMARK    5  A    between atoms: C_11  and  C_12 
ROOT
HETATM    1  C   UNL     1      40.744 -14.924   0.544  1.00  0.00     0.222 C 
HETATM    2  N   UNL     1      42.065 -15.023   0.927  1.00  0.00    -0.327 N 
HETATM    3  O   UNL     1      39.804 -15.512   1.077  1.00  0.00    -0.273 OA
HETATM    4  H   UNL     1      42.754 -14.539   0.366  1.00  0.00     0.169 HD
ENDROOT
BRANCH   2   5
HETATM    5  C   UNL     1      42.595 -15.697   2.049  1.00  0.00     0.035 A 
HETATM    6  C   UNL     1      42.895 -17.062   2.078  1.00  0.00     0.042 A 
HETATM    7  C   UNL     1      43.376 -17.675   3.248  1.00  0.00    -0.021 A 
HETATM    8  C   UNL     1      43.570 -16.890   4.393  1.00  0.00     0.012 A 
HETATM    9  C   UNL     1      43.281 -15.526   4.371  1.00  0.00     0.003 A 
HETATM   10  C   UNL     1      42.793 -14.935   3.207  1.00  0.00     0.029 A 
BRANCH   7  11
HETATM   11  C   UNL     1      43.663 -19.101   3.287  1.00  0.00     0.010 A 
HETATM   12  C   UNL     1      43.614 -20.087   2.272  1.00  0.00     0.152 A 
HETATM   13  N   UNL     1      43.978 -21.297   2.703  1.00  0.00    -0.187 NA
HETATM   14  N   UNL     1      44.259 -21.095   4.001  1.00  0.00    -0.289 N 
HETATM   15  H   UNL     1      44.564 -21.885   4.558  1.00  0.00     0.188 HD
HETATM   16  C   UNL     1      44.094 -19.799   4.396  1.00  0.00     0.123 A 
ENDBRANCH   7  11
ENDBRANCH   2   5
BRANCH   1  17
HETATM   17  C   UNL     1      40.436 -13.936  -0.581  1.00  0.00     0.108 C 
BRANCH  17  18
HETATM   18  C   UNL     1      40.629 -12.443  -0.323  1.00  0.00     0.048 C 
BRANCH  18  19
HETATM   19  C   UNL     1      40.512 -11.937   1.102  1.00  0.00    -0.057 A 
HETATM   20  C   UNL     1      41.612 -11.618   1.914  1.00  0.00     0.013 A 
HETATM   21  C   UNL     1      41.436 -11.110   3.209  1.00  0.00    -0.061 A 
HETATM   22  C   UNL     1      42.617 -10.716   4.047  1.00  0.00     0.048 C 
HETATM   23  C   UNL     1      40.141 -10.944   3.708  1.00  0.00     0.007 A 
HETATM   24  C   UNL     1      39.039 -11.281   2.927  1.00  0.00     0.001 A 
HETATM   25  C   UNL     1      39.223 -11.770   1.633  1.00  0.00     0.007 A 
ENDBRANCH  18  19
ENDBRANCH  17  18
ENDBRANCH   1  17
TORSDOF 5
ENDMDL
MODEL 6
REMARK VINA RESULT:      -7.9      4.787      8.264
REMARK  5 active torsions:
REMARK  status: ('A' for Active; 'I' for Inactive)
REMARK    1  A    between atoms: C_4  and  C_5 
REMARK    2  A    between atoms: C_5  and  C_6 
REMARK    3  A    between atoms: C_6  and  C_7 
REMARK       I    between atoms: C_7  and  N_8 
REMARK    4  A    between atoms: N_8  and  C_9 
REMARK    5  A    between atoms: C_11  and  C_12 
ROOT
HETATM    1  C   UNL     1      41.764 -14.269   3.912  1.00  0.00     0.222 C 
HETATM    2  N   UNL     1      40.522 -14.453   3.342  1.00  0.00    -0.327 N 
HETATM    3  O   UNL     1      42.552 -13.369   3.623  1.00  0.00    -0.273 OA
HETATM    4  H   UNL     1      39.995 -15.271   3.620  1.00  0.00     0.169 HD
ENDROOT
BRANCH   2   5
HETATM    5  C   UNL     1      39.853 -13.610   2.428  1.00  0.00     0.035 A 
HETATM    6  C   UNL     1      39.865 -13.785   1.041  1.00  0.00     0.042 A 
HETATM    7  C   UNL     1      39.215 -12.876   0.189  1.00  0.00    -0.021 A 
HETATM    8  C   UNL     1      38.532 -11.791   0.752  1.00  0.00     0.012 A 
HETATM    9  C   UNL     1      38.507 -11.611   2.134  1.00  0.00     0.003 A 
HETATM   10  C   UNL     1      39.168 -12.514   2.966  1.00  0.00     0.029 A 
BRANCH   7  11
HETATM   11  C   UNL     1      39.250 -13.044  -1.257  1.00  0.00     0.010 A 
HETATM   12  C   UNL     1      40.024 -13.901  -2.074  1.00  0.00     0.152 A 
HETATM   13  N   UNL     1      39.745 -13.774  -3.374  1.00  0.00    -0.187 NA
HETATM   14  N   UNL     1      38.792 -12.829  -3.397  1.00  0.00    -0.289 N 
HETATM   15  H   UNL     1      38.410 -12.550  -4.295  1.00  0.00     0.188 HD
HETATM   16  C   UNL     1      38.456 -12.366  -2.158  1.00  0.00     0.123 A 
ENDBRANCH   7  11
ENDBRANCH   2   5
BRANCH   1  17
HETATM   17  C   UNL     1      42.139 -15.222   5.046  1.00  0.00     0.108 C 
BRANCH  17  18
HETATM   18  C   UNL     1      43.508 -15.900   5.016  1.00  0.00     0.048 C 
BRANCH  18  19
HETATM   19  C   UNL     1      43.618 -17.273   4.381  1.00  0.00    -0.057 A 
HETATM   20  C   UNL     1      44.026 -18.425   5.071  1.00  0.00     0.013 A 
HETATM   21  C   UNL     1      44.062 -19.676   4.438  1.00  0.00    -0.061 A 
HETATM   22  C   UNL     1      44.443 -20.912   5.199  1.00  0.00     0.048 C 
HETATM   23  C   UNL     1      43.711 -19.770   3.088  1.00  0.00     0.007 A 
HETATM   24  C   UNL     1      43.331 -18.632   2.381  1.00  0.00     0.001 A 
HETATM   25  C   UNL     1      43.281 -17.395   3.023  1.00  0.00     0.007 A 
ENDBRANCH  18  19
ENDBRANCH  17  18
ENDBRANCH   1  17
TORSDOF 5
ENDMDL
MODEL 7
REMARK VINA RESULT:      -7.9      2.929      8.402
REMARK  5 active torsions:
REMARK  status: ('A' for Active; 'I' for Inactive)
REMARK    1  A    between atoms: C_4  and  C_5 
REMARK    2  A    between atoms: C_5  and  C_6 
REMARK    3  A    between atoms: C_6  and  C_7 
REMARK       I    between atoms: C_7  and  N_8 
REMARK    4  A    between atoms: N_8  and  C_9 
REMARK    5  A    between atoms: C_11  and  C_12 
ROOT
HETATM    1  C   UNL     1      41.846 -13.679   2.378  1.00  0.00     0.222 C 
HETATM    2  N   UNL     1      41.343 -13.646   3.662  1.00  0.00    -0.327 N 
HETATM    3  O   UNL     1      42.498 -12.780   1.848  1.00  0.00    -0.273 OA
HETATM    4  H   UNL     1      40.766 -14.422   3.960  1.00  0.00     0.169 HD
ENDROOT
BRANCH   2   5
HETATM    5  C   UNL     1      41.563 -12.668   4.656  1.00  0.00     0.035 A 
HETATM    6  C   UNL     1      42.807 -12.394   5.230  1.00  0.00     0.042 A 
HETATM    7  C   UNL     1      42.942 -11.436   6.250  1.00  0.00    -0.021 A 
HETATM    8  C   UNL     1      41.805 -10.739   6.678  1.00  0.00     0.012 A 
HETATM    9  C   UNL     1      40.560 -10.999   6.107  1.00  0.00     0.003 A 
HETATM   10  C   UNL     1      40.440 -11.961   5.104  1.00  0.00     0.029 A 
BRANCH   7  11
HETATM   11  C   UNL     1      44.233 -11.170   6.867  1.00  0.00     0.010 A 
HETATM   12  C   UNL     1      44.577 -10.852   8.203  1.00  0.00     0.152 A 
HETATM   13  N   UNL     1      45.892 -10.702   8.381  1.00  0.00    -0.187 NA
HETATM   14  N   UNL     1      46.399 -10.918   7.156  1.00  0.00    -0.289 N 
HETATM   15  H   UNL     1      47.403 -10.857   7.032  1.00  0.00     0.188 HD
HETATM   16  C   UNL     1      45.450 -11.208   6.220  1.00  0.00     0.123 A 
ENDBRANCH   7  11
ENDBRANCH   2   5
BRANCH   1  17
HETATM   17  C   UNL     1      41.633 -14.976   1.599  1.00  0.00     0.108 C 
BRANCH  17  18
HETATM   18  C   UNL     1      41.199 -16.228   2.359  1.00  0.00     0.048 C 
BRANCH  18  19
HETATM   19  C   UNL     1      42.271 -17.196   2.824  1.00  0.00    -0.057 A 
HETATM   20  C   UNL     1      42.552 -18.417   2.192  1.00  0.00     0.013 A 
HETATM   21  C   UNL     1      43.589 -19.247   2.644  1.00  0.00    -0.061 A 
HETATM   22  C   UNL     1      43.920 -20.523   1.926  1.00  0.00     0.048 C 
HETATM   23  C   UNL     1      44.336 -18.861   3.761  1.00  0.00     0.007 A 
HETATM   24  C   UNL     1      44.052 -17.666   4.416  1.00  0.00     0.001 A 
HETATM   25  C   UNL     1      43.031 -16.839   3.949  1.00  0.00     0.007 A 
ENDBRANCH  18  19
ENDBRANCH  17  18
ENDBRANCH   1  17
TORSDOF 5
ENDMDL
MODEL 8
REMARK VINA RESULT:      -7.8      3.985      7.236
REMARK  5 active torsions:
REMARK  status: ('A' for Active; 'I' for Inactive)
REMARK    1  A    between atoms: C_4  and  C_5 
REMARK    2  A    between atoms: C_5  and  C_6 
REMARK    3  A    between atoms: C_6  and  C_7 
REMARK       I    between atoms: C_7  and  N_8 
REMARK    4  A    between atoms: N_8  and  C_9 
REMARK    5  A    between atoms: C_11  and  C_12 
ROOT
HETATM    1  C   UNL     1      42.596 -13.249   2.702  1.00  0.00     0.222 C 
HETATM    2  N   UNL     1      42.065 -14.413   3.217  1.00  0.00    -0.327 N 
HETATM    3  O   UNL     1      43.760 -12.876   2.845  1.00  0.00    -0.273 OA
HETATM    4  H   UNL     1      41.074 -14.575   3.085  1.00  0.00     0.169 HD
ENDROOT
BRANCH   2   5
HETATM    5  C   UNL     1      42.742 -15.453   3.890  1.00  0.00     0.035 A 
HETATM    6  C   UNL     1      42.909 -16.743   3.379  1.00  0.00     0.042 A 
HETATM    7  C   UNL     1      43.555 -17.743   4.128  1.00  0.00    -0.021 A 
HETATM    8  C   UNL     1      44.048 -17.424   5.399  1.00  0.00     0.012 A 
HETATM    9  C   UNL     1      43.893 -16.138   5.915  1.00  0.00     0.003 A 
HETATM   10  C   UNL     1      43.240 -15.160   5.166  1.00  0.00     0.029 A 
BRANCH   7  11
HETATM   11  C   UNL     1      43.705 -19.093   3.606  1.00  0.00     0.010 A 
HETATM   12  C   UNL     1      43.574 -19.602   2.292  1.00  0.00     0.152 A 
HETATM   13  N   UNL     1      43.818 -20.913   2.214  1.00  0.00    -0.187 NA
HETATM   14  N   UNL     1      44.104 -21.253   3.481  1.00  0.00    -0.289 N 
HETATM   15  H   UNL     1      44.328 -22.221   3.682  1.00  0.00     0.188 HD
HETATM   16  C   UNL     1      44.057 -20.201   4.349  1.00  0.00     0.123 A 
ENDBRANCH   7  11
ENDBRANCH   2   5
BRANCH   1  17
HETATM   17  C   UNL     1      41.671 -12.412   1.820  1.00  0.00     0.108 C 
BRANCH  17  18
HETATM   18  C   UNL     1      40.190 -12.780   1.751  1.00  0.00     0.048 C 
BRANCH  18  19
HETATM   19  C   UNL     1      39.609 -13.184   0.410  1.00  0.00    -0.057 A 
HETATM   20  C   UNL     1      38.785 -12.358  -0.369  1.00  0.00     0.013 A 
HETATM   21  C   UNL     1      38.318 -12.774  -1.625  1.00  0.00    -0.061 A 
HETATM   22  C   UNL     1      37.485 -11.860  -2.476  1.00  0.00     0.048 C 
HETATM   23  C   UNL     1      38.658 -14.045  -2.094  1.00  0.00     0.007 A 
HETATM   24  C   UNL     1      39.452 -14.889  -1.322  1.00  0.00     0.001 A 
HETATM   25  C   UNL     1      39.927 -14.460  -0.082  1.00  0.00     0.007 A 
ENDBRANCH  18  19
ENDBRANCH  17  18
ENDBRANCH   1  17
TORSDOF 5
ENDMDL
MODEL 9
REMARK VINA RESULT:      -7.7      4.636      7.823
REMARK  5 active torsions:
REMARK  status: ('A' for Active; 'I' for Inactive)
REMARK    1  A    between atoms: C_4  and  C_5 
REMARK    2  A    between atoms: C_5  and  C_6 
REMARK    3  A    between atoms: C_6  and  C_7 
REMARK       I    between atoms: C_7  and  N_8 
REMARK    4  A    between atoms: N_8  and  C_9 
REMARK    5  A    between atoms: C_11  and  C_12 
ROOT
HETATM    1  C   UNL     1      40.601 -15.204   0.619  1.00  0.00     0.222 C 
HETATM    2  N   UNL     1      41.930 -15.179   0.988  1.00  0.00    -0.327 N 
HETATM    3  O   UNL     1      39.724 -15.869   1.170  1.00  0.00    -0.273 OA
HETATM    4  H   UNL     1      42.566 -14.641   0.413  1.00  0.00     0.169 HD
ENDROOT
BRANCH   2   5
HETATM    5  C   UNL     1      42.531 -15.788   2.110  1.00  0.00     0.035 A 
HETATM    6  C   UNL     1      42.841 -17.148   2.198  1.00  0.00     0.042 A 
HETATM    7  C   UNL     1      43.396 -17.693   3.368  1.00  0.00    -0.021 A 
HETATM    8  C   UNL     1      43.654 -16.846   4.453  1.00  0.00     0.012 A 
HETATM    9  C   UNL     1      43.356 -15.486   4.374  1.00  0.00     0.003 A 
HETATM   10  C   UNL     1      42.794 -14.962   3.211  1.00  0.00     0.029 A 
BRANCH   7  11
HETATM   11  C   UNL     1      43.694 -19.114   3.468  1.00  0.00     0.010 A 
HETATM   12  C   UNL     1      43.598 -20.153   2.512  1.00  0.00     0.152 A 
HETATM   13  N   UNL     1      43.992 -21.337   2.987  1.00  0.00    -0.187 NA
HETATM   14  N   UNL     1      44.339 -21.064   4.255  1.00  0.00    -0.289 N 
HETATM   15  H   UNL     1      44.677 -21.823   4.837  1.00  0.00     0.188 HD
HETATM   16  C   UNL     1      44.186 -19.750   4.589  1.00  0.00     0.123 A 
ENDBRANCH   7  11
ENDBRANCH   2   5
BRANCH   1  17
HETATM   17  C   UNL     1      40.193 -14.263  -0.513  1.00  0.00     0.108 C 
BRANCH  17  18
HETATM   18  C   UNL     1      40.212 -12.756  -0.261  1.00  0.00     0.048 C 
BRANCH  18  19
HETATM   19  C   UNL     1      39.707 -11.836  -1.356  1.00  0.00    -0.057 A 
HETATM   20  C   UNL     1      40.538 -11.020  -2.138  1.00  0.00     0.013 A 
HETATM   21  C   UNL     1      40.014 -10.225  -3.168  1.00  0.00    -0.061 A 
HETATM   22  C   UNL     1      40.917  -9.399  -4.038  1.00  0.00     0.048 C 
HETATM   23  C   UNL     1      38.635 -10.228  -3.400  1.00  0.00     0.007 A 
HETATM   24  C   UNL     1      37.794 -11.011  -2.615  1.00  0.00     0.001 A 
HETATM   25  C   UNL     1      38.326 -11.811  -1.604  1.00  0.00     0.007 A 
ENDBRANCH  18  19
ENDBRANCH  17  18
ENDBRANCH   1  17
TORSDOF 5
ENDMDL
MODEL 10
REMARK VINA RESULT:      -7.5      1.937      2.222
REMARK  5 active torsions:
REMARK  status: ('A' for Active; 'I' for Inactive)
REMARK    1  A    between atoms: C_4  and  C_5 
REMARK    2  A    between atoms: C_5  and  C_6 
REMARK    3  A    between atoms: C_6  and  C_7 
REMARK       I    between atoms: C_7  and  N_8 
REMARK    4  A    between atoms: N_8  and  C_9 
REMARK    5  A    between atoms: C_11  and  C_12 
ROOT
HETATM    1  C   UNL     1      40.422 -12.505   5.583  1.00  0.00     0.222 C 
HETATM    2  N   UNL     1      41.188 -12.898   4.506  1.00  0.00    -0.327 N 
HETATM    3  O   UNL     1      39.451 -13.118   6.025  1.00  0.00    -0.273 OA
HETATM    4  H   UNL     1      41.922 -12.272   4.198  1.00  0.00     0.169 HD
ENDROOT
BRANCH   2   5
HETATM    5  C   UNL     1      41.109 -14.106   3.779  1.00  0.00     0.035 A 
HETATM    6  C   UNL     1      42.015 -15.162   3.906  1.00  0.00     0.042 A 
HETATM    7  C   UNL     1      41.901 -16.318   3.113  1.00  0.00    -0.021 A 
HETATM    8  C   UNL     1      40.846 -16.406   2.196  1.00  0.00     0.012 A 
HETATM    9  C   UNL     1      39.932 -15.361   2.067  1.00  0.00     0.003 A 
HETATM   10  C   UNL     1      40.066 -14.216   2.851  1.00  0.00     0.029 A 
BRANCH   7  11
HETATM   11  C   UNL     1      42.860 -17.406   3.227  1.00  0.00     0.010 A 
HETATM   12  C   UNL     1      43.195 -18.447   2.327  1.00  0.00     0.152 A 
HETATM   13  N   UNL     1      44.157 -19.248   2.793  1.00  0.00    -0.187 NA
HETATM   14  N   UNL     1      44.441 -18.727   3.997  1.00  0.00    -0.289 N 
HETATM   15  H   UNL     1      45.157 -19.174   4.559  1.00  0.00     0.188 HD
HETATM   16  C   UNL     1      43.698 -17.623   4.300  1.00  0.00     0.123 A 
ENDBRANCH   7  11
ENDBRANCH   2   5
BRANCH   1  17
HETATM   17  C   UNL     1      40.881 -11.248   6.320  1.00  0.00     0.108 C 
BRANCH  17  18
HETATM   18  C   UNL     1      42.105 -10.495   5.799  1.00  0.00     0.048 C 
BRANCH  18  19
HETATM   19  C   UNL     1      43.377 -10.530   6.624  1.00  0.00    -0.057 A 
HETATM   20  C   UNL     1      43.493  -9.980   7.910  1.00  0.00     0.013 A 
HETATM   21  C   UNL     1      44.685 -10.086   8.641  1.00  0.00    -0.061 A 
HETATM   22  C   UNL     1      44.781  -9.545  10.038  1.00  0.00     0.048 C 
HETATM   23  C   UNL     1      45.785 -10.730   8.067  1.00  0.00     0.007 A 
HETATM   24  C   UNL     1      45.696 -11.258   6.781  1.00  0.00     0.001 A 
HETATM   25  C   UNL     1      44.501 -11.162   6.068  1.00  0.00     0.007 A 
ENDBRANCH  18  19
ENDBRANCH  17  18
ENDBRANCH   1  17
TORSDOF 5
ENDMDL
