MODEL 1
REMARK VINA RESULT:      -8.6      0.000      0.000
REMARK  6 active torsions:
REMARK  status: ('A' for Active; 'I' for Inactive)
REMARK    1  A    between atoms: C_4  and  C_5 
REMARK    2  A    between atoms: C_5  and  N_6 
REMARK    3  A    between atoms: C_5  and  C_22 
REMARK    4  A    between atoms: N_6  and  C_9 
REMARK    5  A    between atoms: C_9  and  C_10 
REMARK    6  A    between atoms: C_13  and  C_14 
REMARK       I    between atoms: C_22  and  N_23 
ROOT
HETATM    1  N   UNL     1      41.711 -12.036   1.667  1.00  0.00    -0.054 N 
HETATM    2  H   UNL     1      42.269 -11.826   0.832  1.00  0.00     0.278 HD
HETATM    3  H   UNL     1      41.198 -11.177   1.907  1.00  0.00     0.278 HD
ENDROOT
BRANCH   1   4
HETATM    4  C   UNL     1      40.659 -13.073   1.348  1.00  0.00     0.310 C 
BRANCH   4   5
HETATM    5  C   UNL     1      40.480 -13.184  -0.152  1.00  0.00    -0.019 A 
HETATM    6  C   UNL     1      39.840 -14.306  -0.704  1.00  0.00     0.010 A 
HETATM    7  C   UNL     1      39.682 -14.419  -2.087  1.00  0.00     0.001 A 
HETATM    8  C   UNL     1      40.167 -13.423  -2.932  1.00  0.00     0.000 A 
HETATM    9  C   UNL     1      40.812 -12.311  -2.399  1.00  0.00     0.001 A 
HETATM   10  C   UNL     1      40.972 -12.190  -1.018  1.00  0.00     0.010 A 
ENDBRANCH   4   5
BRANCH   4  11
HETATM   11  C   UNL     1      39.327 -12.718   2.053  1.00  0.00     0.251 C 
HETATM   12  N   UNL     1      38.766 -13.656   2.865  1.00  0.00    -0.368 N 
HETATM   13  H   UNL     1      38.972 -14.647   2.792  1.00  0.00     0.159 HD
HETATM   14  H   UNL     1      37.860 -13.430   3.268  1.00  0.00     0.159 HD
HETATM   15  O   UNL     1      38.823 -11.604   1.912  1.00  0.00    -0.271 OA
ENDBRANCH   4  11
ENDBRANCH   1   4
BRANCH   1  16
HETATM   16  C   UNL     1      42.602 -12.365   2.813  1.00  0.00     0.272 C 
BRANCH  16  17
HETATM   17  C   UNL     1      42.865 -13.842   2.921  1.00  0.00    -0.033 A 
HETATM   18  C   UNL     1      42.605 -14.540   4.108  1.00  0.00     0.010 A 
HETATM   19  C   UNL     1      42.823 -15.921   4.187  1.00  0.00     0.013 A 
HETATM   20  C   UNL     1      43.283 -16.655   3.081  1.00  0.00    -0.025 A 
HETATM   21  C   UNL     1      43.533 -15.946   1.896  1.00  0.00     0.013 A 
HETATM   22  C   UNL     1      43.331 -14.563   1.814  1.00  0.00     0.010 A 
BRANCH  20  23
HETATM   23  C   UNL     1      43.470 -18.117   3.155  1.00  0.00    -0.008 A 
HETATM   24  C   UNL     1      44.011 -18.738   4.284  1.00  0.00     0.128 A 
HETATM   25  N   UNL     1      44.211 -20.071   4.422  1.00  0.00    -0.272 NA
HETATM   26  C   UNL     1      43.847 -20.848   3.383  1.00  0.00     0.116 A 
HETATM   27  C   UNL     1      43.295 -20.351   2.216  1.00  0.00     0.020 A 
HETATM   28  C   UNL     1      43.110 -18.972   2.104  1.00  0.00     0.015 A 
ENDBRANCH  20  23
ENDBRANCH  16  17
ENDBRANCH   1  16
TORSDOF 6
ENDMDL
MODEL 2
REMARK VINA RESULT:      -8.5      2.738      7.245
REMARK  6 active torsions:
REMARK  status: ('A' for Active; 'I' for Inactive)
REMARK    1  A    between atoms: C_4  and  C_5 
REMARK    2  A    between atoms: C_5  and  N_6 
REMARK    3  A    between atoms: C_5  and  C_22 
REMARK    4  A    between atoms: N_6  and  C_9 
REMARK    5  A    between atoms: C_9  and  C_10 
REMARK    6  A    between atoms: C_13  and  C_14 
REMARK       I    between atoms: C_22  and  N_23 
ROOT
HETATM    1  N   UNL     1      41.718 -16.589   5.449  1.00  0.00    -0.054 N 
HETATM    2  H   UNL     1      41.167 -17.302   4.958  1.00  0.00     0.278 HD
HETATM    3  H   UNL     1      41.650 -16.800   6.453  1.00  0.00     0.278 HD
ENDROOT
BRANCH   1   4
HETATM    4  C   UNL     1      43.181 -16.719   5.094  1.00  0.00     0.310 C 
BRANCH   4   5
HETATM    5  C   UNL     1      43.411 -17.993   4.307  1.00  0.00    -0.019 A 
HETATM    6  C   UNL     1      43.133 -18.030   2.930  1.00  0.00     0.010 A 
HETATM    7  C   UNL     1      43.332 -19.204   2.201  1.00  0.00     0.001 A 
HETATM    8  C   UNL     1      43.801 -20.352   2.836  1.00  0.00     0.000 A 
HETATM    9  C   UNL     1      44.070 -20.332   4.202  1.00  0.00     0.001 A 
HETATM   10  C   UNL     1      43.875 -19.162   4.936  1.00  0.00     0.010 A 
ENDBRANCH   4   5
BRANCH   4  11
HETATM   11  C   UNL     1      44.048 -16.681   6.376  1.00  0.00     0.251 C 
HETATM   12  N   UNL     1      43.480 -17.099   7.542  1.00  0.00    -0.368 N 
HETATM   13  H   UNL     1      42.477 -17.123   7.691  1.00  0.00     0.159 HD
HETATM   14  H   UNL     1      44.042 -17.006   8.384  1.00  0.00     0.159 HD
HETATM   15  O   UNL     1      45.224 -16.325   6.325  1.00  0.00    -0.271 OA
ENDBRANCH   4  11
ENDBRANCH   1   4
BRANCH   1  16
HETATM   16  C   UNL     1      41.128 -15.240   5.230  1.00  0.00     0.272 C 
BRANCH  16  17
HETATM   17  C   UNL     1      40.900 -14.950   3.771  1.00  0.00    -0.033 A 
HETATM   18  C   UNL     1      40.221 -15.858   2.948  1.00  0.00     0.010 A 
HETATM   19  C   UNL     1      39.986 -15.562   1.600  1.00  0.00     0.013 A 
HETATM   20  C   UNL     1      40.395 -14.343   1.035  1.00  0.00    -0.025 A 
HETATM   21  C   UNL     1      41.067 -13.438   1.871  1.00  0.00     0.013 A 
HETATM   22  C   UNL     1      41.318 -13.733   3.217  1.00  0.00     0.010 A 
BRANCH  20  23
HETATM   23  C   UNL     1      40.107 -14.016  -0.375  1.00  0.00    -0.008 A 
HETATM   24  C   UNL     1      40.556 -12.831  -0.966  1.00  0.00     0.128 A 
HETATM   25  N   UNL     1      40.330 -12.467  -2.252  1.00  0.00    -0.272 NA
HETATM   26  C   UNL     1      39.623 -13.327  -3.010  1.00  0.00     0.116 A 
HETATM   27  C   UNL     1      39.132 -14.532  -2.540  1.00  0.00     0.020 A 
HETATM   28  C   UNL     1      39.376 -14.874  -1.209  1.00  0.00     0.015 A 
ENDBRANCH  20  23
ENDBRANCH  16  17
ENDBRANCH   1  16
TORSDOF 6
ENDMDL
MODEL 3
REMARK VINA RESULT:      -8.2      2.931      7.501
REMARK  6 active torsions:
REMARK  status: ('A' for Active; 'I' for Inactive)
REMARK    1  A    between atoms: C_4  and  C_5 
REMARK    2  A    between atoms: C_5  and  N_6 
REMARK    3  A    between atoms: C_5  and  C_22 
REMARK    4  A    between atoms: N_6  and  C_9 
REMARK    5  A    between atoms: C_9  and  C_10 
REMARK    6  A    between atoms: C_13  and  C_14 
REMARK       I    between atoms: C_22  and  N_23 
ROOT
HETATM    1  N   UNL     1      42.540 -15.907   4.145  1.00  0.00    -0.054 N 
HETATM    2  H   UNL     1      41.908 -16.522   3.621  1.00  0.00     0.278 HD
HETATM    3  H   UNL     1      42.042 -15.627   5.001  1.00  0.00     0.278 HD
ENDROOT
BRANCH   1   4
HETATM    4  C   UNL     1      43.757 -16.675   4.605  1.00  0.00     0.310 C 
BRANCH   4   5
HETATM    5  C   UNL     1      43.727 -18.080   4.039  1.00  0.00    -0.019 A 
HETATM    6  C   UNL     1      44.153 -19.164   4.823  1.00  0.00     0.010 A 
HETATM    7  C   UNL     1      44.137 -20.461   4.303  1.00  0.00     0.001 A 
HETATM    8  C   UNL     1      43.706 -20.687   2.998  1.00  0.00     0.000 A 
HETATM    9  C   UNL     1      43.291 -19.620   2.207  1.00  0.00     0.001 A 
HETATM   10  C   UNL     1      43.302 -18.322   2.720  1.00  0.00     0.010 A 
ENDBRANCH   4   5
BRANCH   4  11
HETATM   11  C   UNL     1      43.828 -16.689   6.152  1.00  0.00     0.251 C 
HETATM   12  N   UNL     1      42.678 -16.928   6.840  1.00  0.00    -0.368 N 
HETATM   13  H   UNL     1      41.755 -16.781   6.445  1.00  0.00     0.159 HD
HETATM   14  H   UNL     1      42.730 -16.869   7.854  1.00  0.00     0.159 HD
HETATM   15  O   UNL     1      44.903 -16.531   6.730  1.00  0.00    -0.271 OA
ENDBRANCH   4  11
ENDBRANCH   1   4
BRANCH   1  16
HETATM   16  C   UNL     1      42.825 -14.673   3.364  1.00  0.00     0.272 C 
BRANCH  16  17
HETATM   17  C   UNL     1      41.861 -14.486   2.224  1.00  0.00    -0.033 A 
HETATM   18  C   UNL     1      41.828 -13.293   1.489  1.00  0.00     0.010 A 
HETATM   19  C   UNL     1      40.950 -13.144   0.409  1.00  0.00     0.013 A 
HETATM   20  C   UNL     1      40.094 -14.184   0.010  1.00  0.00    -0.025 A 
HETATM   21  C   UNL     1      40.142 -15.377   0.749  1.00  0.00     0.013 A 
HETATM   22  C   UNL     1      41.007 -15.528   1.840  1.00  0.00     0.010 A 
BRANCH  20  23
HETATM   23  C   UNL     1      39.201 -14.039  -1.155  1.00  0.00    -0.008 A 
HETATM   24  C   UNL     1      39.082 -15.038  -2.125  1.00  0.00     0.128 A 
HETATM   25  N   UNL     1      38.283 -14.973  -3.218  1.00  0.00    -0.272 NA
HETATM   26  C   UNL     1      37.545 -13.855  -3.364  1.00  0.00     0.116 A 
HETATM   27  C   UNL     1      37.573 -12.801  -2.467  1.00  0.00     0.020 A 
HETATM   28  C   UNL     1      38.412 -12.897  -1.356  1.00  0.00     0.015 A 
ENDBRANCH  20  23
ENDBRANCH  16  17
ENDBRANCH   1  16
TORSDOF 6
ENDMDL
MODEL 4
REMARK VINA RESULT:      -8.2      2.676      4.864
REMARK  6 active torsions:
REMARK  status: ('A' for Active; 'I' for Inactive)
REMARK    1  A    between atoms: C_4  and  C_5 
REMARK    2  A    between atoms: C_5  and  N_6 
REMARK    3  A    between atoms: C_5  and  C_22 
REMARK    4  A    between atoms: N_6  and  C_9 
REMARK    5  A    between atoms: C_9  and  C_10 
REMARK    6  A    between atoms: C_13  and  C_14 
REMARK       I    between atoms: C_22  and  N_23 
ROOT
HETATM    1  N   UNL     1      40.279 -12.257   4.010  1.00  0.00    -0.054 N 
HETATM    2  H   UNL     1      39.559 -12.975   4.147  1.00  0.00     0.278 HD
HETATM    3  H   UNL     1      39.787 -11.371   3.835  1.00  0.00     0.278 HD
ENDROOT
BRANCH   1   4
HETATM    4  C   UNL     1      41.067 -12.053   5.283  1.00  0.00     0.310 C 
BRANCH   4   5
HETATM    5  C   UNL     1      41.358 -13.390   5.931  1.00  0.00    -0.019 A 
HETATM    6  C   UNL     1      42.665 -13.708   6.335  1.00  0.00     0.010 A 
HETATM    7  C   UNL     1      42.942 -14.944   6.924  1.00  0.00     0.001 A 
HETATM    8  C   UNL     1      41.923 -15.876   7.107  1.00  0.00     0.000 A 
HETATM    9  C   UNL     1      40.625 -15.578   6.702  1.00  0.00     0.001 A 
HETATM   10  C   UNL     1      40.341 -14.345   6.114  1.00  0.00     0.010 A 
ENDBRANCH   4   5
BRANCH   4  11
HETATM   11  C   UNL     1      40.298 -11.113   6.243  1.00  0.00     0.251 C 
HETATM   12  N   UNL     1      40.984 -10.563   7.283  1.00  0.00    -0.368 N 
HETATM   13  H   UNL     1      41.841 -10.961   7.653  1.00  0.00     0.159 HD
HETATM   14  H   UNL     1      40.448 -10.001   7.940  1.00  0.00     0.159 HD
HETATM   15  O   UNL     1      39.115 -10.842   6.038  1.00  0.00    -0.271 OA
ENDBRANCH   4  11
ENDBRANCH   1   4
BRANCH   1  16
HETATM   16  C   UNL     1      41.092 -12.568   2.802  1.00  0.00     0.272 C 
BRANCH  16  17
HETATM   17  C   UNL     1      41.607 -13.981   2.811  1.00  0.00    -0.033 A 
HETATM   18  C   UNL     1      42.980 -14.252   2.890  1.00  0.00     0.010 A 
HETATM   19  C   UNL     1      43.446 -15.571   2.932  1.00  0.00     0.013 A 
HETATM   20  C   UNL     1      42.561 -16.662   2.922  1.00  0.00    -0.025 A 
HETATM   21  C   UNL     1      41.188 -16.378   2.851  1.00  0.00     0.013 A 
HETATM   22  C   UNL     1      40.716 -15.061   2.794  1.00  0.00     0.010 A 
BRANCH  20  23
HETATM   23  C   UNL     1      43.054 -18.050   3.010  1.00  0.00    -0.008 A 
HETATM   24  C   UNL     1      43.758 -18.516   4.124  1.00  0.00     0.128 A 
HETATM   25  N   UNL     1      44.239 -19.775   4.273  1.00  0.00    -0.272 NA
HETATM   26  C   UNL     1      44.004 -20.636   3.263  1.00  0.00     0.116 A 
HETATM   27  C   UNL     1      43.314 -20.294   2.114  1.00  0.00     0.020 A 
HETATM   28  C   UNL     1      42.839 -18.987   1.989  1.00  0.00     0.015 A 
ENDBRANCH  20  23
ENDBRANCH  16  17
ENDBRANCH   1  16
TORSDOF 6
ENDMDL
MODEL 5
REMARK VINA RESULT:      -8.2      1.964      4.261
REMARK  6 active torsions:
REMARK  status: ('A' for Active; 'I' for Inactive)
REMARK    1  A    between atoms: C_4  and  C_5 
REMARK    2  A    between atoms: C_5  and  N_6 
REMARK    3  A    between atoms: C_5  and  C_22 
REMARK    4  A    between atoms: N_6  and  C_9 
REMARK    5  A    between atoms: C_9  and  C_10 
REMARK    6  A    between atoms: C_13  and  C_14 
REMARK       I    between atoms: C_22  and  N_23 
ROOT
HETATM    1  N   UNL     1      40.600 -12.515   2.038  1.00  0.00    -0.054 N 
HETATM    2  H   UNL     1      39.834 -13.038   2.478  1.00  0.00     0.278 HD
HETATM    3  H   UNL     1      40.177 -11.699   1.576  1.00  0.00     0.278 HD
ENDROOT
BRANCH   1   4
HETATM    4  C   UNL     1      41.531 -11.961   3.091  1.00  0.00     0.310 C 
BRANCH   4   5
HETATM    5  C   UNL     1      41.580 -12.896   4.281  1.00  0.00    -0.019 A 
HETATM    6  C   UNL     1      42.815 -13.363   4.761  1.00  0.00     0.010 A 
HETATM    7  C   UNL     1      42.865 -14.234   5.852  1.00  0.00     0.001 A 
HETATM    8  C   UNL     1      41.688 -14.655   6.467  1.00  0.00     0.000 A 
HETATM    9  C   UNL     1      40.457 -14.208   5.996  1.00  0.00     0.001 A 
HETATM   10  C   UNL     1      40.399 -13.336   4.908  1.00  0.00     0.010 A 
ENDBRANCH   4   5
BRANCH   4  11
HETATM   11  C   UNL     1      41.083 -10.538   3.506  1.00  0.00     0.251 C 
HETATM   12  N   UNL     1      42.048  -9.644   3.858  1.00  0.00    -0.368 N 
HETATM   13  H   UNL     1      42.973  -9.921   4.170  1.00  0.00     0.159 HD
HETATM   14  H   UNL     1      41.733  -8.735   4.189  1.00  0.00     0.159 HD
HETATM   15  O   UNL     1      39.895 -10.222   3.473  1.00  0.00    -0.271 OA
ENDBRANCH   4  11
ENDBRANCH   1   4
BRANCH   1  16
HETATM   16  C   UNL     1      41.251 -13.342   0.985  1.00  0.00     0.272 C 
BRANCH  16  17
HETATM   17  C   UNL     1      41.755 -14.653   1.523  1.00  0.00    -0.033 A 
HETATM   18  C   UNL     1      40.872 -15.623   2.016  1.00  0.00     0.010 A 
HETATM   19  C   UNL     1      41.351 -16.853   2.483  1.00  0.00     0.013 A 
HETATM   20  C   UNL     1      42.720 -17.167   2.452  1.00  0.00    -0.025 A 
HETATM   21  C   UNL     1      43.594 -16.190   1.948  1.00  0.00     0.013 A 
HETATM   22  C   UNL     1      43.123 -14.952   1.493  1.00  0.00     0.010 A 
BRANCH  20  23
HETATM   23  C   UNL     1      43.217 -18.480   2.905  1.00  0.00    -0.008 A 
HETATM   24  C   UNL     1      43.193 -19.606   2.077  1.00  0.00     0.128 A 
HETATM   25  N   UNL     1      43.631 -20.840   2.425  1.00  0.00    -0.272 NA
HETATM   26  C   UNL     1      44.135 -20.976   3.667  1.00  0.00     0.116 A 
HETATM   27  C   UNL     1      44.217 -19.934   4.574  1.00  0.00     0.020 A 
HETATM   28  C   UNL     1      43.750 -18.678   4.186  1.00  0.00     0.015 A 
ENDBRANCH  20  23
ENDBRANCH  16  17
ENDBRANCH   1  16
TORSDOF 6
ENDMDL
MODEL 6
REMARK VINA RESULT:      -8.0      2.739      5.202
REMARK  6 active torsions:
REMARK  status: ('A' for Active; 'I' for Inactive)
REMARK    1  A    between atoms: C_4  and  C_5 
REMARK    2  A    between atoms: C_5  and  N_6 
REMARK    3  A    between atoms: C_5  and  C_22 
REMARK    4  A    between atoms: N_6  and  C_9 
REMARK    5  A    between atoms: C_9  and  C_10 
REMARK    6  A    between atoms: C_13  and  C_14 
REMARK       I    between atoms: C_22  and  N_23 
ROOT
HETATM    1  N   UNL     1      41.838 -11.974   3.849  1.00  0.00    -0.054 N 
HETATM    2  H   UNL     1      41.888 -12.648   4.620  1.00  0.00     0.278 HD
HETATM    3  H   UNL     1      40.841 -11.780   3.686  1.00  0.00     0.278 HD
ENDROOT
BRANCH   1   4
HETATM    4  C   UNL     1      42.457 -10.658   4.260  1.00  0.00     0.310 C 
BRANCH   4   5
HETATM    5  C   UNL     1      43.304 -10.851   5.501  1.00  0.00    -0.019 A 
HETATM    6  C   UNL     1      42.839 -10.400   6.747  1.00  0.00     0.010 A 
HETATM    7  C   UNL     1      43.619 -10.565   7.894  1.00  0.00     0.001 A 
HETATM    8  C   UNL     1      44.871 -11.171   7.808  1.00  0.00     0.000 A 
HETATM    9  C   UNL     1      45.348 -11.613   6.578  1.00  0.00     0.001 A 
HETATM   10  C   UNL     1      44.573 -11.453   5.428  1.00  0.00     0.010 A 
ENDBRANCH   4   5
BRANCH   4  11
HETATM   11  C   UNL     1      41.354  -9.596   4.485  1.00  0.00     0.251 C 
HETATM   12  N   UNL     1      41.710  -8.283   4.417  1.00  0.00    -0.368 N 
HETATM   13  H   UNL     1      42.663  -7.960   4.549  1.00  0.00     0.159 HD
HETATM   14  H   UNL     1      40.988  -7.600   4.631  1.00  0.00     0.159 HD
HETATM   15  O   UNL     1      40.187  -9.936   4.675  1.00  0.00    -0.271 OA
ENDBRANCH   4  11
ENDBRANCH   1   4
BRANCH   1  16
HETATM   16  C   UNL     1      42.390 -12.575   2.603  1.00  0.00     0.272 C 
BRANCH  16  17
HETATM   17  C   UNL     1      42.718 -14.033   2.772  1.00  0.00    -0.033 A 
HETATM   18  C   UNL     1      42.636 -14.655   4.025  1.00  0.00     0.010 A 
HETATM   19  C   UNL     1      42.912 -16.020   4.164  1.00  0.00     0.013 A 
HETATM   20  C   UNL     1      43.253 -16.816   3.057  1.00  0.00    -0.025 A 
HETATM   21  C   UNL     1      43.324 -16.183   1.806  1.00  0.00     0.013 A 
HETATM   22  C   UNL     1      43.063 -14.815   1.662  1.00  0.00     0.010 A 
BRANCH  20  23
HETATM   23  C   UNL     1      43.500 -18.264   3.200  1.00  0.00    -0.008 A 
HETATM   24  C   UNL     1      44.035 -18.811   4.370  1.00  0.00     0.128 A 
HETATM   25  N   UNL     1      44.288 -20.127   4.571  1.00  0.00    -0.272 NA
HETATM   26  C   UNL     1      43.987 -20.963   3.559  1.00  0.00     0.116 A 
HETATM   27  C   UNL     1      43.448 -20.541   2.356  1.00  0.00     0.020 A 
HETATM   28  C   UNL     1      43.207 -19.178   2.179  1.00  0.00     0.015 A 
ENDBRANCH  20  23
ENDBRANCH  16  17
ENDBRANCH   1  16
TORSDOF 6
ENDMDL
MODEL 7
REMARK VINA RESULT:      -8.0      1.651      2.184
REMARK  6 active torsions:
REMARK  status: ('A' for Active; 'I' for Inactive)
REMARK    1  A    between atoms: C_4  and  C_5 
REMARK    2  A    between atoms: C_5  and  N_6 
REMARK    3  A    between atoms: C_5  and  C_22 
REMARK    4  A    between atoms: N_6  and  C_9 
REMARK    5  A    between atoms: C_9  and  C_10 
REMARK    6  A    between atoms: C_13  and  C_14 
REMARK       I    between atoms: C_22  and  N_23 
ROOT
HETATM    1  N   UNL     1      41.370 -13.173   0.498  1.00  0.00    -0.054 N 
HETATM    2  H   UNL     1      41.302 -14.123   0.117  1.00  0.00     0.278 HD
HETATM    3  H   UNL     1      42.092 -12.684  -0.049  1.00  0.00     0.278 HD
ENDROOT
BRANCH   1   4
HETATM    4  C   UNL     1      40.083 -12.417   0.258  1.00  0.00     0.310 C 
BRANCH   4   5
HETATM    5  C   UNL     1      39.334 -13.029  -0.908  1.00  0.00    -0.019 A 
HETATM    6  C   UNL     1      38.162 -12.422  -1.388  1.00  0.00     0.010 A 
HETATM    7  C   UNL     1      37.461 -12.987  -2.456  1.00  0.00     0.001 A 
HETATM    8  C   UNL     1      37.915 -14.164  -3.048  1.00  0.00     0.000 A 
HETATM    9  C   UNL     1      39.069 -14.780  -2.575  1.00  0.00     0.001 A 
HETATM   10  C   UNL     1      39.776 -14.221  -1.510  1.00  0.00     0.010 A 
ENDBRANCH   4   5
BRANCH   4  11
HETATM   11  C   UNL     1      40.381 -10.917   0.017  1.00  0.00     0.251 C 
HETATM   12  N   UNL     1      39.763 -10.008   0.821  1.00  0.00    -0.368 N 
HETATM   13  H   UNL     1      38.909 -10.208   1.330  1.00  0.00     0.159 HD
HETATM   14  H   UNL     1      39.920  -9.026   0.607  1.00  0.00     0.159 HD
HETATM   15  O   UNL     1      41.185 -10.571  -0.847  1.00  0.00    -0.271 OA
ENDBRANCH   4  11
ENDBRANCH   1   4
BRANCH   1  16
HETATM   16  C   UNL     1      41.828 -13.216   1.914  1.00  0.00     0.272 C 
BRANCH  16  17
HETATM   17  C   UNL     1      42.286 -14.589   2.321  1.00  0.00    -0.033 A 
HETATM   18  C   UNL     1      41.881 -15.159   3.536  1.00  0.00     0.010 A 
HETATM   19  C   UNL     1      42.288 -16.451   3.889  1.00  0.00     0.013 A 
HETATM   20  C   UNL     1      43.089 -17.227   3.036  1.00  0.00    -0.025 A 
HETATM   21  C   UNL     1      43.482 -16.649   1.818  1.00  0.00     0.013 A 
HETATM   22  C   UNL     1      43.091 -15.351   1.465  1.00  0.00     0.010 A 
BRANCH  20  23
HETATM   23  C   UNL     1      43.479 -18.605   3.392  1.00  0.00    -0.008 A 
HETATM   24  C   UNL     1      43.380 -19.661   2.482  1.00  0.00     0.128 A 
HETATM   25  N   UNL     1      43.720 -20.947   2.739  1.00  0.00    -0.272 NA
HETATM   26  C   UNL     1      44.197 -21.213   3.971  1.00  0.00     0.116 A 
HETATM   27  C   UNL     1      44.347 -20.251   4.954  1.00  0.00     0.020 A 
HETATM   28  C   UNL     1      43.981 -18.937   4.659  1.00  0.00     0.015 A 
ENDBRANCH  20  23
ENDBRANCH  16  17
ENDBRANCH   1  16
TORSDOF 6
ENDMDL
MODEL 8
REMARK VINA RESULT:      -7.9      4.043      6.538
REMARK  6 active torsions:
REMARK  status: ('A' for Active; 'I' for Inactive)
REMARK    1  A    between atoms: C_4  and  C_5 
REMARK    2  A    between atoms: C_5  and  N_6 
REMARK    3  A    between atoms: C_5  and  C_22 
REMARK    4  A    between atoms: N_6  and  C_9 
REMARK    5  A    between atoms: C_9  and  C_10 
REMARK    6  A    between atoms: C_13  and  C_14 
REMARK       I    between atoms: C_22  and  N_23 
ROOT
HETATM    1  N   UNL     1      42.921 -12.730   6.938  1.00  0.00    -0.054 N 
HETATM    2  H   UNL     1      43.228 -13.474   7.574  1.00  0.00     0.278 HD
HETATM    3  H   UNL     1      42.409 -12.043   7.507  1.00  0.00     0.278 HD
ENDROOT
BRANCH   1   4
HETATM    4  C   UNL     1      44.115 -11.994   6.374  1.00  0.00     0.310 C 
BRANCH   4   5
HETATM    5  C   UNL     1      44.683 -11.054   7.417  1.00  0.00    -0.019 A 
HETATM    6  C   UNL     1      43.976 -10.810   8.605  1.00  0.00     0.010 A 
HETATM    7  C   UNL     1      44.489  -9.936   9.566  1.00  0.00     0.001 A 
HETATM    8  C   UNL     1      45.704  -9.290   9.348  1.00  0.00     0.000 A 
HETATM    9  C   UNL     1      46.410  -9.515   8.170  1.00  0.00     0.001 A 
HETATM   10  C   UNL     1      45.904 -10.389   7.206  1.00  0.00     0.010 A 
ENDBRANCH   4   5
BRANCH   4  11
HETATM   11  C   UNL     1      43.715 -11.236   5.085  1.00  0.00     0.251 C 
HETATM   12  N   UNL     1      42.710 -10.321   5.169  1.00  0.00    -0.368 N 
HETATM   13  H   UNL     1      42.012 -10.332   5.905  1.00  0.00     0.159 HD
HETATM   14  H   UNL     1      42.417  -9.880   4.301  1.00  0.00     0.159 HD
HETATM   15  O   UNL     1      44.322 -11.429   4.032  1.00  0.00    -0.271 OA
ENDBRANCH   4  11
ENDBRANCH   1   4
BRANCH   1  16
HETATM   16  C   UNL     1      41.974 -13.274   5.927  1.00  0.00     0.272 C 
BRANCH  16  17
HETATM   17  C   UNL     1      42.398 -14.626   5.421  1.00  0.00    -0.033 A 
HETATM   18  C   UNL     1      42.348 -15.758   6.246  1.00  0.00     0.010 A 
HETATM   19  C   UNL     1      42.714 -17.016   5.754  1.00  0.00     0.013 A 
HETATM   20  C   UNL     1      43.116 -17.194   4.420  1.00  0.00    -0.025 A 
HETATM   21  C   UNL     1      43.155 -16.054   3.601  1.00  0.00     0.013 A 
HETATM   22  C   UNL     1      42.804 -14.789   4.090  1.00  0.00     0.010 A 
BRANCH  20  23
HETATM   23  C   UNL     1      43.459 -18.529   3.893  1.00  0.00    -0.008 A 
HETATM   24  C   UNL     1      43.928 -19.553   4.720  1.00  0.00     0.128 A 
HETATM   25  N   UNL     1      44.261 -20.799   4.307  1.00  0.00    -0.272 NA
HETATM   26  C   UNL     1      44.116 -21.061   2.993  1.00  0.00     0.116 A 
HETATM   27  C   UNL     1      43.655 -20.132   2.077  1.00  0.00     0.020 A 
HETATM   28  C   UNL     1      43.328 -18.855   2.535  1.00  0.00     0.015 A 
ENDBRANCH  20  23
ENDBRANCH  16  17
ENDBRANCH   1  16
TORSDOF 6
ENDMDL
MODEL 9
REMARK VINA RESULT:      -7.5     14.300     16.417
REMARK  6 active torsions:
REMARK  status: ('A' for Active; 'I' for Inactive)
REMARK    1  A    between atoms: C_4  and  C_5 
REMARK    2  A    between atoms: C_5  and  N_6 
REMARK    3  A    between atoms: C_5  and  C_22 
REMARK    4  A    between atoms: N_6  and  C_9 
REMARK    5  A    between atoms: C_9  and  C_10 
REMARK    6  A    between atoms: C_13  and  C_14 
REMARK       I    between atoms: C_22  and  N_23 
ROOT
HETATM    1  N   UNL     1      45.451 -28.373   0.898  1.00  0.00    -0.054 N 
HETATM    2  H   UNL     1      45.821 -27.740   0.180  1.00  0.00     0.278 HD
HETATM    3  H   UNL     1      44.716 -27.858   1.400  1.00  0.00     0.278 HD
ENDROOT
BRANCH   1   4
HETATM    4  C   UNL     1      44.766 -29.555   0.253  1.00  0.00     0.310 C 
BRANCH   4   5
HETATM    5  C   UNL     1      44.697 -29.357  -1.248  1.00  0.00    -0.019 A 
HETATM    6  C   UNL     1      45.111 -28.142  -1.817  1.00  0.00     0.010 A 
HETATM    7  C   UNL     1      45.041 -27.950  -3.199  1.00  0.00     0.001 A 
HETATM    8  C   UNL     1      44.549 -28.960  -4.023  1.00  0.00     0.000 A 
HETATM    9  C   UNL     1      44.125 -30.165  -3.470  1.00  0.00     0.001 A 
HETATM   10  C   UNL     1      44.195 -30.365  -2.091  1.00  0.00     0.010 A 
ENDBRANCH   4   5
BRANCH   4  11
HETATM   11  C   UNL     1      43.357 -29.754   0.863  1.00  0.00     0.251 C 
HETATM   12  N   UNL     1      42.617 -28.643   1.135  1.00  0.00    -0.368 N 
HETATM   13  H   UNL     1      43.026 -27.724   1.268  1.00  0.00     0.159 HD
HETATM   14  H   UNL     1      41.722 -28.789   1.595  1.00  0.00     0.159 HD
HETATM   15  O   UNL     1      42.911 -30.885   1.052  1.00  0.00    -0.271 OA
ENDBRANCH   4  11
ENDBRANCH   1   4
BRANCH   1  16
HETATM   16  C   UNL     1      46.515 -28.714   1.882  1.00  0.00     0.272 C 
BRANCH  16  17
HETATM   17  C   UNL     1      47.727 -29.316   1.223  1.00  0.00    -0.033 A 
HETATM   18  C   UNL     1      48.417 -30.385   1.811  1.00  0.00     0.010 A 
HETATM   19  C   UNL     1      49.523 -30.958   1.173  1.00  0.00     0.013 A 
HETATM   20  C   UNL     1      49.963 -30.504  -0.082  1.00  0.00    -0.025 A 
HETATM   21  C   UNL     1      49.259 -29.438  -0.664  1.00  0.00     0.013 A 
HETATM   22  C   UNL     1      48.160 -28.850  -0.025  1.00  0.00     0.010 A 
BRANCH  20  23
HETATM   23  C   UNL     1      51.102 -31.139  -0.771  1.00  0.00    -0.008 A 
HETATM   24  C   UNL     1      51.465 -30.790  -2.075  1.00  0.00     0.128 A 
HETATM   25  N   UNL     1      52.496 -31.330  -2.769  1.00  0.00    -0.272 NA
HETATM   26  C   UNL     1      53.227 -32.268  -2.136  1.00  0.00     0.116 A 
HETATM   27  C   UNL     1      52.969 -32.691  -0.844  1.00  0.00     0.020 A 
HETATM   28  C   UNL     1      51.895 -32.121  -0.160  1.00  0.00     0.015 A 
ENDBRANCH  20  23
ENDBRANCH  16  17
ENDBRANCH   1  16
TORSDOF 6
ENDMDL
MODEL 10
REMARK VINA RESULT:      -7.5      3.622      5.772
REMARK  6 active torsions:
REMARK  status: ('A' for Active; 'I' for Inactive)
REMARK    1  A    between atoms: C_4  and  C_5 
REMARK    2  A    between atoms: C_5  and  N_6 
REMARK    3  A    between atoms: C_5  and  C_22 
REMARK    4  A    between atoms: N_6  and  C_9 
REMARK    5  A    between atoms: C_9  and  C_10 
REMARK    6  A    between atoms: C_13  and  C_14 
REMARK       I    between atoms: C_22  and  N_23 
ROOT
HETATM    1  N   UNL     1      40.668 -11.510   6.600  1.00  0.00    -0.054 N 
HETATM    2  H   UNL     1      41.128 -11.871   7.443  1.00  0.00     0.278 HD
HETATM    3  H   UNL     1      40.057 -10.739   6.900  1.00  0.00     0.278 HD
ENDROOT
BRANCH   1   4
HETATM    4  C   UNL     1      41.687 -10.895   5.668  1.00  0.00     0.310 C 
BRANCH   4   5
HETATM    5  C   UNL     1      43.052 -10.894   6.324  1.00  0.00    -0.019 A 
HETATM    6  C   UNL     1      44.098 -11.652   5.773  1.00  0.00     0.010 A 
HETATM    7  C   UNL     1      45.357 -11.663   6.379  1.00  0.00     0.001 A 
HETATM    8  C   UNL     1      45.582 -10.929   7.541  1.00  0.00     0.000 A 
HETATM    9  C   UNL     1      44.551 -10.181   8.103  1.00  0.00     0.001 A 
HETATM   10  C   UNL     1      43.291 -10.164   7.502  1.00  0.00     0.010 A 
ENDBRANCH   4   5
BRANCH   4  11
HETATM   11  C   UNL     1      41.249  -9.465   5.267  1.00  0.00     0.251 C 
HETATM   12  N   UNL     1      41.808  -8.917   4.152  1.00  0.00    -0.368 N 
HETATM   13  H   UNL     1      42.692  -9.230   3.765  1.00  0.00     0.159 HD
HETATM   14  H   UNL     1      41.558  -7.954   3.940  1.00  0.00     0.159 HD
HETATM   15  O   UNL     1      40.391  -8.868   5.916  1.00  0.00    -0.271 OA
ENDBRANCH   4  11
ENDBRANCH   1   4
BRANCH   1  16
HETATM   16  C   UNL     1      39.805 -12.561   5.993  1.00  0.00     0.272 C 
BRANCH  16  17
HETATM   17  C   UNL     1      40.606 -13.716   5.458  1.00  0.00    -0.033 A 
HETATM   18  C   UNL     1      41.376 -14.520   6.309  1.00  0.00     0.010 A 
HETATM   19  C   UNL     1      42.091 -15.613   5.804  1.00  0.00     0.013 A 
HETATM   20  C   UNL     1      42.043 -15.955   4.442  1.00  0.00    -0.025 A 
HETATM   21  C   UNL     1      41.262 -15.146   3.602  1.00  0.00     0.013 A 
HETATM   22  C   UNL     1      40.556 -14.043   4.097  1.00  0.00     0.010 A 
BRANCH  20  23
HETATM   23  C   UNL     1      42.763 -17.133   3.921  1.00  0.00    -0.008 A 
HETATM   24  C   UNL     1      43.715 -17.815   4.684  1.00  0.00     0.128 A 
HETATM   25  N   UNL     1      44.413 -18.901   4.272  1.00  0.00    -0.272 NA
HETATM   26  C   UNL     1      44.152 -19.353   3.029  1.00  0.00     0.116 A 
HETATM   27  C   UNL     1      43.228 -18.765   2.183  1.00  0.00     0.020 A 
HETATM   28  C   UNL     1      42.532 -17.644   2.636  1.00  0.00     0.015 A 
ENDBRANCH  20  23
ENDBRANCH  16  17
ENDBRANCH   1  16
TORSDOF 6
ENDMDL
