MODEL 1
REMARK VINA RESULT:      -9.1      0.000      0.000
REMARK  2 active torsions:
REMARK  status: ('A' for Active; 'I' for Inactive)
REMARK    1  A    between atoms: C_2  and  N_3 
REMARK    2  A    between atoms: N_3  and  C_4 
ROOT
HETATM    1  C   UNL     1      41.793 -13.938   4.636  1.00  0.00     0.143 A 
HETATM    2  N   UNL     1      42.016 -12.774   5.295  1.00  0.00    -0.223 NA
HETATM    3  C   UNL     1      42.916 -12.729   6.282  1.00  0.00     0.236 A 
HETATM    4  N   UNL     1      43.654 -13.734   6.740  1.00  0.00    -0.234 NA
HETATM    5  C   UNL     1      43.447 -14.872   6.061  1.00  0.00     0.114 A 
HETATM    6  C   UNL     1      42.585 -15.067   4.990  1.00  0.00     0.053 A 
HETATM    7  S   UNL     1      44.274 -16.280   6.520  1.00  0.00    -0.073 SA
HETATM    8  C   UNL     1      43.556 -17.194   5.274  1.00  0.00    -0.008 C 
HETATM    9  C   UNL     1      42.727 -16.427   4.466  1.00  0.00    -0.028 C 
HETATM   10  C   UNL     1      42.090 -16.980   3.218  1.00  0.00     0.041 C 
HETATM   11  C   UNL     1      43.096 -17.589   2.234  1.00  0.00     0.005 C 
HETATM   12  C   UNL     1      43.614 -18.973   2.624  1.00  0.00     0.001 C 
HETATM   13  C   UNL     1      44.561 -18.988   3.824  1.00  0.00     0.005 C 
HETATM   14  C   UNL     1      43.879 -18.654   5.150  1.00  0.00     0.047 C 
ENDROOT
BRANCH   1  15
HETATM   15  N   UNL     1      40.750 -14.022   3.696  1.00  0.00    -0.340 N 
HETATM   16  H   UNL     1      39.847 -14.027   4.148  1.00  0.00     0.167 HD
BRANCH  15  17
HETATM   17  C   UNL     1      40.687 -13.645   2.340  1.00  0.00     0.036 A 
HETATM   18  C   UNL     1      41.223 -12.451   1.842  1.00  0.00     0.032 A 
HETATM   19  C   UNL     1      41.158 -12.138   0.480  1.00  0.00     0.042 A 
HETATM   20  C   UNL     1      40.572 -13.028  -0.412  1.00  0.00     0.102 A 
HETATM   21  C   UNL     1      40.033 -14.225   0.063  1.00  0.00     0.104 A 
HETATM   22  O   UNL     1      40.556 -12.666  -1.733  1.00  0.00    -0.346 OA
HETATM   23  C   UNL     1      40.111 -14.539   1.421  1.00  0.00     0.069 A 
HETATM   24  O   UNL     1      39.417 -15.145  -0.748  1.00  0.00    -0.346 OA
HETATM   25  C   UNL     1      39.078 -14.573  -2.017  1.00  0.00     0.202 C 
HETATM   26  C   UNL     1      40.249 -13.781  -2.577  1.00  0.00     0.202 C 
ENDBRANCH  15  17
ENDBRANCH   1  15
TORSDOF 2
ENDMDL
MODEL 2
REMARK VINA RESULT:      -8.8      0.818      1.585
REMARK  2 active torsions:
REMARK  status: ('A' for Active; 'I' for Inactive)
REMARK    1  A    between atoms: C_2  and  N_3 
REMARK    2  A    between atoms: N_3  and  C_4 
ROOT
HETATM    1  C   UNL     1      41.489 -14.023   4.413  1.00  0.00     0.143 A 
HETATM    2  N   UNL     1      41.633 -12.805   4.990  1.00  0.00    -0.223 NA
HETATM    3  C   UNL     1      42.534 -12.631   5.962  1.00  0.00     0.236 A 
HETATM    4  N   UNL     1      43.346 -13.549   6.476  1.00  0.00    -0.234 NA
HETATM    5  C   UNL     1      43.216 -14.742   5.876  1.00  0.00     0.114 A 
HETATM    6  C   UNL     1      42.362 -15.068   4.830  1.00  0.00     0.053 A 
HETATM    7  S   UNL     1      44.144 -16.054   6.417  1.00  0.00    -0.073 SA
HETATM    8  C   UNL     1      43.485 -17.097   5.242  1.00  0.00    -0.008 C 
HETATM    9  C   UNL     1      42.597 -16.446   4.395  1.00  0.00    -0.028 C 
HETATM   10  C   UNL     1      41.993 -17.124   3.193  1.00  0.00     0.041 C 
HETATM   11  C   UNL     1      43.032 -17.724   2.240  1.00  0.00     0.005 C 
HETATM   12  C   UNL     1      43.650 -19.039   2.714  1.00  0.00     0.001 C 
HETATM   13  C   UNL     1      44.604 -18.908   3.901  1.00  0.00     0.005 C 
HETATM   14  C   UNL     1      43.910 -18.535   5.209  1.00  0.00     0.047 C 
ENDROOT
BRANCH   1  15
HETATM   15  N   UNL     1      40.448 -14.243   3.492  1.00  0.00    -0.340 N 
HETATM   16  H   UNL     1      39.544 -14.154   3.932  1.00  0.00     0.167 HD
BRANCH  15  17
HETATM   17  C   UNL     1      40.398 -14.098   2.092  1.00  0.00     0.036 A 
HETATM   18  C   UNL     1      39.965 -15.108   1.224  1.00  0.00     0.032 A 
HETATM   19  C   UNL     1      39.906 -14.903  -0.159  1.00  0.00     0.042 A 
HETATM   20  C   UNL     1      40.262 -13.670  -0.695  1.00  0.00     0.102 A 
HETATM   21  C   UNL     1      40.696 -12.650   0.152  1.00  0.00     0.104 A 
HETATM   22  O   UNL     1      40.167 -13.533  -2.055  1.00  0.00    -0.346 OA
HETATM   23  C   UNL     1      40.740 -12.855   1.532  1.00  0.00     0.069 A 
HETATM   24  O   UNL     1      41.087 -11.414  -0.300  1.00  0.00    -0.346 OA
HETATM   25  C   UNL     1      41.343 -11.435  -1.709  1.00  0.00     0.202 C 
HETATM   26  C   UNL     1      40.226 -12.156  -2.446  1.00  0.00     0.202 C 
ENDBRANCH  15  17
ENDBRANCH   1  15
TORSDOF 2
ENDMDL
MODEL 3
REMARK VINA RESULT:      -8.4      3.107      6.759
REMARK  2 active torsions:
REMARK  status: ('A' for Active; 'I' for Inactive)
REMARK    1  A    between atoms: C_2  and  N_3 
REMARK    2  A    between atoms: N_3  and  C_4 
ROOT
HETATM    1  C   UNL     1      41.017 -14.038   2.991  1.00  0.00     0.143 A 
HETATM    2  N   UNL     1      40.898 -13.884   4.333  1.00  0.00    -0.223 NA
HETATM    3  C   UNL     1      40.004 -13.023   4.827  1.00  0.00     0.236 A 
HETATM    4  N   UNL     1      39.178 -12.242   4.140  1.00  0.00    -0.234 NA
HETATM    5  C   UNL     1      39.284 -12.425   2.815  1.00  0.00     0.114 A 
HETATM    6  C   UNL     1      40.128 -13.307   2.154  1.00  0.00     0.053 A 
HETATM    7  S   UNL     1      38.335 -11.491   1.765  1.00  0.00    -0.073 SA
HETATM    8  C   UNL     1      38.970 -12.265   0.387  1.00  0.00    -0.008 C 
HETATM    9  C   UNL     1      39.865 -13.275   0.713  1.00  0.00    -0.028 C 
HETATM   10  C   UNL     1      40.452 -14.193  -0.328  1.00  0.00     0.041 C 
HETATM   11  C   UNL     1      39.398 -14.904  -1.184  1.00  0.00     0.005 C 
HETATM   12  C   UNL     1      38.758 -14.032  -2.264  1.00  0.00     0.001 C 
HETATM   13  C   UNL     1      37.812 -12.952  -1.739  1.00  0.00     0.005 C 
HETATM   14  C   UNL     1      38.518 -11.833  -0.977  1.00  0.00     0.047 C 
ENDROOT
BRANCH   1  15
HETATM   15  N   UNL     1      42.050 -14.836   2.467  1.00  0.00    -0.340 N 
HETATM   16  H   UNL     1      42.643 -14.308   1.842  1.00  0.00     0.167 HD
BRANCH  15  17
HETATM   17  C   UNL     1      42.669 -16.001   2.963  1.00  0.00     0.036 A 
HETATM   18  C   UNL     1      43.384 -16.045   4.165  1.00  0.00     0.032 A 
HETATM   19  C   UNL     1      43.957 -17.236   4.628  1.00  0.00     0.042 A 
HETATM   20  C   UNL     1      43.804 -18.410   3.899  1.00  0.00     0.102 A 
HETATM   21  C   UNL     1      43.094 -18.388   2.698  1.00  0.00     0.104 A 
HETATM   22  O   UNL     1      44.377 -19.542   4.417  1.00  0.00    -0.346 OA
HETATM   23  C   UNL     1      42.514 -17.201   2.248  1.00  0.00     0.069 A 
HETATM   24  O   UNL     1      42.919 -19.498   1.909  1.00  0.00    -0.346 OA
HETATM   25  C   UNL     1      43.834 -20.539   2.268  1.00  0.00     0.202 C 
HETATM   26  C   UNL     1      43.874 -20.720   3.777  1.00  0.00     0.202 C 
ENDBRANCH  15  17
ENDBRANCH   1  15
TORSDOF 2
ENDMDL
MODEL 4
REMARK VINA RESULT:      -8.4      3.513      6.832
REMARK  2 active torsions:
REMARK  status: ('A' for Active; 'I' for Inactive)
REMARK    1  A    between atoms: C_2  and  N_3 
REMARK    2  A    between atoms: N_3  and  C_4 
ROOT
HETATM    1  C   UNL     1      39.425 -13.282   2.684  1.00  0.00     0.143 A 
HETATM    2  N   UNL     1      39.106 -12.533   3.768  1.00  0.00    -0.223 NA
HETATM    3  C   UNL     1      39.199 -11.201   3.707  1.00  0.00     0.236 A 
HETATM    4  N   UNL     1      39.597 -10.472   2.671  1.00  0.00    -0.234 NA
HETATM    5  C   UNL     1      39.881 -11.222   1.595  1.00  0.00     0.114 A 
HETATM    6  C   UNL     1      39.793 -12.604   1.488  1.00  0.00     0.053 A 
HETATM    7  S   UNL     1      40.442 -10.475   0.180  1.00  0.00    -0.073 SA
HETATM    8  C   UNL     1      40.537 -11.958  -0.651  1.00  0.00    -0.008 C 
HETATM    9  C   UNL     1      40.093 -13.025   0.118  1.00  0.00    -0.028 C 
HETATM   10  C   UNL     1      39.952 -14.416  -0.445  1.00  0.00     0.041 C 
HETATM   11  C   UNL     1      39.076 -14.483  -1.701  1.00  0.00     0.005 C 
HETATM   12  C   UNL     1      39.756 -13.996  -2.981  1.00  0.00     0.001 C 
HETATM   13  C   UNL     1      39.988 -12.486  -3.049  1.00  0.00     0.005 C 
HETATM   14  C   UNL     1      41.041 -11.981  -2.064  1.00  0.00     0.047 C 
ENDROOT
BRANCH   1  15
HETATM   15  N   UNL     1      39.464 -14.685   2.790  1.00  0.00    -0.340 N 
HETATM   16  H   UNL     1      38.732 -15.115   2.243  1.00  0.00     0.167 HD
BRANCH  15  17
HETATM   17  C   UNL     1      40.521 -15.566   3.090  1.00  0.00     0.036 A 
HETATM   18  C   UNL     1      41.200 -16.318   2.123  1.00  0.00     0.032 A 
HETATM   19  C   UNL     1      42.264 -17.159   2.470  1.00  0.00     0.042 A 
HETATM   20  C   UNL     1      42.679 -17.245   3.794  1.00  0.00     0.102 A 
HETATM   21  C   UNL     1      42.016 -16.504   4.774  1.00  0.00     0.104 A 
HETATM   22  O   UNL     1      43.735 -18.075   4.062  1.00  0.00    -0.346 OA
HETATM   23  C   UNL     1      40.965 -15.656   4.421  1.00  0.00     0.069 A 
HETATM   24  O   UNL     1      42.349 -16.551   6.105  1.00  0.00    -0.346 OA
HETATM   25  C   UNL     1      43.169 -17.689   6.394  1.00  0.00     0.202 C 
HETATM   26  C   UNL     1      44.279 -17.825   5.363  1.00  0.00     0.202 C 
ENDBRANCH  15  17
ENDBRANCH   1  15
TORSDOF 2
ENDMDL
MODEL 5
REMARK VINA RESULT:      -8.0      3.925      6.605
REMARK  2 active torsions:
REMARK  status: ('A' for Active; 'I' for Inactive)
REMARK    1  A    between atoms: C_2  and  N_3 
REMARK    2  A    between atoms: N_3  and  C_4 
ROOT
HETATM    1  C   UNL     1      40.436 -12.870   4.379  1.00  0.00     0.143 A 
HETATM    2  N   UNL     1      39.383 -12.086   4.041  1.00  0.00    -0.223 NA
HETATM    3  C   UNL     1      38.929 -12.086   2.784  1.00  0.00     0.236 A 
HETATM    4  N   UNL     1      39.407 -12.782   1.759  1.00  0.00    -0.234 NA
HETATM    5  C   UNL     1      40.429 -13.577   2.112  1.00  0.00     0.114 A 
HETATM    6  C   UNL     1      40.984 -13.720   3.377  1.00  0.00     0.053 A 
HETATM    7  S   UNL     1      41.200 -14.520   0.931  1.00  0.00    -0.073 SA
HETATM    8  C   UNL     1      42.268 -15.200   2.070  1.00  0.00    -0.008 C 
HETATM    9  C   UNL     1      42.015 -14.761   3.363  1.00  0.00    -0.028 C 
HETATM   10  C   UNL     1      42.737 -15.326   4.558  1.00  0.00     0.041 C 
HETATM   11  C   UNL     1      42.641 -16.852   4.667  1.00  0.00     0.005 C 
HETATM   12  C   UNL     1      43.552 -17.620   3.710  1.00  0.00     0.001 C 
HETATM   13  C   UNL     1      43.138 -17.555   2.240  1.00  0.00     0.005 C 
HETATM   14  C   UNL     1      43.313 -16.175   1.612  1.00  0.00     0.047 C 
ENDROOT
BRANCH   1  15
HETATM   15  N   UNL     1      41.003 -12.766   5.662  1.00  0.00    -0.340 N 
HETATM   16  H   UNL     1      41.104 -13.673   6.094  1.00  0.00     0.167 HD
BRANCH  15  17
HETATM   17  C   UNL     1      41.837 -11.786   6.234  1.00  0.00     0.036 A 
HETATM   18  C   UNL     1      41.403 -10.496   6.562  1.00  0.00     0.032 A 
HETATM   19  C   UNL     1      42.265  -9.567   7.156  1.00  0.00     0.042 A 
HETATM   20  C   UNL     1      43.576  -9.924   7.451  1.00  0.00     0.102 A 
HETATM   21  C   UNL     1      44.029 -11.206   7.133  1.00  0.00     0.104 A 
HETATM   22  O   UNL     1      44.361  -8.973   8.046  1.00  0.00    -0.346 OA
HETATM   23  C   UNL     1      43.161 -12.133   6.553  1.00  0.00     0.069 A 
HETATM   24  O   UNL     1      45.314 -11.628   7.370  1.00  0.00    -0.346 OA
HETATM   25  C   UNL     1      46.186 -10.520   7.620  1.00  0.00     0.202 C 
HETATM   26  C   UNL     1      45.549  -9.548   8.601  1.00  0.00     0.202 C 
ENDBRANCH  15  17
ENDBRANCH   1  15
TORSDOF 2
ENDMDL
MODEL 6
REMARK VINA RESULT:      -7.9      4.229      7.145
REMARK  2 active torsions:
REMARK  status: ('A' for Active; 'I' for Inactive)
REMARK    1  A    between atoms: C_2  and  N_3 
REMARK    2  A    between atoms: N_3  and  C_4 
ROOT
HETATM    1  C   UNL     1      42.929 -11.787   3.224  1.00  0.00     0.143 A 
HETATM    2  N   UNL     1      42.581 -10.834   2.326  1.00  0.00    -0.223 NA
HETATM    3  C   UNL     1      41.519 -11.019   1.536  1.00  0.00     0.236 A 
HETATM    4  N   UNL     1      40.720 -12.080   1.502  1.00  0.00    -0.234 NA
HETATM    5  C   UNL     1      41.057 -13.003   2.415  1.00  0.00     0.114 A 
HETATM    6  C   UNL     1      42.099 -12.939   3.331  1.00  0.00     0.053 A 
HETATM    7  S   UNL     1      40.176 -14.450   2.504  1.00  0.00    -0.073 SA
HETATM    8  C   UNL     1      41.114 -15.025   3.805  1.00  0.00    -0.008 C 
HETATM    9  C   UNL     1      42.067 -14.103   4.219  1.00  0.00    -0.028 C 
HETATM   10  C   UNL     1      42.922 -14.327   5.438  1.00  0.00     0.041 C 
HETATM   11  C   UNL     1      42.115 -14.612   6.710  1.00  0.00     0.005 C 
HETATM   12  C   UNL     1      41.550 -16.029   6.804  1.00  0.00     0.001 C 
HETATM   13  C   UNL     1      40.404 -16.327   5.837  1.00  0.00     0.005 C 
HETATM   14  C   UNL     1      40.833 -16.385   4.373  1.00  0.00     0.047 C 
ENDROOT
BRANCH   1  15
HETATM   15  N   UNL     1      44.125 -11.657   3.954  1.00  0.00    -0.340 N 
HETATM   16  H   UNL     1      44.909 -11.468   3.346  1.00  0.00     0.167 HD
BRANCH  15  17
HETATM   17  C   UNL     1      44.362 -11.288   5.293  1.00  0.00     0.036 A 
HETATM   18  C   UNL     1      45.588 -11.477   5.942  1.00  0.00     0.032 A 
HETATM   19  C   UNL     1      45.781 -11.066   7.266  1.00  0.00     0.042 A 
HETATM   20  C   UNL     1      44.751 -10.436   7.956  1.00  0.00     0.102 A 
HETATM   21  C   UNL     1      43.521 -10.237   7.326  1.00  0.00     0.104 A 
HETATM   22  O   UNL     1      45.012 -10.046   9.242  1.00  0.00    -0.346 OA
HETATM   23  C   UNL     1      43.338 -10.637   6.002  1.00  0.00     0.069 A 
HETATM   24  O   UNL     1      42.448  -9.646   7.946  1.00  0.00    -0.346 OA
HETATM   25  C   UNL     1      42.625  -9.609   9.367  1.00  0.00     0.202 C 
HETATM   26  C   UNL     1      44.023  -9.127   9.720  1.00  0.00     0.202 C 
ENDBRANCH  15  17
ENDBRANCH   1  15
TORSDOF 2
ENDMDL
MODEL 7
REMARK VINA RESULT:      -7.9      1.641      2.496
REMARK  2 active torsions:
REMARK  status: ('A' for Active; 'I' for Inactive)
REMARK    1  A    between atoms: C_2  and  N_3 
REMARK    2  A    between atoms: N_3  and  C_4 
ROOT
HETATM    1  C   UNL     1      41.183 -12.375   3.817  1.00  0.00     0.143 A 
HETATM    2  N   UNL     1      41.287 -11.031   3.676  1.00  0.00    -0.223 NA
HETATM    3  C   UNL     1      42.186 -10.353   4.396  1.00  0.00     0.236 A 
HETATM    4  N   UNL     1      43.031 -10.847   5.294  1.00  0.00    -0.234 NA
HETATM    5  C   UNL     1      42.941 -12.181   5.403  1.00  0.00     0.114 A 
HETATM    6  C   UNL     1      42.094 -13.026   4.697  1.00  0.00     0.053 A 
HETATM    7  S   UNL     1      43.916 -12.996   6.525  1.00  0.00    -0.073 SA
HETATM    8  C   UNL     1      43.289 -14.514   6.077  1.00  0.00    -0.008 C 
HETATM    9  C   UNL     1      42.375 -14.423   5.035  1.00  0.00    -0.028 C 
HETATM   10  C   UNL     1      41.789 -15.643   4.373  1.00  0.00     0.041 C 
HETATM   11  C   UNL     1      42.845 -16.622   3.847  1.00  0.00     0.005 C 
HETATM   12  C   UNL     1      43.511 -17.482   4.921  1.00  0.00     0.001 C 
HETATM   13  C   UNL     1      44.465 -16.726   5.846  1.00  0.00     0.005 C 
HETATM   14  C   UNL     1      43.765 -15.748   6.786  1.00  0.00     0.047 C 
ENDROOT
BRANCH   1  15
HETATM   15  N   UNL     1      40.146 -13.069   3.168  1.00  0.00    -0.340 N 
HETATM   16  H   UNL     1      39.268 -12.956   3.653  1.00  0.00     0.167 HD
BRANCH  15  17
HETATM   17  C   UNL     1      39.989 -13.463   1.824  1.00  0.00     0.036 A 
HETATM   18  C   UNL     1      40.124 -14.785   1.384  1.00  0.00     0.032 A 
HETATM   19  C   UNL     1      39.928 -15.128   0.041  1.00  0.00     0.042 A 
HETATM   20  C   UNL     1      39.573 -14.151  -0.882  1.00  0.00     0.102 A 
HETATM   21  C   UNL     1      39.432 -12.827  -0.464  1.00  0.00     0.104 A 
HETATM   22  O   UNL     1      39.383 -14.559  -2.175  1.00  0.00    -0.346 OA
HETATM   23  C   UNL     1      39.615 -12.492   0.879  1.00  0.00     0.069 A 
HETATM   24  O   UNL     1      39.108 -11.801  -1.316  1.00  0.00    -0.346 OA
HETATM   25  C   UNL     1      39.298 -12.184  -2.684  1.00  0.00     0.202 C 
HETATM   26  C   UNL     1      38.703 -13.559  -2.943  1.00  0.00     0.202 C 
ENDBRANCH  15  17
ENDBRANCH   1  15
TORSDOF 2
ENDMDL
MODEL 8
REMARK VINA RESULT:      -7.8      1.855      2.106
REMARK  2 active torsions:
REMARK  status: ('A' for Active; 'I' for Inactive)
REMARK    1  A    between atoms: C_2  and  N_3 
REMARK    2  A    between atoms: N_3  and  C_4 
ROOT
HETATM    1  C   UNL     1      42.552 -13.098   2.502  1.00  0.00     0.143 A 
HETATM    2  N   UNL     1      42.812 -11.788   2.735  1.00  0.00    -0.223 NA
HETATM    3  C   UNL     1      43.234 -11.398   3.942  1.00  0.00     0.236 A 
HETATM    4  N   UNL     1      43.432 -12.165   5.009  1.00  0.00    -0.234 NA
HETATM    5  C   UNL     1      43.201 -13.462   4.757  1.00  0.00     0.114 A 
HETATM    6  C   UNL     1      42.803 -14.026   3.552  1.00  0.00     0.053 A 
HETATM    7  S   UNL     1      43.365 -14.597   6.006  1.00  0.00    -0.073 SA
HETATM    8  C   UNL     1      42.966 -15.894   4.977  1.00  0.00    -0.008 C 
HETATM    9  C   UNL     1      42.759 -15.486   3.666  1.00  0.00    -0.028 C 
HETATM   10  C   UNL     1      42.530 -16.467   2.546  1.00  0.00     0.041 C 
HETATM   11  C   UNL     1      43.630 -17.529   2.427  1.00  0.00     0.005 C 
HETATM   12  C   UNL     1      43.556 -18.645   3.468  1.00  0.00     0.001 C 
HETATM   13  C   UNL     1      43.920 -18.221   4.891  1.00  0.00     0.005 C 
HETATM   14  C   UNL     1      42.899 -17.286   5.534  1.00  0.00     0.047 C 
ENDROOT
BRANCH   1  15
HETATM   15  N   UNL     1      41.975 -13.490   1.280  1.00  0.00    -0.340 N 
HETATM   16  H   UNL     1      42.288 -14.409   1.003  1.00  0.00     0.167 HD
BRANCH  15  17
HETATM   17  C   UNL     1      40.776 -13.103   0.650  1.00  0.00     0.036 A 
HETATM   18  C   UNL     1      39.912 -12.127   1.163  1.00  0.00     0.032 A 
HETATM   19  C   UNL     1      38.746 -11.758   0.483  1.00  0.00     0.042 A 
HETATM   20  C   UNL     1      38.435 -12.349  -0.737  1.00  0.00     0.102 A 
HETATM   21  C   UNL     1      39.283 -13.323  -1.266  1.00  0.00     0.104 A 
HETATM   22  O   UNL     1      37.287 -11.931  -1.356  1.00  0.00    -0.346 OA
HETATM   23  C   UNL     1      40.452 -13.678  -0.590  1.00  0.00     0.069 A 
HETATM   24  O   UNL     1      39.035 -13.971  -2.451  1.00  0.00    -0.346 OA
HETATM   25  C   UNL     1      37.673 -13.799  -2.860  1.00  0.00     0.202 C 
HETATM   26  C   UNL     1      37.253 -12.345  -2.726  1.00  0.00     0.202 C 
ENDBRANCH  15  17
ENDBRANCH   1  15
TORSDOF 2
ENDMDL
MODEL 9
REMARK VINA RESULT:      -7.7      4.104      6.973
REMARK  2 active torsions:
REMARK  status: ('A' for Active; 'I' for Inactive)
REMARK    1  A    between atoms: C_2  and  N_3 
REMARK    2  A    between atoms: N_3  and  C_4 
ROOT
HETATM    1  C   UNL     1      42.969 -12.727   3.602  1.00  0.00     0.143 A 
HETATM    2  N   UNL     1      42.285 -12.148   2.585  1.00  0.00    -0.223 NA
HETATM    3  C   UNL     1      41.595 -12.907   1.729  1.00  0.00     0.236 A 
HETATM    4  N   UNL     1      41.494 -14.232   1.734  1.00  0.00    -0.234 NA
HETATM    5  C   UNL     1      42.149 -14.792   2.762  1.00  0.00     0.114 A 
HETATM    6  C   UNL     1      42.870 -14.139   3.754  1.00  0.00     0.053 A 
HETATM    7  S   UNL     1      42.168 -16.480   2.921  1.00  0.00    -0.073 SA
HETATM    8  C   UNL     1      43.092 -16.407   4.350  1.00  0.00    -0.008 C 
HETATM    9  C   UNL     1      43.348 -15.102   4.749  1.00  0.00    -0.028 C 
HETATM   10  C   UNL     1      44.026 -14.782   6.055  1.00  0.00     0.041 C 
HETATM   11  C   UNL     1      43.338 -15.407   7.274  1.00  0.00     0.005 C 
HETATM   12  C   UNL     1      43.605 -16.900   7.462  1.00  0.00     0.001 C 
HETATM   13  C   UNL     1      42.927 -17.807   6.434  1.00  0.00     0.005 C 
HETATM   14  C   UNL     1      43.506 -17.681   5.027  1.00  0.00     0.047 C 
ENDROOT
BRANCH   1  15
HETATM   15  N   UNL     1      43.807 -11.945   4.417  1.00  0.00    -0.340 N 
HETATM   16  H   UNL     1      44.543 -11.512   3.879  1.00  0.00     0.167 HD
BRANCH  15  17
HETATM   17  C   UNL     1      43.573 -11.303   5.649  1.00  0.00     0.036 A 
HETATM   18  C   UNL     1      42.403 -10.591   5.941  1.00  0.00     0.032 A 
HETATM   19  C   UNL     1      42.207  -9.995   7.192  1.00  0.00     0.042 A 
HETATM   20  C   UNL     1      43.175 -10.120   8.181  1.00  0.00     0.102 A 
HETATM   21  C   UNL     1      44.348 -10.826   7.912  1.00  0.00     0.104 A 
HETATM   22  O   UNL     1      42.913  -9.525   9.387  1.00  0.00    -0.346 OA
HETATM   23  C   UNL     1      44.533 -11.430   6.667  1.00  0.00     0.069 A 
HETATM   24  O   UNL     1      45.362 -10.974   8.826  1.00  0.00    -0.346 OA
HETATM   25  C   UNL     1      45.231 -10.038   9.902  1.00  0.00     0.202 C 
HETATM   26  C   UNL     1      43.798 -10.000  10.407  1.00  0.00     0.202 C 
ENDBRANCH  15  17
ENDBRANCH   1  15
TORSDOF 2
ENDMDL
MODEL 10
REMARK VINA RESULT:      -7.7      3.802      6.416
REMARK  2 active torsions:
REMARK  status: ('A' for Active; 'I' for Inactive)
REMARK    1  A    between atoms: C_2  and  N_3 
REMARK    2  A    between atoms: N_3  and  C_4 
ROOT
HETATM    1  C   UNL     1      41.034 -10.722   6.339  1.00  0.00     0.143 A 
HETATM    2  N   UNL     1      39.891 -10.104   5.951  1.00  0.00    -0.223 NA
HETATM    3  C   UNL     1      39.681  -8.826   6.280  1.00  0.00     0.236 A 
HETATM    4  N   UNL     1      40.482  -8.038   6.988  1.00  0.00    -0.234 NA
HETATM    5  C   UNL     1      41.622  -8.651   7.340  1.00  0.00     0.114 A 
HETATM    6  C   UNL     1      42.005  -9.951   7.040  1.00  0.00     0.053 A 
HETATM    7  S   UNL     1      42.761  -7.818   8.282  1.00  0.00    -0.073 SA
HETATM    8  C   UNL     1      43.836  -9.140   8.279  1.00  0.00    -0.008 C 
HETATM    9  C   UNL     1      43.365 -10.203   7.520  1.00  0.00    -0.028 C 
HETATM   10  C   UNL     1      44.199 -11.429   7.254  1.00  0.00     0.041 C 
HETATM   11  C   UNL     1      45.567 -11.118   6.636  1.00  0.00     0.005 C 
HETATM   12  C   UNL     1      46.607 -10.583   7.622  1.00  0.00     0.001 C 
HETATM   13  C   UNL     1      46.346  -9.160   8.117  1.00  0.00     0.005 C 
HETATM   14  C   UNL     1      45.130  -9.040   9.032  1.00  0.00     0.047 C 
ENDROOT
BRANCH   1  15
HETATM   15  N   UNL     1      41.194 -12.102   6.117  1.00  0.00    -0.340 N 
HETATM   16  H   UNL     1      40.525 -12.640   6.648  1.00  0.00     0.167 HD
BRANCH  15  17
HETATM   17  C   UNL     1      41.733 -12.813   5.027  1.00  0.00     0.036 A 
HETATM   18  C   UNL     1      42.618 -12.251   4.098  1.00  0.00     0.032 A 
HETATM   19  C   UNL     1      43.148 -13.010   3.048  1.00  0.00     0.042 A 
HETATM   20  C   UNL     1      42.815 -14.354   2.924  1.00  0.00     0.102 A 
HETATM   21  C   UNL     1      41.936 -14.933   3.840  1.00  0.00     0.104 A 
HETATM   22  O   UNL     1      43.381 -15.041   1.883  1.00  0.00    -0.346 OA
HETATM   23  C   UNL     1      41.420 -14.176   4.893  1.00  0.00     0.069 A 
HETATM   24  O   UNL     1      41.539 -16.246   3.772  1.00  0.00    -0.346 OA
HETATM   25  C   UNL     1      41.829 -16.810   2.488  1.00  0.00     0.202 C 
HETATM   26  C   UNL     1      43.242 -16.456   2.054  1.00  0.00     0.202 C 
ENDBRANCH  15  17
ENDBRANCH   1  15
TORSDOF 2
ENDMDL
