MODEL 1
REMARK VINA RESULT:      -8.9      0.000      0.000
REMARK  3 active torsions:
REMARK  status: ('A' for Active; 'I' for Inactive)
REMARK    1  A    between atoms: C_5  and  N_6 
REMARK       I    between atoms: N_6  and  C_7 
REMARK    2  A    between atoms: C_7  and  C_8 
REMARK    3  A    between atoms: C_8  and  N_9 
ROOT
HETATM    1  N   UNL     1      42.610 -16.238   2.704  1.00  0.00    -0.367 N 
HETATM    2  C   UNL     1      43.036 -16.715   3.859  1.00  0.00     0.108 C 
HETATM    3  C   UNL     1      43.377 -18.155   3.988  1.00  0.00     0.014 A 
HETATM    4  C   UNL     1      43.481 -18.717   5.277  1.00  0.00    -0.042 A 
HETATM    5  C   UNL     1      43.787 -20.074   5.444  1.00  0.00     0.008 A 
HETATM    6  C   UNL     1      44.027 -20.874   4.332  1.00  0.00     0.001 A 
HETATM    7  C   UNL     1      43.959 -20.328   3.054  1.00  0.00     0.001 A 
HETATM    8  C   UNL     1      43.638 -18.978   2.881  1.00  0.00     0.016 A 
HETATM    9  C   UNL     1      43.221 -17.846   6.480  1.00  0.00     0.069 C 
HETATM   10  C   UNL     1      43.678 -16.395   6.235  1.00  0.00     0.028 C 
HETATM   11  C   UNL     1      43.074 -15.476   7.304  1.00  0.00     0.038 C 
HETATM   12  C   UNL     1      45.204 -16.250   6.234  1.00  0.00     0.038 C 
HETATM   13  N   UNL     1      43.179 -15.921   4.915  1.00  0.00    -0.367 N 
HETATM   14  H   UNL     1      42.928 -14.949   4.833  1.00  0.00     0.162 HD
HETATM   15  H   UNL     1      42.418 -16.894   1.945  1.00  0.00     0.161 HD
ENDROOT
BRANCH   1  16
HETATM   16  C   UNL     1      42.350 -14.833   2.357  1.00  0.00     0.224 C 
BRANCH  16  17
HETATM   17  C   UNL     1      41.022 -14.791   1.604  1.00  0.00     0.239 C 
HETATM   18  N   UNL     1      41.114 -14.198   0.359  1.00  0.00    -0.326 N 
HETATM   19  H   UNL     1      42.033 -13.993  -0.015  1.00  0.00     0.169 HD
HETATM   20  O   UNL     1      40.027 -15.292   2.125  1.00  0.00    -0.271 OA
BRANCH  18  21
HETATM   21  C   UNL     1      40.051 -13.904  -0.523  1.00  0.00     0.034 A 
HETATM   22  C   UNL     1      39.664 -14.726  -1.580  1.00  0.00     0.030 A 
HETATM   23  C   UNL     1      38.568 -14.379  -2.380  1.00  0.00     0.009 A 
HETATM   24  C   UNL     1      37.849 -13.205  -2.138  1.00  0.00    -0.062 A 
HETATM   25  C   UNL     1      36.670 -12.826  -2.986  1.00  0.00     0.048 C 
HETATM   26  C   UNL     1      38.245 -12.376  -1.085  1.00  0.00     0.009 A 
HETATM   27  C   UNL     1      39.331 -12.726  -0.280  1.00  0.00     0.030 A 
ENDBRANCH  18  21
ENDBRANCH  16  17
ENDBRANCH   1  16
TORSDOF 3
ENDMDL
MODEL 2
REMARK VINA RESULT:      -8.7      4.492      8.050
REMARK  3 active torsions:
REMARK  status: ('A' for Active; 'I' for Inactive)
REMARK    1  A    between atoms: C_5  and  N_6 
REMARK       I    between atoms: N_6  and  C_7 
REMARK    2  A    between atoms: C_7  and  C_8 
REMARK    3  A    between atoms: C_8  and  N_9 
ROOT
HETATM    1  N   UNL     1      42.605 -12.799   6.501  1.00  0.00    -0.367 N 
HETATM    2  C   UNL     1      42.652 -11.552   6.934  1.00  0.00     0.108 C 
HETATM    3  C   UNL     1      43.957 -10.936   7.283  1.00  0.00     0.014 A 
HETATM    4  C   UNL     1      43.969  -9.764   8.066  1.00  0.00    -0.042 A 
HETATM    5  C   UNL     1      45.179  -9.158   8.430  1.00  0.00     0.008 A 
HETATM    6  C   UNL     1      46.385  -9.692   7.987  1.00  0.00     0.001 A 
HETATM    7  C   UNL     1      46.390 -10.831   7.188  1.00  0.00     0.001 A 
HETATM    8  C   UNL     1      45.186 -11.449   6.836  1.00  0.00     0.016 A 
HETATM    9  C   UNL     1      42.661  -9.187   8.542  1.00  0.00     0.069 C 
HETATM   10  C   UNL     1      41.537  -9.412   7.513  1.00  0.00     0.028 C 
HETATM   11  C   UNL     1      40.175  -9.157   8.169  1.00  0.00     0.038 C 
HETATM   12  C   UNL     1      41.686  -8.522   6.274  1.00  0.00     0.038 C 
HETATM   13  N   UNL     1      41.545 -10.828   7.054  1.00  0.00    -0.367 N 
HETATM   14  H   UNL     1      40.657 -11.253   6.837  1.00  0.00     0.162 HD
HETATM   15  H   UNL     1      43.461 -13.355   6.517  1.00  0.00     0.161 HD
ENDROOT
BRANCH   1  16
HETATM   16  C   UNL     1      41.432 -13.526   5.994  1.00  0.00     0.224 C 
BRANCH  16  17
HETATM   17  C   UNL     1      41.857 -14.976   5.776  1.00  0.00     0.239 C 
HETATM   18  N   UNL     1      42.530 -15.180   4.586  1.00  0.00    -0.326 N 
HETATM   19  H   UNL     1      42.824 -14.372   4.050  1.00  0.00     0.169 HD
HETATM   20  O   UNL     1      41.607 -15.807   6.648  1.00  0.00    -0.271 OA
BRANCH  18  21
HETATM   21  C   UNL     1      42.946 -16.416   4.045  1.00  0.00     0.034 A 
HETATM   22  C   UNL     1      43.895 -17.248   4.638  1.00  0.00     0.030 A 
HETATM   23  C   UNL     1      44.216 -18.480   4.056  1.00  0.00     0.009 A 
HETATM   24  C   UNL     1      43.599 -18.895   2.872  1.00  0.00    -0.062 A 
HETATM   25  C   UNL     1      43.931 -20.215   2.242  1.00  0.00     0.048 C 
HETATM   26  C   UNL     1      42.655 -18.055   2.273  1.00  0.00     0.009 A 
HETATM   27  C   UNL     1      42.327 -16.831   2.859  1.00  0.00     0.030 A 
ENDBRANCH  18  21
ENDBRANCH  16  17
ENDBRANCH   1  16
TORSDOF 3
ENDMDL
MODEL 3
REMARK VINA RESULT:      -8.4      3.438      7.783
REMARK  3 active torsions:
REMARK  status: ('A' for Active; 'I' for Inactive)
REMARK    1  A    between atoms: C_5  and  N_6 
REMARK       I    between atoms: N_6  and  C_7 
REMARK    2  A    between atoms: C_7  and  C_8 
REMARK    3  A    between atoms: C_8  and  N_9 
ROOT
HETATM    1  N   UNL     1      41.703 -13.685   6.745  1.00  0.00    -0.367 N 
HETATM    2  C   UNL     1      41.576 -13.067   5.585  1.00  0.00     0.108 C 
HETATM    3  C   UNL     1      40.495 -12.068   5.391  1.00  0.00     0.014 A 
HETATM    4  C   UNL     1      40.146 -11.689   4.078  1.00  0.00    -0.042 A 
HETATM    5  C   UNL     1      39.122 -10.760   3.849  1.00  0.00     0.008 A 
HETATM    6  C   UNL     1      38.462 -10.173   4.924  1.00  0.00     0.001 A 
HETATM    7  C   UNL     1      38.815 -10.513   6.226  1.00  0.00     0.001 A 
HETATM    8  C   UNL     1      39.824 -11.452   6.460  1.00  0.00     0.016 A 
HETATM    9  C   UNL     1      40.865 -12.325   2.916  1.00  0.00     0.069 C 
HETATM   10  C   UNL     1      42.334 -12.635   3.262  1.00  0.00     0.028 C 
HETATM   11  C   UNL     1      42.919 -13.597   2.221  1.00  0.00     0.038 C 
HETATM   12  C   UNL     1      43.199 -11.372   3.340  1.00  0.00     0.038 C 
HETATM   13  N   UNL     1      42.412 -13.316   4.583  1.00  0.00    -0.367 N 
HETATM   14  H   UNL     1      43.133 -14.009   4.709  1.00  0.00     0.162 HD
HETATM   15  H   UNL     1      40.984 -13.543   7.457  1.00  0.00     0.161 HD
ENDROOT
BRANCH   1  16
HETATM   16  C   UNL     1      42.777 -14.600   7.159  1.00  0.00     0.224 C 
BRANCH  16  17
HETATM   17  C   UNL     1      42.567 -15.914   6.411  1.00  0.00     0.239 C 
HETATM   18  N   UNL     1      43.613 -16.243   5.570  1.00  0.00    -0.326 N 
HETATM   19  H   UNL     1      44.470 -15.706   5.628  1.00  0.00     0.169 HD
HETATM   20  O   UNL     1      41.545 -16.564   6.626  1.00  0.00    -0.271 OA
BRANCH  18  21
HETATM   21  C   UNL     1      43.667 -17.323   4.662  1.00  0.00     0.034 A 
HETATM   22  C   UNL     1      44.140 -18.593   4.988  1.00  0.00     0.030 A 
HETATM   23  C   UNL     1      44.117 -19.621   4.038  1.00  0.00     0.009 A 
HETATM   24  C   UNL     1      43.627 -19.392   2.748  1.00  0.00    -0.062 A 
HETATM   25  C   UNL     1      43.592 -20.487   1.723  1.00  0.00     0.048 C 
HETATM   26  C   UNL     1      43.164 -18.115   2.420  1.00  0.00     0.009 A 
HETATM   27  C   UNL     1      43.177 -17.093   3.370  1.00  0.00     0.030 A 
ENDBRANCH  18  21
ENDBRANCH  16  17
ENDBRANCH   1  16
TORSDOF 3
ENDMDL
MODEL 4
REMARK VINA RESULT:      -8.4      5.374      9.320
REMARK  3 active torsions:
REMARK  status: ('A' for Active; 'I' for Inactive)
REMARK    1  A    between atoms: C_5  and  N_6 
REMARK       I    between atoms: N_6  and  C_7 
REMARK    2  A    between atoms: C_7  and  C_8 
REMARK    3  A    between atoms: C_8  and  N_9 
ROOT
HETATM    1  N   UNL     1      43.734 -12.752   6.693  1.00  0.00    -0.367 N 
HETATM    2  C   UNL     1      43.282 -13.558   5.750  1.00  0.00     0.108 C 
HETATM    3  C   UNL     1      43.342 -15.030   5.940  1.00  0.00     0.014 A 
HETATM    4  C   UNL     1      43.199 -15.868   4.815  1.00  0.00    -0.042 A 
HETATM    5  C   UNL     1      43.263 -17.261   4.947  1.00  0.00     0.008 A 
HETATM    6  C   UNL     1      43.434 -17.833   6.203  1.00  0.00     0.001 A 
HETATM    7  C   UNL     1      43.546 -17.022   7.328  1.00  0.00     0.001 A 
HETATM    8  C   UNL     1      43.500 -15.630   7.199  1.00  0.00     0.016 A 
HETATM    9  C   UNL     1      43.012 -15.244   3.455  1.00  0.00     0.069 C 
HETATM   10  C   UNL     1      42.212 -13.930   3.542  1.00  0.00     0.028 C 
HETATM   11  C   UNL     1      42.358 -13.147   2.232  1.00  0.00     0.038 C 
HETATM   12  C   UNL     1      40.726 -14.164   3.839  1.00  0.00     0.038 C 
HETATM   13  N   UNL     1      42.759 -13.073   4.629  1.00  0.00    -0.367 N 
HETATM   14  H   UNL     1      42.737 -12.075   4.492  1.00  0.00     0.162 HD
HETATM   15  H   UNL     1      44.219 -13.159   7.494  1.00  0.00     0.161 HD
ENDROOT
BRANCH   1  16
HETATM   16  C   UNL     1      43.642 -11.285   6.736  1.00  0.00     0.224 C 
BRANCH  16  17
HETATM   17  C   UNL     1      43.972 -10.852   8.162  1.00  0.00     0.239 C 
HETATM   18  N   UNL     1      42.919 -10.231   8.807  1.00  0.00    -0.326 N 
HETATM   19  H   UNL     1      42.003 -10.254   8.375  1.00  0.00     0.169 HD
HETATM   20  O   UNL     1      45.087 -11.103   8.617  1.00  0.00    -0.271 OA
BRANCH  18  21
HETATM   21  C   UNL     1      42.943  -9.618  10.079  1.00  0.00     0.034 A 
HETATM   22  C   UNL     1      43.013 -10.318  11.282  1.00  0.00     0.030 A 
HETATM   23  C   UNL     1      43.078  -9.627  12.499  1.00  0.00     0.009 A 
HETATM   24  C   UNL     1      43.068  -8.229  12.529  1.00  0.00    -0.062 A 
HETATM   25  C   UNL     1      43.143  -7.479  13.826  1.00  0.00     0.048 C 
HETATM   26  C   UNL     1      42.988  -7.529  11.322  1.00  0.00     0.009 A 
HETATM   27  C   UNL     1      42.934  -8.217  10.108  1.00  0.00     0.030 A 
ENDBRANCH  18  21
ENDBRANCH  16  17
ENDBRANCH   1  16
TORSDOF 3
ENDMDL
MODEL 5
REMARK VINA RESULT:      -8.2      2.100      8.348
REMARK  3 active torsions:
REMARK  status: ('A' for Active; 'I' for Inactive)
REMARK    1  A    between atoms: C_5  and  N_6 
REMARK       I    between atoms: N_6  and  C_7 
REMARK    2  A    between atoms: C_7  and  C_8 
REMARK    3  A    between atoms: C_8  and  N_9 
ROOT
HETATM    1  N   UNL     1      41.455 -13.139   1.623  1.00  0.00    -0.367 N 
HETATM    2  C   UNL     1      41.130 -12.479   0.527  1.00  0.00     0.108 C 
HETATM    3  C   UNL     1      40.475 -13.190  -0.601  1.00  0.00     0.014 A 
HETATM    4  C   UNL     1      40.459 -12.581  -1.873  1.00  0.00    -0.042 A 
HETATM    5  C   UNL     1      39.865 -13.223  -2.967  1.00  0.00     0.008 A 
HETATM    6  C   UNL     1      39.251 -14.459  -2.798  1.00  0.00     0.001 A 
HETATM    7  C   UNL     1      39.231 -15.061  -1.543  1.00  0.00     0.001 A 
HETATM    8  C   UNL     1      39.837 -14.432  -0.452  1.00  0.00     0.016 A 
HETATM    9  C   UNL     1      41.125 -11.240  -2.051  1.00  0.00     0.069 C 
HETATM   10  C   UNL     1      41.001 -10.375  -0.782  1.00  0.00     0.028 C 
HETATM   11  C   UNL     1      41.983  -9.200  -0.858  1.00  0.00     0.038 C 
HETATM   12  C   UNL     1      39.579  -9.843  -0.568  1.00  0.00     0.038 C 
HETATM   13  N   UNL     1      41.367 -11.177   0.417  1.00  0.00    -0.367 N 
HETATM   14  H   UNL     1      41.829 -10.698   1.175  1.00  0.00     0.162 HD
HETATM   15  H   UNL     1      41.350 -14.155   1.633  1.00  0.00     0.161 HD
ENDROOT
BRANCH   1  16
HETATM   16  C   UNL     1      41.987 -12.584   2.877  1.00  0.00     0.224 C 
BRANCH  16  17
HETATM   17  C   UNL     1      42.571 -13.747   3.676  1.00  0.00     0.239 C 
HETATM   18  N   UNL     1      42.788 -14.882   2.917  1.00  0.00    -0.326 N 
HETATM   19  H   UNL     1      42.706 -14.815   1.910  1.00  0.00     0.169 HD
HETATM   20  O   UNL     1      42.820 -13.584   4.869  1.00  0.00    -0.271 OA
BRANCH  18  21
HETATM   21  C   UNL     1      43.204 -16.148   3.382  1.00  0.00     0.034 A 
HETATM   22  C   UNL     1      43.601 -16.407   4.693  1.00  0.00     0.030 A 
HETATM   23  C   UNL     1      43.957 -17.705   5.081  1.00  0.00     0.009 A 
HETATM   24  C   UNL     1      43.926 -18.759   4.163  1.00  0.00    -0.062 A 
HETATM   25  C   UNL     1      44.299 -20.154   4.569  1.00  0.00     0.048 C 
HETATM   26  C   UNL     1      43.538 -18.496   2.847  1.00  0.00     0.009 A 
HETATM   27  C   UNL     1      43.173 -17.204   2.462  1.00  0.00     0.030 A 
ENDBRANCH  18  21
ENDBRANCH  16  17
ENDBRANCH   1  16
TORSDOF 3
ENDMDL
MODEL 6
REMARK VINA RESULT:      -8.2      3.982      6.514
REMARK  3 active torsions:
REMARK  status: ('A' for Active; 'I' for Inactive)
REMARK    1  A    between atoms: C_5  and  N_6 
REMARK       I    between atoms: N_6  and  C_7 
REMARK    2  A    between atoms: C_7  and  C_8 
REMARK    3  A    between atoms: C_8  and  N_9 
ROOT
HETATM    1  N   UNL     1      41.382 -15.256   4.150  1.00  0.00    -0.367 N 
HETATM    2  C   UNL     1      42.275 -16.036   4.731  1.00  0.00     0.108 C 
HETATM    3  C   UNL     1      42.813 -17.216   4.008  1.00  0.00     0.014 A 
HETATM    4  C   UNL     1      43.473 -18.223   4.743  1.00  0.00    -0.042 A 
HETATM    5  C   UNL     1      43.982 -19.359   4.103  1.00  0.00     0.008 A 
HETATM    6  C   UNL     1      43.872 -19.488   2.722  1.00  0.00     0.001 A 
HETATM    7  C   UNL     1      43.251 -18.490   1.978  1.00  0.00     0.001 A 
HETATM    8  C   UNL     1      42.726 -17.361   2.614  1.00  0.00     0.016 A 
HETATM    9  C   UNL     1      43.591 -18.079   6.239  1.00  0.00     0.069 C 
HETATM   10  C   UNL     1      43.737 -16.602   6.655  1.00  0.00     0.028 C 
HETATM   11  C   UNL     1      43.484 -16.461   8.160  1.00  0.00     0.038 C 
HETATM   12  C   UNL     1      45.115 -16.026   6.308  1.00  0.00     0.038 C 
HETATM   13  N   UNL     1      42.715 -15.775   5.957  1.00  0.00    -0.367 N 
HETATM   14  H   UNL     1      42.335 -14.985   6.455  1.00  0.00     0.162 HD
HETATM   15  H   UNL     1      40.994 -15.542   3.250  1.00  0.00     0.161 HD
ENDROOT
BRANCH   1  16
HETATM   16  C   UNL     1      40.838 -13.987   4.656  1.00  0.00     0.224 C 
BRANCH  16  17
HETATM   17  C   UNL     1      42.018 -13.041   4.869  1.00  0.00     0.239 C 
HETATM   18  N   UNL     1      42.218 -12.700   6.193  1.00  0.00    -0.326 N 
HETATM   19  H   UNL     1      41.703 -13.202   6.907  1.00  0.00     0.169 HD
HETATM   20  O   UNL     1      42.687 -12.695   3.896  1.00  0.00    -0.271 OA
BRANCH  18  21
HETATM   21  C   UNL     1      43.143 -11.761   6.699  1.00  0.00     0.034 A 
HETATM   22  C   UNL     1      42.796 -10.489   7.150  1.00  0.00     0.030 A 
HETATM   23  C   UNL     1      43.773  -9.636   7.680  1.00  0.00     0.009 A 
HETATM   24  C   UNL     1      45.109 -10.041   7.759  1.00  0.00    -0.062 A 
HETATM   25  C   UNL     1      46.163  -9.139   8.329  1.00  0.00     0.048 C 
HETATM   26  C   UNL     1      45.457 -11.313   7.296  1.00  0.00     0.009 A 
HETATM   27  C   UNL     1      44.482 -12.168   6.778  1.00  0.00     0.030 A 
ENDBRANCH  18  21
ENDBRANCH  16  17
ENDBRANCH   1  16
TORSDOF 3
ENDMDL
MODEL 7
REMARK VINA RESULT:      -8.1      4.287      8.135
REMARK  3 active torsions:
REMARK  status: ('A' for Active; 'I' for Inactive)
REMARK    1  A    between atoms: C_5  and  N_6 
REMARK       I    between atoms: N_6  and  C_7 
REMARK    2  A    between atoms: C_7  and  C_8 
REMARK    3  A    between atoms: C_8  and  N_9 
ROOT
HETATM    1  N   UNL     1      43.304 -13.660   4.693  1.00  0.00    -0.367 N 
HETATM    2  C   UNL     1      42.816 -14.491   3.790  1.00  0.00     0.108 C 
HETATM    3  C   UNL     1      43.230 -15.917   3.793  1.00  0.00     0.014 A 
HETATM    4  C   UNL     1      42.997 -16.697   2.641  1.00  0.00    -0.042 A 
HETATM    5  C   UNL     1      43.384 -18.042   2.597  1.00  0.00     0.008 A 
HETATM    6  C   UNL     1      43.974 -18.634   3.709  1.00  0.00     0.001 A 
HETATM    7  C   UNL     1      44.184 -17.887   4.865  1.00  0.00     0.001 A 
HETATM    8  C   UNL     1      43.814 -16.539   4.909  1.00  0.00     0.016 A 
HETATM    9  C   UNL     1      42.356 -16.053   1.439  1.00  0.00     0.069 C 
HETATM   10  C   UNL     1      41.342 -14.968   1.852  1.00  0.00     0.028 C 
HETATM   11  C   UNL     1      40.995 -14.096   0.640  1.00  0.00     0.038 C 
HETATM   12  C   UNL     1      40.058 -15.558   2.446  1.00  0.00     0.038 C 
HETATM   13  N   UNL     1      41.945 -14.074   2.878  1.00  0.00    -0.367 N 
HETATM   14  H   UNL     1      41.680 -13.102   2.864  1.00  0.00     0.162 HD
HETATM   15  H   UNL     1      44.045 -13.991   5.313  1.00  0.00     0.161 HD
ENDROOT
BRANCH   1  16
HETATM   16  C   UNL     1      42.917 -12.260   4.922  1.00  0.00     0.224 C 
BRANCH  16  17
HETATM   17  C   UNL     1      43.043 -11.994   6.420  1.00  0.00     0.239 C 
HETATM   18  N   UNL     1      42.837 -10.672   6.764  1.00  0.00    -0.326 N 
HETATM   19  H   UNL     1      42.474 -10.038   6.062  1.00  0.00     0.169 HD
HETATM   20  O   UNL     1      43.277 -12.938   7.174  1.00  0.00    -0.271 OA
BRANCH  18  21
HETATM   21  C   UNL     1      42.998 -10.090   8.041  1.00  0.00     0.034 A 
HETATM   22  C   UNL     1      41.991  -9.405   8.719  1.00  0.00     0.030 A 
HETATM   23  C   UNL     1      42.223  -8.897  10.004  1.00  0.00     0.009 A 
HETATM   24  C   UNL     1      43.465  -9.062  10.624  1.00  0.00    -0.062 A 
HETATM   25  C   UNL     1      43.724  -8.527  12.001  1.00  0.00     0.048 C 
HETATM   26  C   UNL     1      44.477  -9.739   9.938  1.00  0.00     0.009 A 
HETATM   27  C   UNL     1      44.243 -10.255   8.662  1.00  0.00     0.030 A 
ENDBRANCH  18  21
ENDBRANCH  16  17
ENDBRANCH   1  16
TORSDOF 3
ENDMDL
MODEL 8
REMARK VINA RESULT:      -7.9      1.913      3.942
REMARK  3 active torsions:
REMARK  status: ('A' for Active; 'I' for Inactive)
REMARK    1  A    between atoms: C_5  and  N_6 
REMARK       I    between atoms: N_6  and  C_7 
REMARK    2  A    between atoms: C_7  and  C_8 
REMARK    3  A    between atoms: C_8  and  N_9 
ROOT
HETATM    1  N   UNL     1      42.606 -14.717   2.767  1.00  0.00    -0.367 N 
HETATM    2  C   UNL     1      42.747 -14.827   4.074  1.00  0.00     0.108 C 
HETATM    3  C   UNL     1      43.086 -13.631   4.887  1.00  0.00     0.014 A 
HETATM    4  C   UNL     1      43.580 -13.814   6.196  1.00  0.00    -0.042 A 
HETATM    5  C   UNL     1      43.925 -12.714   6.991  1.00  0.00     0.008 A 
HETATM    6  C   UNL     1      43.749 -11.422   6.507  1.00  0.00     0.001 A 
HETATM    7  C   UNL     1      43.235 -11.223   5.229  1.00  0.00     0.001 A 
HETATM    8  C   UNL     1      42.904 -12.318   4.424  1.00  0.00     0.016 A 
HETATM    9  C   UNL     1      43.768 -15.216   6.718  1.00  0.00     0.069 C 
HETATM   10  C   UNL     1      42.700 -16.175   6.157  1.00  0.00     0.028 C 
HETATM   11  C   UNL     1      43.130 -17.627   6.401  1.00  0.00     0.038 C 
HETATM   12  C   UNL     1      41.315 -15.938   6.770  1.00  0.00     0.038 C 
HETATM   13  N   UNL     1      42.579 -15.994   4.685  1.00  0.00    -0.367 N 
HETATM   14  H   UNL     1      42.368 -16.810   4.130  1.00  0.00     0.162 HD
HETATM   15  H   UNL     1      42.841 -13.829   2.321  1.00  0.00     0.161 HD
ENDROOT
BRANCH   1  16
HETATM   16  C   UNL     1      42.152 -15.753   1.826  1.00  0.00     0.224 C 
BRANCH  16  17
HETATM   17  C   UNL     1      40.825 -15.280   1.236  1.00  0.00     0.239 C 
HETATM   18  N   UNL     1      40.964 -14.606   0.038  1.00  0.00    -0.326 N 
HETATM   19  H   UNL     1      41.866 -14.616  -0.424  1.00  0.00     0.169 HD
HETATM   20  O   UNL     1      39.782 -15.548   1.829  1.00  0.00    -0.271 OA
BRANCH  18  21
HETATM   21  C   UNL     1      39.949 -13.949  -0.691  1.00  0.00     0.034 A 
HETATM   22  C   UNL     1      39.282 -14.509  -1.779  1.00  0.00     0.030 A 
HETATM   23  C   UNL     1      38.254 -13.803  -2.418  1.00  0.00     0.009 A 
HETATM   24  C   UNL     1      37.884 -12.528  -1.981  1.00  0.00    -0.062 A 
HETATM   25  C   UNL     1      36.781 -11.765  -2.654  1.00  0.00     0.048 C 
HETATM   26  C   UNL     1      38.561 -11.963  -0.897  1.00  0.00     0.009 A 
HETATM   27  C   UNL     1      39.579 -12.670  -0.253  1.00  0.00     0.030 A 
ENDBRANCH  18  21
ENDBRANCH  16  17
ENDBRANCH   1  16
TORSDOF 3
ENDMDL
MODEL 9
REMARK VINA RESULT:      -7.8      4.889      8.680
REMARK  3 active torsions:
REMARK  status: ('A' for Active; 'I' for Inactive)
REMARK    1  A    between atoms: C_5  and  N_6 
REMARK       I    between atoms: N_6  and  C_7 
REMARK    2  A    between atoms: C_7  and  C_8 
REMARK    3  A    between atoms: C_8  and  N_9 
ROOT
HETATM    1  N   UNL     1      43.426 -12.319   4.807  1.00  0.00    -0.367 N 
HETATM    2  C   UNL     1      43.052 -13.546   5.117  1.00  0.00     0.108 C 
HETATM    3  C   UNL     1      42.143 -14.297   4.213  1.00  0.00     0.014 A 
HETATM    4  C   UNL     1      41.476 -15.436   4.711  1.00  0.00    -0.042 A 
HETATM    5  C   UNL     1      40.599 -16.164   3.897  1.00  0.00     0.008 A 
HETATM    6  C   UNL     1      40.406 -15.789   2.572  1.00  0.00     0.001 A 
HETATM    7  C   UNL     1      41.080 -14.686   2.056  1.00  0.00     0.001 A 
HETATM    8  C   UNL     1      41.944 -13.945   2.869  1.00  0.00     0.016 A 
HETATM    9  C   UNL     1      41.689 -15.840   6.147  1.00  0.00     0.069 C 
HETATM   10  C   UNL     1      43.122 -15.522   6.617  1.00  0.00     0.028 C 
HETATM   11  C   UNL     1      43.193 -15.596   8.147  1.00  0.00     0.038 C 
HETATM   12  C   UNL     1      44.165 -16.466   6.007  1.00  0.00     0.038 C 
HETATM   13  N   UNL     1      43.488 -14.133   6.226  1.00  0.00    -0.367 N 
HETATM   14  H   UNL     1      44.088 -13.616   6.849  1.00  0.00     0.162 HD
HETATM   15  H   UNL     1      42.993 -11.864   4.000  1.00  0.00     0.161 HD
ENDROOT
BRANCH   1  16
HETATM   16  C   UNL     1      44.409 -11.478   5.506  1.00  0.00     0.224 C 
BRANCH  16  17
HETATM   17  C   UNL     1      43.705 -10.865   6.714  1.00  0.00     0.239 C 
HETATM   18  N   UNL     1      44.548 -10.140   7.534  1.00  0.00    -0.326 N 
HETATM   19  H   UNL     1      45.486  -9.938   7.209  1.00  0.00     0.169 HD
HETATM   20  O   UNL     1      42.492 -11.030   6.842  1.00  0.00    -0.271 OA
BRANCH  18  21
HETATM   21  C   UNL     1      44.228  -9.556   8.779  1.00  0.00     0.034 A 
HETATM   22  C   UNL     1      43.704  -8.273   8.926  1.00  0.00     0.030 A 
HETATM   23  C   UNL     1      43.372  -7.787  10.198  1.00  0.00     0.009 A 
HETATM   24  C   UNL     1      43.567  -8.574  11.337  1.00  0.00    -0.062 A 
HETATM   25  C   UNL     1      43.211  -8.066  12.703  1.00  0.00     0.048 C 
HETATM   26  C   UNL     1      44.103  -9.856  11.188  1.00  0.00     0.009 A 
HETATM   27  C   UNL     1      44.423 -10.345   9.920  1.00  0.00     0.030 A 
ENDBRANCH  18  21
ENDBRANCH  16  17
ENDBRANCH   1  16
TORSDOF 3
ENDMDL
MODEL 10
REMARK VINA RESULT:      -7.7     13.569     15.370
REMARK  3 active torsions:
REMARK  status: ('A' for Active; 'I' for Inactive)
REMARK    1  A    between atoms: C_5  and  N_6 
REMARK       I    between atoms: N_6  and  C_7 
REMARK    2  A    between atoms: C_7  and  C_8 
REMARK    3  A    between atoms: C_8  and  N_9 
ROOT
HETATM    1  N   UNL     1      47.655 -29.209   2.888  1.00  0.00    -0.367 N 
HETATM    2  C   UNL     1      47.576 -30.182   3.777  1.00  0.00     0.108 C 
HETATM    3  C   UNL     1      48.816 -30.769   4.347  1.00  0.00     0.014 A 
HETATM    4  C   UNL     1      48.740 -32.015   5.003  1.00  0.00    -0.042 A 
HETATM    5  C   UNL     1      49.887 -32.611   5.542  1.00  0.00     0.008 A 
HETATM    6  C   UNL     1      51.113 -31.958   5.465  1.00  0.00     0.001 A 
HETATM    7  C   UNL     1      51.200 -30.714   4.848  1.00  0.00     0.001 A 
HETATM    8  C   UNL     1      50.061 -30.121   4.293  1.00  0.00     0.016 A 
HETATM    9  C   UNL     1      47.410 -32.719   5.085  1.00  0.00     0.069 C 
HETATM   10  C   UNL     1      46.246 -31.717   5.203  1.00  0.00     0.028 C 
HETATM   11  C   UNL     1      44.919 -32.428   4.914  1.00  0.00     0.038 C 
HETATM   12  C   UNL     1      46.182 -31.047   6.580  1.00  0.00     0.038 C 
HETATM   13  N   UNL     1      46.399 -30.640   4.185  1.00  0.00    -0.367 N 
HETATM   14  H   UNL     1      45.558 -30.255   3.784  1.00  0.00     0.162 HD
HETATM   15  H   UNL     1      48.574 -28.952   2.524  1.00  0.00     0.161 HD
ENDROOT
BRANCH   1  16
HETATM   16  C   UNL     1      46.548 -28.428   2.316  1.00  0.00     0.224 C 
BRANCH  16  17
HETATM   17  C   UNL     1      46.566 -28.654   0.806  1.00  0.00     0.239 C 
HETATM   18  N   UNL     1      45.314 -28.591   0.224  1.00  0.00    -0.326 N 
HETATM   19  H   UNL     1      44.537 -28.254   0.780  1.00  0.00     0.169 HD
HETATM   20  O   UNL     1      47.645 -28.837   0.244  1.00  0.00    -0.271 OA
BRANCH  18  21
HETATM   21  C   UNL     1      44.985 -28.871  -1.120  1.00  0.00     0.034 A 
HETATM   22  C   UNL     1      45.188 -27.982  -2.174  1.00  0.00     0.030 A 
HETATM   23  C   UNL     1      44.874 -28.358  -3.486  1.00  0.00     0.009 A 
HETATM   24  C   UNL     1      44.349 -29.624  -3.761  1.00  0.00    -0.062 A 
HETATM   25  C   UNL     1      44.014 -30.040  -5.163  1.00  0.00     0.048 C 
HETATM   26  C   UNL     1      44.136 -30.510  -2.701  1.00  0.00     0.009 A 
HETATM   27  C   UNL     1      44.458 -30.139  -1.394  1.00  0.00     0.030 A 
ENDBRANCH  18  21
ENDBRANCH  16  17
ENDBRANCH   1  16
TORSDOF 3
ENDMDL
