MODEL 1
REMARK VINA RESULT:      -8.5      0.000      0.000
REMARK  2 active torsions:
REMARK  status: ('A' for Active; 'I' for Inactive)
REMARK    1  A    between atoms: C_4  and  C_5 
REMARK    2  A    between atoms: C_10  and  C_11 
ROOT
HETATM    1  C   UNL     1      42.427 -15.866   5.012  1.00  0.00     0.202 C 
HETATM    2  N   UNL     1      43.431 -15.326   5.913  1.00  0.00    -0.331 N 
HETATM    3  C   UNL     1      44.621 -16.117   6.154  1.00  0.00     0.155 C 
HETATM    4  C   UNL     1      43.431 -13.981   6.251  1.00  0.00     0.256 C 
HETATM    5  O   UNL     1      44.394 -13.402   6.748  1.00  0.00    -0.267 OA
HETATM    6  C   UNL     1      42.181 -13.236   5.987  1.00  0.00     0.053 A 
HETATM    7  C   UNL     1      41.065 -13.952   5.541  1.00  0.00     0.026 A 
HETATM    8  N   UNL     1      41.120 -15.345   5.391  1.00  0.00    -0.266 NA
HETATM    9  C   UNL     1      42.114 -11.855   6.210  1.00  0.00     0.019 A 
HETATM   10  C   UNL     1      40.911 -11.181   6.010  1.00  0.00     0.001 A 
HETATM   11  C   UNL     1      39.781 -11.891   5.607  1.00  0.00     0.002 A 
HETATM   12  C   UNL     1      39.853 -13.271   5.392  1.00  0.00     0.024 A 
HETATM   13  H   UNL     1      40.395 -15.703   4.775  1.00  0.00     0.130 HD
ENDROOT
BRANCH   1  14
HETATM   14  C   UNL     1      42.820 -15.665   3.570  1.00  0.00     0.029 A 
HETATM   15  C   UNL     1      43.274 -16.664   2.661  1.00  0.00     0.121 A 
HETATM   16  N   UNL     1      43.538 -16.161   1.447  1.00  0.00    -0.172 NA
HETATM   17  N   UNL     1      43.241 -14.860   1.562  1.00  0.00    -0.288 N 
HETATM   18  H   UNL     1      43.356 -14.264   0.748  1.00  0.00     0.188 HD
HETATM   19  C   UNL     1      42.809 -14.511   2.804  1.00  0.00     0.122 A 
BRANCH  15  20
HETATM   20  C   UNL     1      43.451 -18.119   2.959  1.00  0.00     0.106 A 
HETATM   21  O   UNL     1      43.884 -18.625   4.154  1.00  0.00    -0.313 OA
HETATM   22  C   UNL     1      43.931 -19.981   4.034  1.00  0.00     0.050 A 
HETATM   23  C   UNL     1      44.399 -20.736   5.214  1.00  0.00     0.076 C 
HETATM   24  C   UNL     1      43.518 -20.359   2.776  1.00  0.00     0.035 A 
HETATM   25  C   UNL     1      43.207 -19.163   2.086  1.00  0.00     0.042 A 
ENDBRANCH  15  20
ENDBRANCH   1  14
TORSDOF 2
ENDMDL
MODEL 2
REMARK VINA RESULT:      -8.1      2.567      6.533
REMARK  2 active torsions:
REMARK  status: ('A' for Active; 'I' for Inactive)
REMARK    1  A    between atoms: C_4  and  C_5 
REMARK    2  A    between atoms: C_10  and  C_11 
ROOT
HETATM    1  C   UNL     1      42.517 -13.915   5.991  1.00  0.00     0.202 C 
HETATM    2  N   UNL     1      41.242 -14.437   5.529  1.00  0.00    -0.331 N 
HETATM    3  C   UNL     1      40.075 -13.587   5.659  1.00  0.00     0.155 C 
HETATM    4  C   UNL     1      41.190 -15.537   4.686  1.00  0.00     0.256 C 
HETATM    5  O   UNL     1      40.200 -15.844   4.026  1.00  0.00    -0.267 OA
HETATM    6  C   UNL     1      42.412 -16.367   4.609  1.00  0.00     0.053 A 
HETATM    7  C   UNL     1      43.473 -16.062   5.469  1.00  0.00     0.026 A 
HETATM    8  N   UNL     1      43.361 -15.028   6.408  1.00  0.00    -0.266 NA
HETATM    9  C   UNL     1      42.486 -17.445   3.719  1.00  0.00     0.019 A 
HETATM   10  C   UNL     1      43.624 -18.248   3.701  1.00  0.00     0.001 A 
HETATM   11  C   UNL     1      44.671 -17.982   4.583  1.00  0.00     0.002 A 
HETATM   12  C   UNL     1      44.588 -16.907   5.475  1.00  0.00     0.024 A 
HETATM   13  H   UNL     1      44.264 -14.694   6.735  1.00  0.00     0.130 HD
ENDROOT
BRANCH   1  14
HETATM   14  C   UNL     1      43.124 -12.974   4.982  1.00  0.00     0.029 A 
HETATM   15  C   UNL     1      43.959 -11.853   5.254  1.00  0.00     0.121 A 
HETATM   16  N   UNL     1      44.339 -11.221   4.134  1.00  0.00    -0.172 NA
HETATM   17  N   UNL     1      43.773 -11.934   3.151  1.00  0.00    -0.288 N 
HETATM   18  H   UNL     1      43.931 -11.644   2.191  1.00  0.00     0.188 HD
HETATM   19  C   UNL     1      43.040 -12.988   3.600  1.00  0.00     0.122 A 
BRANCH  15  20
HETATM   20  C   UNL     1      44.404 -11.385   6.603  1.00  0.00     0.106 A 
HETATM   21  O   UNL     1      43.568 -11.107   7.649  1.00  0.00    -0.313 OA
HETATM   22  C   UNL     1      44.338 -10.696   8.694  1.00  0.00     0.050 A 
HETATM   23  C   UNL     1      43.629 -10.319   9.934  1.00  0.00     0.076 C 
HETATM   24  C   UNL     1      45.668 -10.721   8.340  1.00  0.00     0.035 A 
HETATM   25  C   UNL     1      45.712 -11.166   6.997  1.00  0.00     0.042 A 
ENDBRANCH  15  20
ENDBRANCH   1  14
TORSDOF 2
ENDMDL
MODEL 3
REMARK VINA RESULT:      -8.0      3.582      7.506
REMARK  2 active torsions:
REMARK  status: ('A' for Active; 'I' for Inactive)
REMARK    1  A    between atoms: C_4  and  C_5 
REMARK    2  A    between atoms: C_10  and  C_11 
ROOT
HETATM    1  C   UNL     1      43.128 -12.366   7.189  1.00  0.00     0.202 C 
HETATM    2  N   UNL     1      42.225 -12.139   6.074  1.00  0.00    -0.331 N 
HETATM    3  C   UNL     1      41.579 -10.846   5.977  1.00  0.00     0.155 C 
HETATM    4  C   UNL     1      42.245 -12.972   4.965  1.00  0.00     0.256 C 
HETATM    5  O   UNL     1      41.743 -12.679   3.882  1.00  0.00    -0.267 OA
HETATM    6  C   UNL     1      42.912 -14.282   5.137  1.00  0.00     0.053 A 
HETATM    7  C   UNL     1      43.358 -14.634   6.415  1.00  0.00     0.026 A 
HETATM    8  N   UNL     1      43.138 -13.787   7.510  1.00  0.00    -0.266 NA
HETATM    9  C   UNL     1      43.061 -15.153   4.051  1.00  0.00     0.019 A 
HETATM   10  C   UNL     1      43.642 -16.404   4.245  1.00  0.00     0.001 A 
HETATM   11  C   UNL     1      44.051 -16.785   5.522  1.00  0.00     0.002 A 
HETATM   12  C   UNL     1      43.893 -15.912   6.604  1.00  0.00     0.024 A 
HETATM   13  H   UNL     1      43.765 -13.978   8.287  1.00  0.00     0.130 HD
ENDROOT
BRANCH   1  14
HETATM   14  C   UNL     1      44.477 -11.741   6.939  1.00  0.00     0.029 A 
HETATM   15  C   UNL     1      45.189 -10.868   7.811  1.00  0.00     0.121 A 
HETATM   16  N   UNL     1      46.367 -10.488   7.296  1.00  0.00    -0.172 NA
HETATM   17  N   UNL     1      46.426 -11.122   6.117  1.00  0.00    -0.288 N 
HETATM   18  H   UNL     1      47.250 -10.991   5.538  1.00  0.00     0.188 HD
HETATM   19  C   UNL     1      45.328 -11.880   5.855  1.00  0.00     0.122 A 
BRANCH  15  20
HETATM   20  C   UNL     1      44.737 -10.397   9.156  1.00  0.00     0.106 A 
HETATM   21  O   UNL     1      44.178 -11.194  10.117  1.00  0.00    -0.313 OA
HETATM   22  C   UNL     1      43.885 -10.406  11.188  1.00  0.00     0.050 A 
HETATM   23  C   UNL     1      43.246 -11.067  12.344  1.00  0.00     0.076 C 
HETATM   24  C   UNL     1      44.265  -9.107  10.936  1.00  0.00     0.035 A 
HETATM   25  C   UNL     1      44.815  -9.101   9.632  1.00  0.00     0.042 A 
ENDBRANCH  15  20
ENDBRANCH   1  14
TORSDOF 2
ENDMDL
MODEL 4
REMARK VINA RESULT:      -7.9      3.600      6.425
REMARK  2 active torsions:
REMARK  status: ('A' for Active; 'I' for Inactive)
REMARK    1  A    between atoms: C_4  and  C_5 
REMARK    2  A    between atoms: C_10  and  C_11 
ROOT
HETATM    1  C   UNL     1      42.547 -12.942   2.860  1.00  0.00     0.202 C 
HETATM    2  N   UNL     1      43.063 -13.031   4.215  1.00  0.00    -0.331 N 
HETATM    3  C   UNL     1      43.088 -11.820   5.011  1.00  0.00     0.155 C 
HETATM    4  C   UNL     1      43.193 -14.259   4.845  1.00  0.00     0.256 C 
HETATM    5  O   UNL     1      43.328 -14.393   6.059  1.00  0.00    -0.267 OA
HETATM    6  C   UNL     1      43.168 -15.453   3.972  1.00  0.00     0.053 A 
HETATM    7  C   UNL     1      43.141 -15.259   2.587  1.00  0.00     0.026 A 
HETATM    8  N   UNL     1      43.183 -13.968   2.043  1.00  0.00    -0.266 NA
HETATM    9  C   UNL     1      43.202 -16.740   4.524  1.00  0.00     0.019 A 
HETATM   10  C   UNL     1      43.235 -17.850   3.683  1.00  0.00     0.001 A 
HETATM   11  C   UNL     1      43.253 -17.669   2.300  1.00  0.00     0.002 A 
HETATM   12  C   UNL     1      43.225 -16.381   1.756  1.00  0.00     0.024 A 
HETATM   13  H   UNL     1      42.839 -13.933   1.086  1.00  0.00     0.130 HD
ENDROOT
BRANCH   1  14
HETATM   14  C   UNL     1      41.040 -12.932   2.845  1.00  0.00     0.029 A 
HETATM   15  C   UNL     1      40.198 -12.473   1.791  1.00  0.00     0.121 A 
HETATM   16  N   UNL     1      38.898 -12.605   2.088  1.00  0.00    -0.172 NA
HETATM   17  N   UNL     1      38.897 -13.159   3.308  1.00  0.00    -0.288 N 
HETATM   18  H   UNL     1      38.004 -13.365   3.745  1.00  0.00     0.188 HD
HETATM   19  C   UNL     1      40.145 -13.376   3.804  1.00  0.00     0.122 A 
BRANCH  15  20
HETATM   20  C   UNL     1      40.647 -11.907   0.482  1.00  0.00     0.106 A 
HETATM   21  O   UNL     1      40.624 -12.579  -0.710  1.00  0.00    -0.313 OA
HETATM   22  C   UNL     1      41.123 -11.744  -1.663  1.00  0.00     0.050 A 
HETATM   23  C   UNL     1      41.210 -12.281  -3.037  1.00  0.00     0.076 C 
HETATM   24  C   UNL     1      41.454 -10.531  -1.103  1.00  0.00     0.035 A 
HETATM   25  C   UNL     1      41.146 -10.634   0.275  1.00  0.00     0.042 A 
ENDBRANCH  15  20
ENDBRANCH   1  14
TORSDOF 2
ENDMDL
MODEL 5
REMARK VINA RESULT:      -7.7      6.976      9.727
REMARK  2 active torsions:
REMARK  status: ('A' for Active; 'I' for Inactive)
REMARK    1  A    between atoms: C_4  and  C_5 
REMARK    2  A    between atoms: C_10  and  C_11 
ROOT
HETATM    1  C   UNL     1      42.255  -8.283  10.225  1.00  0.00     0.202 C 
HETATM    2  N   UNL     1      41.026  -8.559   9.501  1.00  0.00    -0.331 N 
HETATM    3  C   UNL     1      41.125  -9.282   8.249  1.00  0.00     0.155 C 
HETATM    4  C   UNL     1      39.795  -8.458  10.130  1.00  0.00     0.256 C 
HETATM    5  O   UNL     1      38.760  -8.953   9.689  1.00  0.00    -0.267 OA
HETATM    6  C   UNL     1      39.763  -7.697  11.398  1.00  0.00     0.053 A 
HETATM    7  C   UNL     1      40.930  -7.039  11.804  1.00  0.00     0.026 A 
HETATM    8  N   UNL     1      42.082  -7.065  11.006  1.00  0.00    -0.266 NA
HETATM    9  C   UNL     1      38.586  -7.616  12.152  1.00  0.00     0.019 A 
HETATM   10  C   UNL     1      38.562  -6.848  13.314  1.00  0.00     0.001 A 
HETATM   11  C   UNL     1      39.704  -6.153  13.706  1.00  0.00     0.002 A 
HETATM   12  C   UNL     1      40.876  -6.233  12.945  1.00  0.00     0.024 A 
HETATM   13  H   UNL     1      42.927  -6.846  11.528  1.00  0.00     0.130 HD
ENDROOT
BRANCH   1  14
HETATM   14  C   UNL     1      42.724  -9.493  10.992  1.00  0.00     0.029 A 
HETATM   15  C   UNL     1      43.799 -10.361  10.646  1.00  0.00     0.121 A 
HETATM   16  N   UNL     1      43.963 -11.345  11.542  1.00  0.00    -0.172 NA
HETATM   17  N   UNL     1      43.022 -11.106  12.465  1.00  0.00    -0.288 N 
HETATM   18  H   UNL     1      42.959 -11.730  13.263  1.00  0.00     0.188 HD
HETATM   19  C   UNL     1      42.257 -10.016  12.187  1.00  0.00     0.122 A 
BRANCH  15  20
HETATM   20  C   UNL     1      44.682 -10.243   9.445  1.00  0.00     0.106 A 
HETATM   21  O   UNL     1      44.672 -11.101   8.379  1.00  0.00    -0.313 OA
HETATM   22  C   UNL     1      45.621 -10.676   7.500  1.00  0.00     0.050 A 
HETATM   23  C   UNL     1      45.798 -11.481   6.274  1.00  0.00     0.076 C 
HETATM   24  C   UNL     1      46.236  -9.541   7.979  1.00  0.00     0.035 A 
HETATM   25  C   UNL     1      45.630  -9.260   9.228  1.00  0.00     0.042 A 
ENDBRANCH  15  20
ENDBRANCH   1  14
TORSDOF 2
ENDMDL
MODEL 6
REMARK VINA RESULT:      -7.7      2.447      4.735
REMARK  2 active torsions:
REMARK  status: ('A' for Active; 'I' for Inactive)
REMARK    1  A    between atoms: C_4  and  C_5 
REMARK    2  A    between atoms: C_10  and  C_11 
ROOT
HETATM    1  C   UNL     1      40.529 -13.614   5.932  1.00  0.00     0.202 C 
HETATM    2  N   UNL     1      39.594 -12.728   5.260  1.00  0.00    -0.331 N 
HETATM    3  C   UNL     1      39.032 -11.631   6.023  1.00  0.00     0.155 C 
HETATM    4  C   UNL     1      39.508 -12.705   3.876  1.00  0.00     0.256 C 
HETATM    5  O   UNL     1      38.979 -11.796   3.240  1.00  0.00    -0.267 OA
HETATM    6  C   UNL     1      40.093 -13.861   3.161  1.00  0.00     0.053 A 
HETATM    7  C   UNL     1      40.572 -14.934   3.919  1.00  0.00     0.026 A 
HETATM    8  N   UNL     1      40.458 -14.933   5.316  1.00  0.00    -0.266 NA
HETATM    9  C   UNL     1      40.135 -13.885   1.761  1.00  0.00     0.019 A 
HETATM   10  C   UNL     1      40.638 -15.006   1.105  1.00  0.00     0.001 A 
HETATM   11  C   UNL     1      41.078 -16.101   1.848  1.00  0.00     0.002 A 
HETATM   12  C   UNL     1      41.027 -16.073   3.246  1.00  0.00     0.024 A 
HETATM   13  H   UNL     1      41.105 -15.577   5.764  1.00  0.00     0.130 HD
ENDROOT
BRANCH   1  14
HETATM   14  C   UNL     1      41.904 -13.002   6.013  1.00  0.00     0.029 A 
HETATM   15  C   UNL     1      43.135 -13.689   6.222  1.00  0.00     0.121 A 
HETATM   16  N   UNL     1      44.184 -12.854   6.238  1.00  0.00    -0.172 NA
HETATM   17  N   UNL     1      43.643 -11.647   6.024  1.00  0.00    -0.288 N 
HETATM   18  H   UNL     1      44.260 -10.842   5.985  1.00  0.00     0.188 HD
HETATM   19  C   UNL     1      42.291 -11.678   5.882  1.00  0.00     0.122 A 
BRANCH  15  20
HETATM   20  C   UNL     1      43.307 -15.163   6.402  1.00  0.00     0.106 A 
HETATM   21  O   UNL     1      43.629 -16.041   5.403  1.00  0.00    -0.313 OA
HETATM   22  C   UNL     1      43.678 -17.287   5.949  1.00  0.00     0.050 A 
HETATM   23  C   UNL     1      43.992 -18.403   5.033  1.00  0.00     0.076 C 
HETATM   24  C   UNL     1      43.406 -17.224   7.298  1.00  0.00     0.035 A 
HETATM   25  C   UNL     1      43.170 -15.858   7.590  1.00  0.00     0.042 A 
ENDBRANCH  15  20
ENDBRANCH   1  14
TORSDOF 2
ENDMDL
MODEL 7
REMARK VINA RESULT:      -7.6      2.735      4.635
REMARK  2 active torsions:
REMARK  status: ('A' for Active; 'I' for Inactive)
REMARK    1  A    between atoms: C_4  and  C_5 
REMARK    2  A    between atoms: C_10  and  C_11 
ROOT
HETATM    1  C   UNL     1      43.011 -12.947   5.159  1.00  0.00     0.202 C 
HETATM    2  N   UNL     1      41.957 -11.977   5.400  1.00  0.00    -0.331 N 
HETATM    3  C   UNL     1      40.653 -12.235   4.821  1.00  0.00     0.155 C 
HETATM    4  C   UNL     1      42.073 -11.039   6.415  1.00  0.00     0.256 C 
HETATM    5  O   UNL     1      41.126 -10.401   6.868  1.00  0.00    -0.267 OA
HETATM    6  C   UNL     1      43.434 -10.818   6.954  1.00  0.00     0.053 A 
HETATM    7  C   UNL     1      44.505 -11.466   6.330  1.00  0.00     0.026 A 
HETATM    8  N   UNL     1      44.299 -12.266   5.197  1.00  0.00    -0.266 NA
HETATM    9  C   UNL     1      43.639  -9.959   8.040  1.00  0.00     0.019 A 
HETATM   10  C   UNL     1      44.933  -9.720   8.496  1.00  0.00     0.001 A 
HETATM   11  C   UNL     1      46.014 -10.325   7.855  1.00  0.00     0.002 A 
HETATM   12  C   UNL     1      45.802 -11.179   6.767  1.00  0.00     0.024 A 
HETATM   13  H   UNL     1      45.059 -12.922   5.035  1.00  0.00     0.130 HD
ENDROOT
BRANCH   1  14
HETATM   14  C   UNL     1      42.874 -14.143   6.067  1.00  0.00     0.029 A 
HETATM   15  C   UNL     1      42.486 -15.462   5.690  1.00  0.00     0.121 A 
HETATM   16  N   UNL     1      42.466 -16.301   6.735  1.00  0.00    -0.172 NA
HETATM   17  N   UNL     1      42.853 -15.542   7.770  1.00  0.00    -0.288 N 
HETATM   18  H   UNL     1      42.922 -15.974   8.686  1.00  0.00     0.188 HD
HETATM   19  C   UNL     1      43.109 -14.251   7.427  1.00  0.00     0.122 A 
BRANCH  15  20
HETATM   20  C   UNL     1      42.137 -15.923   4.311  1.00  0.00     0.106 A 
HETATM   21  O   UNL     1      41.052 -15.497   3.595  1.00  0.00    -0.313 OA
HETATM   22  C   UNL     1      41.064 -16.151   2.401  1.00  0.00     0.050 A 
HETATM   23  C   UNL     1      39.956 -15.854   1.470  1.00  0.00     0.076 C 
HETATM   24  C   UNL     1      42.157 -16.986   2.330  1.00  0.00     0.035 A 
HETATM   25  C   UNL     1      42.848 -16.837   3.556  1.00  0.00     0.042 A 
ENDBRANCH  15  20
ENDBRANCH   1  14
TORSDOF 2
ENDMDL
MODEL 8
REMARK VINA RESULT:      -7.4      4.438      7.165
REMARK  2 active torsions:
REMARK  status: ('A' for Active; 'I' for Inactive)
REMARK    1  A    between atoms: C_4  and  C_5 
REMARK    2  A    between atoms: C_10  and  C_11 
ROOT
HETATM    1  C   UNL     1      41.636 -13.327   1.181  1.00  0.00     0.202 C 
HETATM    2  N   UNL     1      41.080 -13.083   2.501  1.00  0.00    -0.331 N 
HETATM    3  C   UNL     1      40.301 -11.876   2.695  1.00  0.00     0.155 C 
HETATM    4  C   UNL     1      40.989 -14.106   3.432  1.00  0.00     0.256 C 
HETATM    5  O   UNL     1      40.275 -14.058   4.431  1.00  0.00    -0.267 OA
HETATM    6  C   UNL     1      41.818 -15.304   3.178  1.00  0.00     0.053 A 
HETATM    7  C   UNL     1      42.713 -15.273   2.103  1.00  0.00     0.026 A 
HETATM    8  N   UNL     1      42.851 -14.120   1.318  1.00  0.00    -0.266 NA
HETATM    9  C   UNL     1      41.726 -16.424   4.013  1.00  0.00     0.019 A 
HETATM   10  C   UNL     1      42.556 -17.521   3.790  1.00  0.00     0.001 A 
HETATM   11  C   UNL     1      43.483 -17.485   2.749  1.00  0.00     0.002 A 
HETATM   12  C   UNL     1      43.574 -16.360   1.922  1.00  0.00     0.024 A 
HETATM   13  H   UNL     1      43.263 -14.311   0.408  1.00  0.00     0.130 HD
ENDROOT
BRANCH   1  14
HETATM   14  C   UNL     1      40.596 -13.879   0.240  1.00  0.00     0.029 A 
HETATM   15  C   UNL     1      40.122 -13.276  -0.960  1.00  0.00     0.121 A 
HETATM   16  N   UNL     1      39.196 -14.026  -1.573  1.00  0.00    -0.172 NA
HETATM   17  N   UNL     1      39.085 -15.109  -0.792  1.00  0.00    -0.288 N 
HETATM   18  H   UNL     1      38.434 -15.838  -1.066  1.00  0.00     0.188 HD
HETATM   19  C   UNL     1      39.896 -15.073   0.300  1.00  0.00     0.122 A 
BRANCH  15  20
HETATM   20  C   UNL     1      40.568 -11.967  -1.529  1.00  0.00     0.106 A 
HETATM   21  O   UNL     1      41.247 -11.002  -0.835  1.00  0.00    -0.313 OA
HETATM   22  C   UNL     1      41.459  -9.957  -1.682  1.00  0.00     0.050 A 
HETATM   23  C   UNL     1      42.164  -8.785  -1.126  1.00  0.00     0.076 C 
HETATM   24  C   UNL     1      40.938 -10.242  -2.924  1.00  0.00     0.035 A 
HETATM   25  C   UNL     1      40.368 -11.534  -2.827  1.00  0.00     0.042 A 
ENDBRANCH  15  20
ENDBRANCH   1  14
TORSDOF 2
ENDMDL
MODEL 9
REMARK VINA RESULT:      -7.2      2.998      4.945
REMARK  2 active torsions:
REMARK  status: ('A' for Active; 'I' for Inactive)
REMARK    1  A    between atoms: C_4  and  C_5 
REMARK    2  A    between atoms: C_10  and  C_11 
ROOT
HETATM    1  C   UNL     1      42.056 -14.206   2.958  1.00  0.00     0.202 C 
HETATM    2  N   UNL     1      41.481 -15.149   2.014  1.00  0.00    -0.331 N 
HETATM    3  C   UNL     1      41.629 -16.564   2.294  1.00  0.00     0.155 C 
HETATM    4  C   UNL     1      40.537 -14.737   1.086  1.00  0.00     0.256 C 
HETATM    5  O   UNL     1      39.799 -15.507   0.474  1.00  0.00    -0.267 OA
HETATM    6  C   UNL     1      40.447 -13.281   0.841  1.00  0.00     0.053 A 
HETATM    7  C   UNL     1      41.385 -12.447   1.458  1.00  0.00     0.026 A 
HETATM    8  N   UNL     1      42.411 -12.983   2.249  1.00  0.00    -0.266 NA
HETATM    9  C   UNL     1      39.464 -12.762  -0.011  1.00  0.00     0.019 A 
HETATM   10  C   UNL     1      39.431 -11.394  -0.273  1.00  0.00     0.001 A 
HETATM   11  C   UNL     1      40.387 -10.558   0.301  1.00  0.00     0.002 A 
HETATM   12  C   UNL     1      41.370 -11.084   1.146  1.00  0.00     0.024 A 
HETATM   13  H   UNL     1      42.814 -12.301   2.886  1.00  0.00     0.130 HD
ENDROOT
BRANCH   1  14
HETATM   14  C   UNL     1      41.173 -14.032   4.167  1.00  0.00     0.029 A 
HETATM   15  C   UNL     1      41.323 -14.667   5.434  1.00  0.00     0.121 A 
HETATM   16  N   UNL     1      40.372 -14.294   6.302  1.00  0.00    -0.172 NA
HETATM   17  N   UNL     1      39.629 -13.416   5.615  1.00  0.00    -0.288 N 
HETATM   18  H   UNL     1      38.837 -12.983   6.080  1.00  0.00     0.188 HD
HETATM   19  C   UNL     1      40.062 -13.223   4.340  1.00  0.00     0.122 A 
BRANCH  15  20
HETATM   20  C   UNL     1      42.394 -15.637   5.817  1.00  0.00     0.106 A 
HETATM   21  O   UNL     1      42.273 -16.999   5.757  1.00  0.00    -0.313 OA
HETATM   22  C   UNL     1      43.443 -17.536   6.201  1.00  0.00     0.050 A 
HETATM   23  C   UNL     1      43.525 -19.010   6.240  1.00  0.00     0.076 C 
HETATM   24  C   UNL     1      44.328 -16.534   6.533  1.00  0.00     0.035 A 
HETATM   25  C   UNL     1      43.654 -15.314   6.284  1.00  0.00     0.042 A 
ENDBRANCH  15  20
ENDBRANCH   1  14
TORSDOF 2
ENDMDL
MODEL 10
REMARK VINA RESULT:      -7.2      2.574      3.998
REMARK  2 active torsions:
REMARK  status: ('A' for Active; 'I' for Inactive)
REMARK    1  A    between atoms: C_4  and  C_5 
REMARK    2  A    between atoms: C_10  and  C_11 
ROOT
HETATM    1  C   UNL     1      42.398 -13.937   3.253  1.00  0.00     0.202 C 
HETATM    2  N   UNL     1      41.651 -13.842   2.010  1.00  0.00    -0.331 N 
HETATM    3  C   UNL     1      41.504 -15.045   1.215  1.00  0.00     0.155 C 
HETATM    4  C   UNL     1      40.820 -12.760   1.762  1.00  0.00     0.256 C 
HETATM    5  O   UNL     1      39.947 -12.753   0.898  1.00  0.00    -0.267 OA
HETATM    6  C   UNL     1      41.032 -11.562   2.604  1.00  0.00     0.053 A 
HETATM    7  C   UNL     1      42.115 -11.558   3.489  1.00  0.00     0.026 A 
HETATM    8  N   UNL     1      43.001 -12.643   3.543  1.00  0.00    -0.266 NA
HETATM    9  C   UNL     1      40.184 -10.453   2.490  1.00  0.00     0.019 A 
HETATM   10  C   UNL     1      40.433  -9.313   3.251  1.00  0.00     0.001 A 
HETATM   11  C   UNL     1      41.535  -9.280   4.104  1.00  0.00     0.002 A 
HETATM   12  C   UNL     1      42.381 -10.389   4.209  1.00  0.00     0.024 A 
HETATM   13  H   UNL     1      43.529 -12.676   4.411  1.00  0.00     0.130 HD
ENDROOT
BRANCH   1  14
HETATM   14  C   UNL     1      41.557 -14.530   4.354  1.00  0.00     0.029 A 
HETATM   15  C   UNL     1      41.672 -15.839   4.907  1.00  0.00     0.121 A 
HETATM   16  N   UNL     1      40.775 -16.058   5.879  1.00  0.00    -0.172 NA
HETATM   17  N   UNL     1      40.103 -14.902   5.969  1.00  0.00    -0.288 N 
HETATM   18  H   UNL     1      39.363 -14.826   6.660  1.00  0.00     0.188 HD
HETATM   19  C   UNL     1      40.528 -13.960   5.085  1.00  0.00     0.122 A 
BRANCH  15  20
HETATM   20  C   UNL     1      42.656 -16.889   4.501  1.00  0.00     0.106 A 
HETATM   21  O   UNL     1      42.547 -17.674   3.385  1.00  0.00    -0.313 OA
HETATM   22  C   UNL     1      43.619 -18.513   3.367  1.00  0.00     0.050 A 
HETATM   23  C   UNL     1      43.690 -19.474   2.246  1.00  0.00     0.076 C 
HETATM   24  C   UNL     1      44.430 -18.269   4.452  1.00  0.00     0.035 A 
HETATM   25  C   UNL     1      43.813 -17.223   5.179  1.00  0.00     0.042 A 
ENDBRANCH  15  20
ENDBRANCH   1  14
TORSDOF 2
ENDMDL
