MODEL 1
REMARK VINA RESULT:      -8.8      0.000      0.000
REMARK  10 active torsions:
REMARK  status: ('A' for Active; 'I' for Inactive)
REMARK    1  A    between atoms: O_2  and  C_3 
REMARK    2  A    between atoms: C_6  and  C_7 
REMARK    3  A    between atoms: C_7  and  C_8 
REMARK    4  A    between atoms: C_8  and  N_9 
REMARK    5  A    between atoms: N_12  and  C_13 
REMARK    6  A    between atoms: C_16  and  O_17 
REMARK    7  A    between atoms: C_23  and  C_24 
REMARK    8  A    between atoms: C_24  and  C_25 
REMARK       I    between atoms: C_25  and  N_26 
REMARK    9  A    between atoms: N_26  and  C_27 
REMARK   10  A    between atoms: C_30  and  O_31 
ROOT
HETATM    1  N   UNL     1      41.145 -14.129   1.628  1.00  0.00    -0.319 N 
HETATM    2  C   UNL     1      40.574 -13.824   0.396  1.00  0.00     0.332 A 
HETATM    3  O   UNL     1      40.175 -14.683  -0.378  1.00  0.00    -0.246 OA
HETATM    4  N   UNL     1      40.605 -12.454   0.224  1.00  0.00    -0.232 N 
HETATM    5  C   UNL     1      41.225 -11.877   1.308  1.00  0.00     0.256 A 
HETATM    6  O   UNL     1      41.509 -10.697   1.500  1.00  0.00    -0.270 OA
HETATM    7  C   UNL     1      41.553 -12.946   2.353  1.00  0.00     0.190 A 
ENDROOT
BRANCH   7   8
HETATM    8  C   UNL     1      43.031 -12.872   2.718  1.00  0.00     0.138 C 
BRANCH   8   9
HETATM    9  C   UNL     1      43.189 -12.758   4.225  1.00  0.00     0.224 C 
HETATM   10  N   UNL     1      43.905 -11.645   4.619  1.00  0.00    -0.327 N 
HETATM   11  H   UNL     1      44.174 -10.983   3.890  1.00  0.00     0.169 HD
HETATM   12  O   UNL     1      42.678 -13.598   4.958  1.00  0.00    -0.273 OA
BRANCH  10  13
HETATM   13  C   UNL     1      44.233 -11.241   5.928  1.00  0.00     0.034 A 
HETATM   14  C   UNL     1      43.309 -10.788   6.865  1.00  0.00     0.032 A 
HETATM   15  C   UNL     1      43.735 -10.407   8.145  1.00  0.00     0.039 A 
HETATM   16  C   UNL     1      45.083 -10.471   8.502  1.00  0.00     0.068 A 
HETATM   17  C   UNL     1      46.009 -10.928   7.567  1.00  0.00     0.039 A 
HETATM   18  C   UNL     1      45.584 -11.311   6.289  1.00  0.00     0.032 A 
BRANCH  16  19
HETATM   19  O   UNL     1      45.362 -10.067   9.778  1.00  0.00    -0.356 OA
HETATM   20  C   UNL     1      44.320 -10.204  10.737  1.00  0.00     0.210 C 
ENDBRANCH  16  19
ENDBRANCH  10  13
ENDBRANCH   8   9
ENDBRANCH   7   8
BRANCH   1  21
HETATM   21  C   UNL     1      41.357 -15.493   2.106  1.00  0.00     0.133 C 
BRANCH  21  22
HETATM   22  C   UNL     1      42.633 -16.144   1.567  1.00  0.00     0.058 C 
BRANCH  22  23
HETATM   23  C   UNL     1      43.177 -17.162   2.538  1.00  0.00    -0.057 A 
HETATM   24  C   UNL     1      43.222 -18.518   2.194  1.00  0.00     0.010 A 
HETATM   25  C   UNL     1      43.691 -19.461   3.112  1.00  0.00     0.037 A 
HETATM   26  C   UNL     1      44.124 -19.070   4.380  1.00  0.00     0.068 A 
HETATM   27  C   UNL     1      44.076 -17.721   4.730  1.00  0.00     0.037 A 
HETATM   28  C   UNL     1      43.604 -16.773   3.814  1.00  0.00     0.010 A 
BRANCH  26  29
HETATM   29  O   UNL     1      44.557 -20.093   5.177  1.00  0.00    -0.356 OA
HETATM   30  C   UNL     1      43.828 -21.312   5.111  1.00  0.00     0.210 C 
ENDBRANCH  26  29
ENDBRANCH  22  23
ENDBRANCH  21  22
ENDBRANCH   1  21
BRANCH   4  31
HETATM   31  C   UNL     1      40.134 -11.755  -0.931  1.00  0.00     0.047 A 
HETATM   32  C   UNL     1      38.800 -11.343  -1.046  1.00  0.00     0.033 A 
HETATM   33  C   UNL     1      38.341 -10.655  -2.180  1.00  0.00     0.039 A 
HETATM   34  C   UNL     1      39.197 -10.365  -3.237  1.00  0.00     0.068 A 
HETATM   35  C   UNL     1      40.526 -10.762  -3.144  1.00  0.00     0.039 A 
HETATM   36  C   UNL     1      40.985 -11.443  -2.004  1.00  0.00     0.033 A 
BRANCH  34  37
HETATM   37  O   UNL     1      38.625  -9.700  -4.282  1.00  0.00    -0.356 OA
HETATM   38  C   UNL     1      39.443  -8.762  -4.973  1.00  0.00     0.210 C 
ENDBRANCH  34  37
ENDBRANCH   4  31
TORSDOF 10
ENDMDL
MODEL 2
REMARK VINA RESULT:      -8.5      3.543     10.767
REMARK  10 active torsions:
REMARK  status: ('A' for Active; 'I' for Inactive)
REMARK    1  A    between atoms: O_2  and  C_3 
REMARK    2  A    between atoms: C_6  and  C_7 
REMARK    3  A    between atoms: C_7  and  C_8 
REMARK    4  A    between atoms: C_8  and  N_9 
REMARK    5  A    between atoms: N_12  and  C_13 
REMARK    6  A    between atoms: C_16  and  O_17 
REMARK    7  A    between atoms: C_23  and  C_24 
REMARK    8  A    between atoms: C_24  and  C_25 
REMARK       I    between atoms: C_25  and  N_26 
REMARK    9  A    between atoms: N_26  and  C_27 
REMARK   10  A    between atoms: C_30  and  O_31 
ROOT
HETATM    1  N   UNL     1      42.479  -9.619   8.586  1.00  0.00    -0.319 N 
HETATM    2  C   UNL     1      42.066  -8.884   9.692  1.00  0.00     0.332 A 
HETATM    3  O   UNL     1      41.324  -7.915   9.603  1.00  0.00    -0.246 OA
HETATM    4  N   UNL     1      42.671  -9.406  10.819  1.00  0.00    -0.232 N 
HETATM    5  C   UNL     1      43.499 -10.440  10.447  1.00  0.00     0.256 A 
HETATM    6  O   UNL     1      44.260 -11.110  11.142  1.00  0.00    -0.270 OA
HETATM    7  C   UNL     1      43.365 -10.704   8.946  1.00  0.00     0.190 A 
ENDROOT
BRANCH   7   8
HETATM    8  C   UNL     1      44.741 -10.677   8.293  1.00  0.00     0.138 C 
BRANCH   8   9
HETATM    9  C   UNL     1      44.825 -11.739   7.210  1.00  0.00     0.224 C 
HETATM   10  N   UNL     1      43.826 -12.687   7.293  1.00  0.00    -0.327 N 
HETATM   11  H   UNL     1      43.101 -12.539   7.996  1.00  0.00     0.169 HD
HETATM   12  O   UNL     1      45.709 -11.676   6.361  1.00  0.00    -0.273 OA
BRANCH  10  13
HETATM   13  C   UNL     1      43.611 -13.799   6.455  1.00  0.00     0.034 A 
HETATM   14  C   UNL     1      43.940 -15.110   6.788  1.00  0.00     0.032 A 
HETATM   15  C   UNL     1      43.686 -16.150   5.884  1.00  0.00     0.039 A 
HETATM   16  C   UNL     1      43.104 -15.896   4.641  1.00  0.00     0.068 A 
HETATM   17  C   UNL     1      42.771 -14.585   4.306  1.00  0.00     0.039 A 
HETATM   18  C   UNL     1      43.022 -13.546   5.209  1.00  0.00     0.032 A 
BRANCH  16  19
HETATM   19  O   UNL     1      42.915 -16.999   3.856  1.00  0.00    -0.356 OA
HETATM   20  C   UNL     1      42.049 -16.851   2.737  1.00  0.00     0.210 C 
ENDBRANCH  16  19
ENDBRANCH  10  13
ENDBRANCH   8   9
ENDBRANCH   7   8
BRANCH   1  21
HETATM   21  C   UNL     1      42.102  -9.294   7.213  1.00  0.00     0.133 C 
BRANCH  21  22
HETATM   22  C   UNL     1      40.821  -9.988   6.744  1.00  0.00     0.058 C 
BRANCH  22  23
HETATM   23  C   UNL     1      40.967 -10.509   5.336  1.00  0.00    -0.057 A 
HETATM   24  C   UNL     1      42.051 -10.116   4.543  1.00  0.00     0.010 A 
HETATM   25  C   UNL     1      42.161 -10.571   3.227  1.00  0.00     0.037 A 
HETATM   26  C   UNL     1      41.199 -11.424   2.683  1.00  0.00     0.068 A 
HETATM   27  C   UNL     1      40.114 -11.814   3.467  1.00  0.00     0.037 A 
HETATM   28  C   UNL     1      39.999 -11.358   4.786  1.00  0.00     0.010 A 
BRANCH  26  29
HETATM   29  O   UNL     1      41.428 -11.792   1.386  1.00  0.00    -0.356 OA
HETATM   30  C   UNL     1      41.368 -13.182   1.093  1.00  0.00     0.210 C 
ENDBRANCH  26  29
ENDBRANCH  22  23
ENDBRANCH  21  22
ENDBRANCH   1  21
BRANCH   4  31
HETATM   31  C   UNL     1      42.517  -8.905  12.149  1.00  0.00     0.047 A 
HETATM   32  C   UNL     1      41.550  -9.422  13.022  1.00  0.00     0.033 A 
HETATM   33  C   UNL     1      41.402  -8.928  14.326  1.00  0.00     0.039 A 
HETATM   34  C   UNL     1      42.209  -7.898  14.798  1.00  0.00     0.068 A 
HETATM   35  C   UNL     1      43.177  -7.371  13.951  1.00  0.00     0.039 A 
HETATM   36  C   UNL     1      43.328  -7.872  12.648  1.00  0.00     0.033 A 
BRANCH  34  37
HETATM   37  O   UNL     1      41.959  -7.505  16.081  1.00  0.00    -0.356 OA
HETATM   38  C   UNL     1      41.674  -6.127  16.288  1.00  0.00     0.210 C 
ENDBRANCH  34  37
ENDBRANCH   4  31
TORSDOF 10
ENDMDL
MODEL 3
REMARK VINA RESULT:      -8.3      4.931     10.288
REMARK  10 active torsions:
REMARK  status: ('A' for Active; 'I' for Inactive)
REMARK    1  A    between atoms: O_2  and  C_3 
REMARK    2  A    between atoms: C_6  and  C_7 
REMARK    3  A    between atoms: C_7  and  C_8 
REMARK    4  A    between atoms: C_8  and  N_9 
REMARK    5  A    between atoms: N_12  and  C_13 
REMARK    6  A    between atoms: C_16  and  O_17 
REMARK    7  A    between atoms: C_23  and  C_24 
REMARK    8  A    between atoms: C_24  and  C_25 
REMARK       I    between atoms: C_25  and  N_26 
REMARK    9  A    between atoms: N_26  and  C_27 
REMARK   10  A    between atoms: C_30  and  O_31 
ROOT
HETATM    1  N   UNL     1      43.111  -9.771   8.845  1.00  0.00    -0.319 N 
HETATM    2  C   UNL     1      43.581 -10.725   7.948  1.00  0.00     0.332 A 
HETATM    3  O   UNL     1      44.623 -11.342   8.124  1.00  0.00    -0.246 OA
HETATM    4  N   UNL     1      42.716 -10.780   6.872  1.00  0.00    -0.232 N 
HETATM    5  C   UNL     1      41.721  -9.846   7.046  1.00  0.00     0.256 A 
HETATM    6  O   UNL     1      40.808  -9.538   6.283  1.00  0.00    -0.270 OA
HETATM    7  C   UNL     1      41.872  -9.169   8.409  1.00  0.00     0.190 A 
ENDROOT
BRANCH   7   8
HETATM    8  C   UNL     1      41.899  -7.655   8.232  1.00  0.00     0.138 C 
BRANCH   8   9
HETATM    9  C   UNL     1      40.785  -7.016   9.042  1.00  0.00     0.224 C 
HETATM   10  N   UNL     1      40.926  -7.190  10.404  1.00  0.00    -0.327 N 
HETATM   11  H   UNL     1      41.783  -7.641  10.728  1.00  0.00     0.169 HD
HETATM   12  O   UNL     1      39.892  -6.397   8.471  1.00  0.00    -0.273 OA
BRANCH  10  13
HETATM   13  C   UNL     1      40.080  -6.731  11.432  1.00  0.00     0.034 A 
HETATM   14  C   UNL     1      40.237  -5.518  12.097  1.00  0.00     0.032 A 
HETATM   15  C   UNL     1      39.340  -5.150  13.109  1.00  0.00     0.039 A 
HETATM   16  C   UNL     1      38.282  -5.985  13.470  1.00  0.00     0.068 A 
HETATM   17  C   UNL     1      38.120  -7.198  12.804  1.00  0.00     0.039 A 
HETATM   18  C   UNL     1      39.014  -7.566  11.791  1.00  0.00     0.032 A 
BRANCH  16  19
HETATM   19  O   UNL     1      37.486  -5.507  14.473  1.00  0.00    -0.356 OA
HETATM   20  C   UNL     1      38.139  -5.073  15.660  1.00  0.00     0.210 C 
ENDBRANCH  16  19
ENDBRANCH  10  13
ENDBRANCH   8   9
ENDBRANCH   7   8
BRANCH   1  21
HETATM   21  C   UNL     1      43.823  -9.386  10.062  1.00  0.00     0.133 C 
BRANCH  21  22
HETATM   22  C   UNL     1      43.473 -10.245  11.279  1.00  0.00     0.058 C 
BRANCH  22  23
HETATM   23  C   UNL     1      42.926  -9.401  12.403  1.00  0.00    -0.057 A 
HETATM   24  C   UNL     1      41.798  -9.819  13.119  1.00  0.00     0.010 A 
HETATM   25  C   UNL     1      41.272  -9.015  14.134  1.00  0.00     0.037 A 
HETATM   26  C   UNL     1      41.860  -7.789  14.451  1.00  0.00     0.068 A 
HETATM   27  C   UNL     1      42.980  -7.366  13.737  1.00  0.00     0.037 A 
HETATM   28  C   UNL     1      43.509  -8.168  12.718  1.00  0.00     0.010 A 
BRANCH  26  29
HETATM   29  O   UNL     1      41.245  -7.104  15.463  1.00  0.00    -0.356 OA
HETATM   30  C   UNL     1      41.298  -7.688  16.758  1.00  0.00     0.210 C 
ENDBRANCH  26  29
ENDBRANCH  22  23
ENDBRANCH  21  22
ENDBRANCH   1  21
BRANCH   4  31
HETATM   31  C   UNL     1      42.873 -11.622   5.727  1.00  0.00     0.047 A 
HETATM   32  C   UNL     1      43.443 -11.147   4.538  1.00  0.00     0.033 A 
HETATM   33  C   UNL     1      43.597 -11.976   3.417  1.00  0.00     0.039 A 
HETATM   34  C   UNL     1      43.179 -13.302   3.445  1.00  0.00     0.068 A 
HETATM   35  C   UNL     1      42.613 -13.796   4.614  1.00  0.00     0.039 A 
HETATM   36  C   UNL     1      42.468 -12.967   5.737  1.00  0.00     0.033 A 
BRANCH  34  37
HETATM   37  O   UNL     1      43.378 -13.999   2.287  1.00  0.00    -0.356 OA
HETATM   38  C   UNL     1      42.266 -14.722   1.773  1.00  0.00     0.210 C 
ENDBRANCH  34  37
ENDBRANCH   4  31
TORSDOF 10
ENDMDL
MODEL 4
REMARK VINA RESULT:      -8.3      1.158      1.694
REMARK  10 active torsions:
REMARK  status: ('A' for Active; 'I' for Inactive)
REMARK    1  A    between atoms: O_2  and  C_3 
REMARK    2  A    between atoms: C_6  and  C_7 
REMARK    3  A    between atoms: C_7  and  C_8 
REMARK    4  A    between atoms: C_8  and  N_9 
REMARK    5  A    between atoms: N_12  and  C_13 
REMARK    6  A    between atoms: C_16  and  O_17 
REMARK    7  A    between atoms: C_23  and  C_24 
REMARK    8  A    between atoms: C_24  and  C_25 
REMARK       I    between atoms: C_25  and  N_26 
REMARK    9  A    between atoms: N_26  and  C_27 
REMARK   10  A    between atoms: C_30  and  O_31 
ROOT
HETATM    1  N   UNL     1      40.854 -13.743   0.951  1.00  0.00    -0.319 N 
HETATM    2  C   UNL     1      40.136 -13.479  -0.211  1.00  0.00     0.332 A 
HETATM    3  O   UNL     1      40.014 -14.296  -1.113  1.00  0.00    -0.246 OA
HETATM    4  N   UNL     1      39.673 -12.178  -0.155  1.00  0.00    -0.232 N 
HETATM    5  C   UNL     1      40.120 -11.590   1.005  1.00  0.00     0.256 A 
HETATM    6  O   UNL     1      39.984 -10.430   1.387  1.00  0.00    -0.270 OA
HETATM    7  C   UNL     1      40.868 -12.617   1.858  1.00  0.00     0.190 A 
ENDROOT
BRANCH   7   8
HETATM    8  C   UNL     1      42.246 -12.078   2.222  1.00  0.00     0.138 C 
BRANCH   8   9
HETATM    9  C   UNL     1      42.484 -12.224   3.715  1.00  0.00     0.224 C 
HETATM   10  N   UNL     1      43.371 -11.297   4.223  1.00  0.00    -0.327 N 
HETATM   11  H   UNL     1      43.702 -10.571   3.585  1.00  0.00     0.169 HD
HETATM   12  O   UNL     1      41.888 -13.091   4.347  1.00  0.00    -0.273 OA
BRANCH  10  13
HETATM   13  C   UNL     1      43.811 -11.151   5.554  1.00  0.00     0.034 A 
HETATM   14  C   UNL     1      45.063 -11.546   6.015  1.00  0.00     0.032 A 
HETATM   15  C   UNL     1      45.407 -11.358   7.360  1.00  0.00     0.039 A 
HETATM   16  C   UNL     1      44.509 -10.778   8.258  1.00  0.00     0.068 A 
HETATM   17  C   UNL     1      43.257 -10.379   7.798  1.00  0.00     0.039 A 
HETATM   18  C   UNL     1      42.912 -10.564   6.454  1.00  0.00     0.032 A 
BRANCH  16  19
HETATM   19  O   UNL     1      44.971 -10.658   9.539  1.00  0.00    -0.356 OA
HETATM   20  C   UNL     1      44.002 -10.422  10.553  1.00  0.00     0.210 C 
ENDBRANCH  16  19
ENDBRANCH  10  13
ENDBRANCH   8   9
ENDBRANCH   7   8
BRANCH   1  21
HETATM   21  C   UNL     1      41.561 -14.998   1.197  1.00  0.00     0.133 C 
BRANCH  21  22
HETATM   22  C   UNL     1      40.942 -15.846   2.311  1.00  0.00     0.058 C 
BRANCH  22  23
HETATM   23  C   UNL     1      41.974 -16.737   2.955  1.00  0.00    -0.057 A 
HETATM   24  C   UNL     1      42.622 -17.727   2.207  1.00  0.00     0.010 A 
HETATM   25  C   UNL     1      43.549 -18.575   2.818  1.00  0.00     0.037 A 
HETATM   26  C   UNL     1      43.846 -18.450   4.176  1.00  0.00     0.068 A 
HETATM   27  C   UNL     1      43.199 -17.469   4.926  1.00  0.00     0.037 A 
HETATM   28  C   UNL     1      42.267 -16.619   4.318  1.00  0.00     0.010 A 
BRANCH  26  29
HETATM   29  O   UNL     1      44.769 -19.343   4.645  1.00  0.00    -0.356 OA
HETATM   30  C   UNL     1      44.271 -20.570   5.164  1.00  0.00     0.210 C 
ENDBRANCH  26  29
ENDBRANCH  22  23
ENDBRANCH  21  22
ENDBRANCH   1  21
BRANCH   4  31
HETATM   31  C   UNL     1      38.914 -11.526  -1.176  1.00  0.00     0.047 A 
HETATM   32  C   UNL     1      39.523 -11.009  -2.328  1.00  0.00     0.033 A 
HETATM   33  C   UNL     1      38.775 -10.371  -3.329  1.00  0.00     0.039 A 
HETATM   34  C   UNL     1      37.398 -10.222  -3.208  1.00  0.00     0.068 A 
HETATM   35  C   UNL     1      36.771 -10.728  -2.075  1.00  0.00     0.039 A 
HETATM   36  C   UNL     1      37.521 -11.374  -1.079  1.00  0.00     0.033 A 
BRANCH  34  37
HETATM   37  O   UNL     1      36.789  -9.577  -4.246  1.00  0.00    -0.356 OA
HETATM   38  C   UNL     1      35.784  -8.627  -3.913  1.00  0.00     0.210 C 
ENDBRANCH  34  37
ENDBRANCH   4  31
TORSDOF 10
ENDMDL
MODEL 5
REMARK VINA RESULT:      -8.3      2.544      9.029
REMARK  10 active torsions:
REMARK  status: ('A' for Active; 'I' for Inactive)
REMARK    1  A    between atoms: O_2  and  C_3 
REMARK    2  A    between atoms: C_6  and  C_7 
REMARK    3  A    between atoms: C_7  and  C_8 
REMARK    4  A    between atoms: C_8  and  N_9 
REMARK    5  A    between atoms: N_12  and  C_13 
REMARK    6  A    between atoms: C_16  and  O_17 
REMARK    7  A    between atoms: C_23  and  C_24 
REMARK    8  A    between atoms: C_24  and  C_25 
REMARK       I    between atoms: C_25  and  N_26 
REMARK    9  A    between atoms: N_26  and  C_27 
REMARK   10  A    between atoms: C_30  and  O_31 
ROOT
HETATM    1  N   UNL     1      43.582 -11.723   6.646  1.00  0.00    -0.319 N 
HETATM    2  C   UNL     1      43.746 -10.993   7.819  1.00  0.00     0.332 A 
HETATM    3  O   UNL     1      44.461 -11.369   8.738  1.00  0.00    -0.246 OA
HETATM    4  N   UNL     1      42.947  -9.868   7.751  1.00  0.00    -0.232 N 
HETATM    5  C   UNL     1      42.242  -9.887   6.570  1.00  0.00     0.256 A 
HETATM    6  O   UNL     1      41.379  -9.107   6.172  1.00  0.00    -0.270 OA
HETATM    7  C   UNL     1      42.677 -11.081   5.719  1.00  0.00     0.190 A 
ENDROOT
BRANCH   7   8
HETATM    8  C   UNL     1      41.456 -11.898   5.315  1.00  0.00     0.138 C 
BRANCH   8   9
HETATM    9  C   UNL     1      41.511 -12.217   3.831  1.00  0.00     0.224 C 
HETATM   10  N   UNL     1      40.395 -12.885   3.371  1.00  0.00    -0.327 N 
HETATM   11  H   UNL     1      39.627 -13.018   4.031  1.00  0.00     0.169 HD
HETATM   12  O   UNL     1      42.477 -11.858   3.165  1.00  0.00    -0.273 OA
BRANCH  10  13
HETATM   13  C   UNL     1      40.124 -13.328   2.061  1.00  0.00     0.034 A 
HETATM   14  C   UNL     1      39.687 -12.504   1.028  1.00  0.00     0.032 A 
HETATM   15  C   UNL     1      39.444 -13.040  -0.244  1.00  0.00     0.039 A 
HETATM   16  C   UNL     1      39.632 -14.400  -0.498  1.00  0.00     0.068 A 
HETATM   17  C   UNL     1      40.073 -15.226   0.533  1.00  0.00     0.039 A 
HETATM   18  C   UNL     1      40.318 -14.691   1.803  1.00  0.00     0.032 A 
BRANCH  16  19
HETATM   19  O   UNL     1      39.355 -14.791  -1.779  1.00  0.00    -0.356 OA
HETATM   20  C   UNL     1      39.844 -13.959  -2.824  1.00  0.00     0.210 C 
ENDBRANCH  16  19
ENDBRANCH  10  13
ENDBRANCH   8   9
ENDBRANCH   7   8
BRANCH   1  21
HETATM   21  C   UNL     1      44.212 -13.020   6.406  1.00  0.00     0.133 C 
BRANCH  21  22
HETATM   22  C   UNL     1      43.381 -14.209   6.894  1.00  0.00     0.058 C 
BRANCH  22  23
HETATM   23  C   UNL     1      43.486 -15.374   5.943  1.00  0.00    -0.057 A 
HETATM   24  C   UNL     1      44.104 -16.564   6.345  1.00  0.00     0.010 A 
HETATM   25  C   UNL     1      44.233 -17.627   5.447  1.00  0.00     0.037 A 
HETATM   26  C   UNL     1      43.749 -17.523   4.142  1.00  0.00     0.068 A 
HETATM   27  C   UNL     1      43.138 -16.338   3.736  1.00  0.00     0.037 A 
HETATM   28  C   UNL     1      43.009 -15.270   4.632  1.00  0.00     0.010 A 
BRANCH  26  29
HETATM   29  O   UNL     1      43.941 -18.636   3.370  1.00  0.00    -0.356 OA
HETATM   30  C   UNL     1      43.075 -18.800   2.255  1.00  0.00     0.210 C 
ENDBRANCH  26  29
ENDBRANCH  22  23
ENDBRANCH  21  22
ENDBRANCH   1  21
BRANCH   4  31
HETATM   31  C   UNL     1      42.821  -8.881   8.777  1.00  0.00     0.047 A 
HETATM   32  C   UNL     1      42.093  -9.128   9.949  1.00  0.00     0.033 A 
HETATM   33  C   UNL     1      41.972  -8.158  10.955  1.00  0.00     0.039 A 
HETATM   34  C   UNL     1      42.566  -6.907  10.819  1.00  0.00     0.068 A 
HETATM   35  C   UNL     1      43.294  -6.640   9.666  1.00  0.00     0.039 A 
HETATM   36  C   UNL     1      43.421  -7.615   8.664  1.00  0.00     0.033 A 
BRANCH  34  37
HETATM   37  O   UNL     1      42.366  -6.052  11.864  1.00  0.00    -0.356 OA
HETATM   38  C   UNL     1      41.326  -6.384  12.777  1.00  0.00     0.210 C 
ENDBRANCH  34  37
ENDBRANCH   4  31
TORSDOF 10
ENDMDL
MODEL 6
REMARK VINA RESULT:      -8.0      4.440      9.184
REMARK  10 active torsions:
REMARK  status: ('A' for Active; 'I' for Inactive)
REMARK    1  A    between atoms: O_2  and  C_3 
REMARK    2  A    between atoms: C_6  and  C_7 
REMARK    3  A    between atoms: C_7  and  C_8 
REMARK    4  A    between atoms: C_8  and  N_9 
REMARK    5  A    between atoms: N_12  and  C_13 
REMARK    6  A    between atoms: C_16  and  O_17 
REMARK    7  A    between atoms: C_23  and  C_24 
REMARK    8  A    between atoms: C_24  and  C_25 
REMARK       I    between atoms: C_25  and  N_26 
REMARK    9  A    between atoms: N_26  and  C_27 
REMARK   10  A    between atoms: C_30  and  O_31 
ROOT
HETATM    1  N   UNL     1      42.979 -11.117   6.806  1.00  0.00    -0.319 N 
HETATM    2  C   UNL     1      43.573 -12.146   6.082  1.00  0.00     0.332 A 
HETATM    3  O   UNL     1      44.786 -12.265   5.977  1.00  0.00    -0.246 OA
HETATM    4  N   UNL     1      42.578 -12.910   5.505  1.00  0.00    -0.232 N 
HETATM    5  C   UNL     1      41.354 -12.363   5.813  1.00  0.00     0.256 A 
HETATM    6  O   UNL     1      40.236 -12.704   5.434  1.00  0.00    -0.270 OA
HETATM    7  C   UNL     1      41.535 -11.179   6.766  1.00  0.00     0.190 A 
ENDROOT
BRANCH   7   8
HETATM    8  C   UNL     1      40.835  -9.950   6.200  1.00  0.00     0.138 C 
BRANCH   8   9
HETATM    9  C   UNL     1      40.485  -8.987   7.322  1.00  0.00     0.224 C 
HETATM   10  N   UNL     1      40.102  -9.618   8.488  1.00  0.00    -0.327 N 
HETATM   11  H   UNL     1      40.173 -10.637   8.510  1.00  0.00     0.169 HD
HETATM   12  O   UNL     1      40.584  -7.778   7.141  1.00  0.00    -0.273 OA
BRANCH  10  13
HETATM   13  C   UNL     1      39.716  -9.030   9.708  1.00  0.00     0.034 A 
HETATM   14  C   UNL     1      39.085  -7.795   9.821  1.00  0.00     0.032 A 
HETATM   15  C   UNL     1      38.739  -7.295  11.084  1.00  0.00     0.039 A 
HETATM   16  C   UNL     1      39.020  -8.018  12.245  1.00  0.00     0.068 A 
HETATM   17  C   UNL     1      39.648  -9.256  12.134  1.00  0.00     0.039 A 
HETATM   18  C   UNL     1      39.992  -9.758  10.874  1.00  0.00     0.032 A 
BRANCH  16  19
HETATM   19  O   UNL     1      38.633  -7.413  13.408  1.00  0.00    -0.356 OA
HETATM   20  C   UNL     1      38.011  -6.139  13.294  1.00  0.00     0.210 C 
ENDBRANCH  16  19
ENDBRANCH  10  13
ENDBRANCH   8   9
ENDBRANCH   7   8
BRANCH   1  21
HETATM   21  C   UNL     1      43.732 -10.063   7.481  1.00  0.00     0.133 C 
BRANCH  21  22
HETATM   22  C   UNL     1      44.180 -10.434   8.896  1.00  0.00     0.058 C 
BRANCH  22  23
HETATM   23  C   UNL     1      43.697  -9.422   9.904  1.00  0.00    -0.057 A 
HETATM   24  C   UNL     1      43.270  -8.155   9.489  1.00  0.00     0.010 A 
HETATM   25  C   UNL     1      42.860  -7.208  10.430  1.00  0.00     0.037 A 
HETATM   26  C   UNL     1      42.867  -7.507  11.794  1.00  0.00     0.068 A 
HETATM   27  C   UNL     1      43.297  -8.765  12.213  1.00  0.00     0.037 A 
HETATM   28  C   UNL     1      43.711  -9.716  11.273  1.00  0.00     0.010 A 
BRANCH  26  29
HETATM   29  O   UNL     1      42.442  -6.490  12.604  1.00  0.00    -0.356 OA
HETATM   30  C   UNL     1      41.826  -5.377  11.969  1.00  0.00     0.210 C 
ENDBRANCH  26  29
ENDBRANCH  22  23
ENDBRANCH  21  22
ENDBRANCH   1  21
BRANCH   4  31
HETATM   31  C   UNL     1      42.790 -14.045   4.662  1.00  0.00     0.047 A 
HETATM   32  C   UNL     1      42.803 -15.349   5.175  1.00  0.00     0.033 A 
HETATM   33  C   UNL     1      43.010 -16.461   4.345  1.00  0.00     0.039 A 
HETATM   34  C   UNL     1      43.219 -16.306   2.979  1.00  0.00     0.068 A 
HETATM   35  C   UNL     1      43.208 -15.022   2.447  1.00  0.00     0.039 A 
HETATM   36  C   UNL     1      42.992 -13.911   3.278  1.00  0.00     0.033 A 
BRANCH  34  37
HETATM   37  O   UNL     1      43.415 -17.465   2.285  1.00  0.00    -0.356 OA
HETATM   38  C   UNL     1      43.987 -18.553   3.001  1.00  0.00     0.210 C 
ENDBRANCH  34  37
ENDBRANCH   4  31
TORSDOF 10
ENDMDL
MODEL 7
REMARK VINA RESULT:      -8.0      2.672      7.532
REMARK  10 active torsions:
REMARK  status: ('A' for Active; 'I' for Inactive)
REMARK    1  A    between atoms: O_2  and  C_3 
REMARK    2  A    between atoms: C_6  and  C_7 
REMARK    3  A    between atoms: C_7  and  C_8 
REMARK    4  A    between atoms: C_8  and  N_9 
REMARK    5  A    between atoms: N_12  and  C_13 
REMARK    6  A    between atoms: C_16  and  O_17 
REMARK    7  A    between atoms: C_23  and  C_24 
REMARK    8  A    between atoms: C_24  and  C_25 
REMARK       I    between atoms: C_25  and  N_26 
REMARK    9  A    between atoms: N_26  and  C_27 
REMARK   10  A    between atoms: C_30  and  O_31 
ROOT
HETATM    1  N   UNL     1      40.164 -11.856   4.542  1.00  0.00    -0.319 N 
HETATM    2  C   UNL     1      39.617 -12.226   3.318  1.00  0.00     0.332 A 
HETATM    3  O   UNL     1      38.416 -12.388   3.151  1.00  0.00    -0.246 OA
HETATM    4  N   UNL     1      40.647 -12.412   2.415  1.00  0.00    -0.232 N 
HETATM    5  C   UNL     1      41.848 -12.207   3.053  1.00  0.00     0.256 A 
HETATM    6  O   UNL     1      42.989 -12.345   2.617  1.00  0.00    -0.270 OA
HETATM    7  C   UNL     1      41.605 -11.745   4.491  1.00  0.00     0.190 A 
ENDROOT
BRANCH   7   8
HETATM    8  C   UNL     1      42.372 -12.640   5.457  1.00  0.00     0.138 C 
BRANCH   8   9
HETATM    9  C   UNL     1      42.146 -14.100   5.104  1.00  0.00     0.224 C 
HETATM   10  N   UNL     1      43.166 -14.647   4.353  1.00  0.00    -0.327 N 
HETATM   11  H   UNL     1      43.987 -14.063   4.187  1.00  0.00     0.169 HD
HETATM   12  O   UNL     1      41.142 -14.677   5.509  1.00  0.00    -0.273 OA
BRANCH  10  13
HETATM   13  C   UNL     1      43.274 -15.963   3.861  1.00  0.00     0.034 A 
HETATM   14  C   UNL     1      42.918 -16.352   2.573  1.00  0.00     0.032 A 
HETATM   15  C   UNL     1      43.063 -17.689   2.177  1.00  0.00     0.039 A 
HETATM   16  C   UNL     1      43.562 -18.650   3.058  1.00  0.00     0.068 A 
HETATM   17  C   UNL     1      43.922 -18.262   4.347  1.00  0.00     0.039 A 
HETATM   18  C   UNL     1      43.780 -16.927   4.743  1.00  0.00     0.032 A 
BRANCH  16  19
HETATM   19  O   UNL     1      43.649 -19.913   2.545  1.00  0.00    -0.356 OA
HETATM   20  C   UNL     1      43.882 -20.968   3.470  1.00  0.00     0.210 C 
ENDBRANCH  16  19
ENDBRANCH  10  13
ENDBRANCH   8   9
ENDBRANCH   7   8
BRANCH   1  21
HETATM   21  C   UNL     1      39.373 -11.658   5.754  1.00  0.00     0.133 C 
BRANCH  21  22
HETATM   22  C   UNL     1      39.151 -10.187   6.113  1.00  0.00     0.058 C 
BRANCH  22  23
HETATM   23  C   UNL     1      39.843  -9.831   7.405  1.00  0.00    -0.057 A 
HETATM   24  C   UNL     1      39.147  -9.874   8.618  1.00  0.00     0.010 A 
HETATM   25  C   UNL     1      39.782  -9.506   9.807  1.00  0.00     0.037 A 
HETATM   26  C   UNL     1      41.115  -9.092   9.806  1.00  0.00     0.068 A 
HETATM   27  C   UNL     1      41.811  -9.041   8.599  1.00  0.00     0.037 A 
HETATM   28  C   UNL     1      41.177  -9.407   7.406  1.00  0.00     0.010 A 
BRANCH  26  29
HETATM   29  O   UNL     1      41.612  -8.761  11.037  1.00  0.00    -0.356 OA
HETATM   30  C   UNL     1      40.729  -8.089  11.926  1.00  0.00     0.210 C 
ENDBRANCH  26  29
ENDBRANCH  22  23
ENDBRANCH  21  22
ENDBRANCH   1  21
BRANCH   4  31
HETATM   31  C   UNL     1      40.490 -12.823   1.055  1.00  0.00     0.047 A 
HETATM   32  C   UNL     1      40.109 -14.130   0.721  1.00  0.00     0.033 A 
HETATM   33  C   UNL     1      39.954 -14.529  -0.614  1.00  0.00     0.039 A 
HETATM   34  C   UNL     1      40.183 -13.640  -1.659  1.00  0.00     0.068 A 
HETATM   35  C   UNL     1      40.559 -12.338  -1.353  1.00  0.00     0.039 A 
HETATM   36  C   UNL     1      40.706 -11.938  -0.015  1.00  0.00     0.033 A 
BRANCH  34  37
HETATM   37  O   UNL     1      40.005 -14.155  -2.911  1.00  0.00    -0.356 OA
HETATM   38  C   UNL     1      38.726 -14.705  -3.204  1.00  0.00     0.210 C 
ENDBRANCH  34  37
ENDBRANCH   4  31
TORSDOF 10
ENDMDL
MODEL 8
REMARK VINA RESULT:      -7.9     16.610     18.937
REMARK  10 active torsions:
REMARK  status: ('A' for Active; 'I' for Inactive)
REMARK    1  A    between atoms: O_2  and  C_3 
REMARK    2  A    between atoms: C_6  and  C_7 
REMARK    3  A    between atoms: C_7  and  C_8 
REMARK    4  A    between atoms: C_8  and  N_9 
REMARK    5  A    between atoms: N_12  and  C_13 
REMARK    6  A    between atoms: C_16  and  O_17 
REMARK    7  A    between atoms: C_23  and  C_24 
REMARK    8  A    between atoms: C_24  and  C_25 
REMARK       I    between atoms: C_25  and  N_26 
REMARK    9  A    between atoms: N_26  and  C_27 
REMARK   10  A    between atoms: C_30  and  O_31 
ROOT
HETATM    1  N   UNL     1      44.675 -29.551   0.521  1.00  0.00    -0.319 N 
HETATM    2  C   UNL     1      44.458 -30.271  -0.649  1.00  0.00     0.332 A 
HETATM    3  O   UNL     1      43.752 -31.270  -0.690  1.00  0.00    -0.246 OA
HETATM    4  N   UNL     1      45.197 -29.694  -1.664  1.00  0.00    -0.232 N 
HETATM    5  C   UNL     1      45.918 -28.640  -1.153  1.00  0.00     0.256 A 
HETATM    6  O   UNL     1      46.743 -27.923  -1.715  1.00  0.00    -0.270 OA
HETATM    7  C   UNL     1      45.558 -28.424   0.318  1.00  0.00     0.190 A 
ENDROOT
BRANCH   7   8
HETATM    8  C   UNL     1      46.825 -28.416   1.163  1.00  0.00     0.138 C 
BRANCH   8   9
HETATM    9  C   UNL     1      47.720 -29.579   0.771  1.00  0.00     0.224 C 
HETATM   10  N   UNL     1      48.837 -29.196   0.057  1.00  0.00    -0.327 N 
HETATM   11  H   UNL     1      48.995 -28.194  -0.058  1.00  0.00     0.169 HD
HETATM   12  O   UNL     1      47.425 -30.719   1.116  1.00  0.00    -0.273 OA
BRANCH  10  13
HETATM   13  C   UNL     1      49.864 -30.013  -0.456  1.00  0.00     0.034 A 
HETATM   14  C   UNL     1      50.763 -30.731   0.327  1.00  0.00     0.032 A 
HETATM   15  C   UNL     1      51.752 -31.517  -0.279  1.00  0.00     0.039 A 
HETATM   16  C   UNL     1      51.856 -31.595  -1.669  1.00  0.00     0.068 A 
HETATM   17  C   UNL     1      50.956 -30.880  -2.456  1.00  0.00     0.039 A 
HETATM   18  C   UNL     1      49.966 -30.096  -1.851  1.00  0.00     0.032 A 
BRANCH  16  19
HETATM   19  O   UNL     1      52.866 -32.394  -2.128  1.00  0.00    -0.356 OA
HETATM   20  C   UNL     1      53.755 -32.928  -1.155  1.00  0.00     0.210 C 
ENDBRANCH  16  19
ENDBRANCH  10  13
ENDBRANCH   8   9
ENDBRANCH   7   8
BRANCH   1  21
HETATM   21  C   UNL     1      44.118 -29.928   1.818  1.00  0.00     0.133 C 
BRANCH  21  22
HETATM   22  C   UNL     1      42.786 -29.247   2.139  1.00  0.00     0.058 C 
BRANCH  22  23
HETATM   23  C   UNL     1      41.798 -30.227   2.719  1.00  0.00    -0.057 A 
HETATM   24  C   UNL     1      41.478 -30.189   4.081  1.00  0.00     0.010 A 
HETATM   25  C   UNL     1      40.591 -31.124   4.621  1.00  0.00     0.037 A 
HETATM   26  C   UNL     1      40.010 -32.106   3.816  1.00  0.00     0.068 A 
HETATM   27  C   UNL     1      40.330 -32.151   2.460  1.00  0.00     0.037 A 
HETATM   28  C   UNL     1      41.220 -31.217   1.916  1.00  0.00     0.010 A 
BRANCH  26  29
HETATM   29  O   UNL     1      39.162 -32.955   4.472  1.00  0.00    -0.356 OA
HETATM   30  C   UNL     1      38.009 -33.387   3.761  1.00  0.00     0.210 C 
ENDBRANCH  26  29
ENDBRANCH  22  23
ENDBRANCH  21  22
ENDBRANCH   1  21
BRANCH   4  31
HETATM   31  C   UNL     1      45.258 -30.165  -3.013  1.00  0.00     0.047 A 
HETATM   32  C   UNL     1      44.350 -29.725  -3.986  1.00  0.00     0.033 A 
HETATM   33  C   UNL     1      44.414 -30.187  -5.309  1.00  0.00     0.039 A 
HETATM   34  C   UNL     1      45.379 -31.109  -5.700  1.00  0.00     0.068 A 
HETATM   35  C   UNL     1      46.292 -31.557  -4.753  1.00  0.00     0.039 A 
HETATM   36  C   UNL     1      46.232 -31.087  -3.431  1.00  0.00     0.033 A 
BRANCH  34  37
HETATM   37  O   UNL     1      45.328 -31.483  -7.012  1.00  0.00    -0.356 OA
HETATM   38  C   UNL     1      44.094 -31.282  -7.690  1.00  0.00     0.210 C 
ENDBRANCH  34  37
ENDBRANCH   4  31
TORSDOF 10
ENDMDL
MODEL 9
REMARK VINA RESULT:      -7.9      1.891      8.885
REMARK  10 active torsions:
REMARK  status: ('A' for Active; 'I' for Inactive)
REMARK    1  A    between atoms: O_2  and  C_3 
REMARK    2  A    between atoms: C_6  and  C_7 
REMARK    3  A    between atoms: C_7  and  C_8 
REMARK    4  A    between atoms: C_8  and  N_9 
REMARK    5  A    between atoms: N_12  and  C_13 
REMARK    6  A    between atoms: C_16  and  O_17 
REMARK    7  A    between atoms: C_23  and  C_24 
REMARK    8  A    between atoms: C_24  and  C_25 
REMARK       I    between atoms: C_25  and  N_26 
REMARK    9  A    between atoms: N_26  and  C_27 
REMARK   10  A    between atoms: C_30  and  O_31 
ROOT
HETATM    1  N   UNL     1      40.818 -11.778   2.046  1.00  0.00    -0.319 N 
HETATM    2  C   UNL     1      41.861 -11.458   2.909  1.00  0.00     0.332 A 
HETATM    3  O   UNL     1      42.886 -10.906   2.531  1.00  0.00    -0.246 OA
HETATM    4  N   UNL     1      41.541 -11.911   4.174  1.00  0.00    -0.232 N 
HETATM    5  C   UNL     1      40.327 -12.555   4.128  1.00  0.00     0.256 A 
HETATM    6  O   UNL     1      39.734 -13.154   5.023  1.00  0.00    -0.270 OA
HETATM    7  C   UNL     1      39.726 -12.439   2.725  1.00  0.00     0.190 A 
ENDROOT
BRANCH   7   8
HETATM    8  C   UNL     1      39.365 -13.825   2.204  1.00  0.00     0.138 C 
BRANCH   8   9
HETATM    9  C   UNL     1      40.597 -14.714   2.190  1.00  0.00     0.224 C 
HETATM   10  N   UNL     1      40.746 -15.463   3.339  1.00  0.00    -0.327 N 
HETATM   11  H   UNL     1      39.993 -15.416   4.026  1.00  0.00     0.169 HD
HETATM   12  O   UNL     1      41.328 -14.729   1.204  1.00  0.00    -0.273 OA
BRANCH  10  13
HETATM   13  C   UNL     1      41.768 -16.382   3.652  1.00  0.00     0.034 A 
HETATM   14  C   UNL     1      42.420 -16.443   4.880  1.00  0.00     0.032 A 
HETATM   15  C   UNL     1      43.426 -17.395   5.094  1.00  0.00     0.039 A 
HETATM   16  C   UNL     1      43.794 -18.292   4.089  1.00  0.00     0.068 A 
HETATM   17  C   UNL     1      43.140 -18.234   2.861  1.00  0.00     0.039 A 
HETATM   18  C   UNL     1      42.134 -17.286   2.646  1.00  0.00     0.032 A 
BRANCH  16  19
HETATM   19  O   UNL     1      44.790 -19.163   4.430  1.00  0.00    -0.356 OA
HETATM   20  C   UNL     1      44.392 -20.467   4.835  1.00  0.00     0.210 C 
ENDBRANCH  16  19
ENDBRANCH  10  13
ENDBRANCH   8   9
ENDBRANCH   7   8
BRANCH   1  21
HETATM   21  C   UNL     1      40.850 -11.524   0.608  1.00  0.00     0.133 C 
BRANCH  21  22
HETATM   22  C   UNL     1      39.795 -10.521   0.135  1.00  0.00     0.058 C 
BRANCH  22  23
HETATM   23  C   UNL     1      38.841 -11.156  -0.845  1.00  0.00    -0.057 A 
HETATM   24  C   UNL     1      37.842 -10.392  -1.460  1.00  0.00     0.010 A 
HETATM   25  C   UNL     1      36.936 -10.993  -2.337  1.00  0.00     0.037 A 
HETATM   26  C   UNL     1      37.011 -12.358  -2.616  1.00  0.00     0.068 A 
HETATM   27  C   UNL     1      38.000 -13.126  -2.002  1.00  0.00     0.037 A 
HETATM   28  C   UNL     1      38.908 -12.527  -1.120  1.00  0.00     0.010 A 
BRANCH  26  29
HETATM   29  O   UNL     1      36.064 -12.816  -3.490  1.00  0.00    -0.356 OA
HETATM   30  C   UNL     1      35.041 -11.903  -3.865  1.00  0.00     0.210 C 
ENDBRANCH  26  29
ENDBRANCH  22  23
ENDBRANCH  21  22
ENDBRANCH   1  21
BRANCH   4  31
HETATM   31  C   UNL     1      42.374 -11.794   5.330  1.00  0.00     0.047 A 
HETATM   32  C   UNL     1      42.338 -10.657   6.150  1.00  0.00     0.033 A 
HETATM   33  C   UNL     1      43.155 -10.546   7.284  1.00  0.00     0.039 A 
HETATM   34  C   UNL     1      44.041 -11.561   7.631  1.00  0.00     0.068 A 
HETATM   35  C   UNL     1      44.093 -12.698   6.835  1.00  0.00     0.039 A 
HETATM   36  C   UNL     1      43.268 -12.811   5.704  1.00  0.00     0.033 A 
BRANCH  34  37
HETATM   37  O   UNL     1      44.784 -11.325   8.752  1.00  0.00    -0.356 OA
HETATM   38  C   UNL     1      44.403 -10.214   9.554  1.00  0.00     0.210 C 
ENDBRANCH  34  37
ENDBRANCH   4  31
TORSDOF 10
ENDMDL
MODEL 10
REMARK VINA RESULT:      -7.9      1.755      6.455
REMARK  10 active torsions:
REMARK  status: ('A' for Active; 'I' for Inactive)
REMARK    1  A    between atoms: O_2  and  C_3 
REMARK    2  A    between atoms: C_6  and  C_7 
REMARK    3  A    between atoms: C_7  and  C_8 
REMARK    4  A    between atoms: C_8  and  N_9 
REMARK    5  A    between atoms: N_12  and  C_13 
REMARK    6  A    between atoms: C_16  and  O_17 
REMARK    7  A    between atoms: C_23  and  C_24 
REMARK    8  A    between atoms: C_24  and  C_25 
REMARK       I    between atoms: C_25  and  N_26 
REMARK    9  A    between atoms: N_26  and  C_27 
REMARK   10  A    between atoms: C_30  and  O_31 
ROOT
HETATM    1  N   UNL     1      41.444 -12.353   1.990  1.00  0.00    -0.319 N 
HETATM    2  C   UNL     1      41.378 -11.078   1.437  1.00  0.00     0.332 A 
HETATM    3  O   UNL     1      41.471 -10.060   2.109  1.00  0.00    -0.246 OA
HETATM    4  N   UNL     1      41.147 -11.199   0.081  1.00  0.00    -0.232 N 
HETATM    5  C   UNL     1      41.022 -12.531  -0.238  1.00  0.00     0.256 A 
HETATM    6  O   UNL     1      40.743 -13.045  -1.319  1.00  0.00    -0.270 OA
HETATM    7  C   UNL     1      41.291 -13.392   0.997  1.00  0.00     0.190 A 
ENDROOT
BRANCH   7   8
HETATM    8  C   UNL     1      40.130 -14.353   1.219  1.00  0.00     0.138 C 
BRANCH   8   9
HETATM    9  C   UNL     1      40.562 -15.493   2.126  1.00  0.00     0.224 C 
HETATM   10  N   UNL     1      41.891 -15.834   1.982  1.00  0.00    -0.327 N 
HETATM   11  H   UNL     1      42.458 -15.250   1.365  1.00  0.00     0.169 HD
HETATM   12  O   UNL     1      39.756 -15.992   2.904  1.00  0.00    -0.273 OA
BRANCH  10  13
HETATM   13  C   UNL     1      42.610 -16.837   2.663  1.00  0.00     0.034 A 
HETATM   14  C   UNL     1      42.886 -18.097   2.141  1.00  0.00     0.032 A 
HETATM   15  C   UNL     1      43.610 -19.028   2.898  1.00  0.00     0.039 A 
HETATM   16  C   UNL     1      44.064 -18.715   4.180  1.00  0.00     0.068 A 
HETATM   17  C   UNL     1      43.792 -17.453   4.704  1.00  0.00     0.039 A 
HETATM   18  C   UNL     1      43.070 -16.521   3.948  1.00  0.00     0.032 A 
BRANCH  16  19
HETATM   19  O   UNL     1      44.754 -19.714   4.808  1.00  0.00    -0.356 OA
HETATM   20  C   UNL     1      44.009 -20.859   5.203  1.00  0.00     0.210 C 
ENDBRANCH  16  19
ENDBRANCH  10  13
ENDBRANCH   8   9
ENDBRANCH   7   8
BRANCH   1  21
HETATM   21  C   UNL     1      41.594 -12.607   3.421  1.00  0.00     0.133 C 
BRANCH  21  22
HETATM   22  C   UNL     1      43.051 -12.705   3.881  1.00  0.00     0.058 C 
BRANCH  22  23
HETATM   23  C   UNL     1      43.260 -11.984   5.189  1.00  0.00    -0.057 A 
HETATM   24  C   UNL     1      44.038 -12.560   6.200  1.00  0.00     0.010 A 
HETATM   25  C   UNL     1      44.197 -11.905   7.423  1.00  0.00     0.037 A 
HETATM   26  C   UNL     1      43.588 -10.672   7.658  1.00  0.00     0.068 A 
HETATM   27  C   UNL     1      42.806 -10.097   6.656  1.00  0.00     0.037 A 
HETATM   28  C   UNL     1      42.643 -10.751   5.429  1.00  0.00     0.010 A 
BRANCH  26  29
HETATM   29  O   UNL     1      43.825 -10.142   8.897  1.00  0.00    -0.356 OA
HETATM   30  C   UNL     1      44.522  -8.904   8.943  1.00  0.00     0.210 C 
ENDBRANCH  26  29
ENDBRANCH  22  23
ENDBRANCH  21  22
ENDBRANCH   1  21
BRANCH   4  31
HETATM   31  C   UNL     1      40.990 -10.109  -0.832  1.00  0.00     0.047 A 
HETATM   32  C   UNL     1      42.091  -9.381  -1.303  1.00  0.00     0.033 A 
HETATM   33  C   UNL     1      41.934  -8.314  -2.199  1.00  0.00     0.039 A 
HETATM   34  C   UNL     1      40.672  -7.934  -2.647  1.00  0.00     0.068 A 
HETATM   35  C   UNL     1      39.566  -8.643  -2.195  1.00  0.00     0.039 A 
HETATM   36  C   UNL     1      39.727  -9.716  -1.304  1.00  0.00     0.033 A 
BRANCH  34  37
HETATM   37  O   UNL     1      40.656  -6.877  -3.510  1.00  0.00    -0.356 OA
HETATM   38  C   UNL     1      41.425  -7.005  -4.700  1.00  0.00     0.210 C 
ENDBRANCH  34  37
ENDBRANCH   4  31
TORSDOF 10
ENDMDL
