MODEL 1
REMARK VINA RESULT:      -7.7      0.000      0.000
REMARK  3 active torsions:
REMARK  status: ('A' for Active; 'I' for Inactive)
REMARK    1  A    between atoms: C_4  and  C_5 
REMARK    2  A    between atoms: C_5  and  N_6 
REMARK    3  A    between atoms: N_10  and  S_11 
ROOT
HETATM    1  N   UNL     1      42.774 -16.492   5.005  1.00  0.00    -0.063 N 
HETATM    2  H   UNL     1      42.284 -17.072   4.310  1.00  0.00     0.280 HD
HETATM    3  C   UNL     1      43.020 -15.118   4.396  1.00  0.00     0.267 C 
HETATM    4  C   UNL     1      41.681 -14.397   4.017  1.00  0.00     0.067 C 
HETATM    5  N   UNL     1      41.917 -13.000   3.418  1.00  0.00    -0.300 N 
HETATM    6  C   UNL     1      40.642 -12.330   3.002  1.00  0.00     0.136 C 
HETATM    7  C   UNL     1      39.956 -13.154   1.919  1.00  0.00     0.021 C 
HETATM    8  C   UNL     1      39.699 -14.581   2.376  1.00  0.00     0.004 C 
HETATM    9  C   UNL     1      40.983 -15.224   2.893  1.00  0.00     0.033 C 
HETATM   10  C   UNL     1      40.826 -14.335   5.309  1.00  0.00     0.035 C 
HETATM   11  C   UNL     1      40.642 -15.701   5.978  1.00  0.00     0.030 C 
HETATM   12  C   UNL     1      41.962 -16.404   6.262  1.00  0.00     0.235 C 
ENDROOT
BRANCH   5  13
HETATM   13  S   UNL     1      43.059 -11.975   4.173  1.00  0.00     0.225 S 
HETATM   14  C   UNL     1      42.234 -10.397   4.302  1.00  0.00     0.186 C 
HETATM   15  O   UNL     1      43.296 -12.514   5.491  1.00  0.00    -0.206 OA
HETATM   16  O   UNL     1      44.151 -11.815   3.234  1.00  0.00    -0.206 OA
ENDBRANCH   5  13
BRANCH   1  17
HETATM   17  C   UNL     1      44.078 -17.243   5.214  1.00  0.00     0.299 C 
BRANCH  17  18
HETATM   18  C   UNL     1      43.998 -18.638   4.713  1.00  0.00     0.079 A 
HETATM   19  O   UNL     1      43.828 -18.779   3.363  1.00  0.00    -0.318 OA
HETATM   20  C   UNL     1      43.802 -20.117   3.105  1.00  0.00     0.049 A 
HETATM   21  C   UNL     1      43.639 -20.524   1.694  1.00  0.00     0.076 C 
HETATM   22  C   UNL     1      43.950 -20.828   4.276  1.00  0.00     0.035 A 
HETATM   23  C   UNL     1      44.076 -19.874   5.314  1.00  0.00     0.037 A 
ENDBRANCH  17  18
ENDBRANCH   1  17
TORSDOF 3
ENDMDL
MODEL 2
REMARK VINA RESULT:      -7.4      2.555      3.860
REMARK  3 active torsions:
REMARK  status: ('A' for Active; 'I' for Inactive)
REMARK    1  A    between atoms: C_4  and  C_5 
REMARK    2  A    between atoms: C_5  and  N_6 
REMARK    3  A    between atoms: N_10  and  S_11 
ROOT
HETATM    1  N   UNL     1      42.545 -14.746   3.873  1.00  0.00    -0.063 N 
HETATM    2  H   UNL     1      43.405 -15.046   4.351  1.00  0.00     0.280 HD
HETATM    3  C   UNL     1      41.722 -13.911   4.845  1.00  0.00     0.267 C 
HETATM    4  C   UNL     1      42.493 -12.628   5.313  1.00  0.00     0.067 C 
HETATM    5  N   UNL     1      41.664 -11.766   6.281  1.00  0.00    -0.300 N 
HETATM    6  C   UNL     1      42.418 -10.569   6.775  1.00  0.00     0.136 C 
HETATM    7  C   UNL     1      43.653 -11.019   7.546  1.00  0.00     0.021 C 
HETATM    8  C   UNL     1      44.546 -11.918   6.705  1.00  0.00     0.004 C 
HETATM    9  C   UNL     1      43.747 -13.081   6.122  1.00  0.00     0.033 C 
HETATM   10  C   UNL     1      42.879 -11.846   4.031  1.00  0.00     0.035 C 
HETATM   11  C   UNL     1      43.633 -12.701   3.006  1.00  0.00     0.030 C 
HETATM   12  C   UNL     1      42.889 -13.975   2.634  1.00  0.00     0.235 C 
ENDROOT
BRANCH   5  13
HETATM   13  S   UNL     1      40.019 -11.483   5.910  1.00  0.00     0.225 S 
HETATM   14  C   UNL     1      39.518 -10.193   7.039  1.00  0.00     0.186 C 
HETATM   15  O   UNL     1      39.975 -10.991   4.554  1.00  0.00    -0.206 OA
HETATM   16  O   UNL     1      39.300 -12.684   6.282  1.00  0.00    -0.206 OA
ENDBRANCH   5  13
BRANCH   1  17
HETATM   17  C   UNL     1      41.854 -16.062   3.558  1.00  0.00     0.299 C 
BRANCH  17  18
HETATM   18  C   UNL     1      42.803 -17.203   3.588  1.00  0.00     0.079 A 
HETATM   19  O   UNL     1      42.630 -18.150   2.616  1.00  0.00    -0.318 OA
HETATM   20  C   UNL     1      43.600 -19.090   2.801  1.00  0.00     0.049 A 
HETATM   21  C   UNL     1      43.626 -20.221   1.851  1.00  0.00     0.076 C 
HETATM   22  C   UNL     1      44.386 -18.752   3.881  1.00  0.00     0.035 A 
HETATM   23  C   UNL     1      43.871 -17.536   4.390  1.00  0.00     0.037 A 
ENDBRANCH  17  18
ENDBRANCH   1  17
TORSDOF 3
ENDMDL
MODEL 3
REMARK VINA RESULT:      -7.4      1.941      2.616
REMARK  3 active torsions:
REMARK  status: ('A' for Active; 'I' for Inactive)
REMARK    1  A    between atoms: C_4  and  C_5 
REMARK    2  A    between atoms: C_5  and  N_6 
REMARK    3  A    between atoms: N_10  and  S_11 
ROOT
HETATM    1  N   UNL     1      42.076 -15.784   2.726  1.00  0.00    -0.063 N 
HETATM    2  H   UNL     1      42.042 -16.307   1.841  1.00  0.00     0.280 HD
HETATM    3  C   UNL     1      42.175 -14.299   2.404  1.00  0.00     0.267 C 
HETATM    4  C   UNL     1      40.937 -13.794   1.586  1.00  0.00     0.067 C 
HETATM    5  N   UNL     1      41.017 -12.290   1.271  1.00  0.00    -0.300 N 
HETATM    6  C   UNL     1      39.864 -11.814   0.440  1.00  0.00     0.136 C 
HETATM    7  C   UNL     1      39.860 -12.538  -0.900  1.00  0.00     0.021 C 
HETATM    8  C   UNL     1      39.821 -14.048  -0.726  1.00  0.00     0.004 C 
HETATM    9  C   UNL     1      40.939 -14.515   0.203  1.00  0.00     0.033 C 
HETATM   10  C   UNL     1      39.678 -14.141   2.421  1.00  0.00     0.035 C 
HETATM   11  C   UNL     1      39.610 -15.618   2.826  1.00  0.00     0.030 C 
HETATM   12  C   UNL     1      40.861 -16.092   3.550  1.00  0.00     0.235 C 
ENDROOT
BRANCH   5  13
HETATM   13  S   UNL     1      41.500 -11.224   2.517  1.00  0.00     0.225 S 
HETATM   14  C   UNL     1      40.936  -9.617   1.979  1.00  0.00     0.186 C 
HETATM   15  O   UNL     1      40.786 -11.621   3.707  1.00  0.00    -0.206 OA
HETATM   16  O   UNL     1      42.949 -11.200   2.500  1.00  0.00    -0.206 OA
ENDBRANCH   5  13
BRANCH   1  17
HETATM   17  C   UNL     1      43.353 -16.294   3.373  1.00  0.00     0.299 C 
BRANCH  17  18
HETATM   18  C   UNL     1      43.490 -17.765   3.238  1.00  0.00     0.079 A 
HETATM   19  O   UNL     1      43.914 -18.431   4.355  1.00  0.00    -0.318 OA
HETATM   20  C   UNL     1      43.954 -19.756   4.037  1.00  0.00     0.049 A 
HETATM   21  C   UNL     1      44.375 -20.689   5.103  1.00  0.00     0.076 C 
HETATM   22  C   UNL     1      43.563 -19.939   2.728  1.00  0.00     0.035 A 
HETATM   23  C   UNL     1      43.265 -18.655   2.212  1.00  0.00     0.037 A 
ENDBRANCH  17  18
ENDBRANCH   1  17
TORSDOF 3
ENDMDL
MODEL 4
REMARK VINA RESULT:      -7.3      3.158      6.469
REMARK  3 active torsions:
REMARK  status: ('A' for Active; 'I' for Inactive)
REMARK    1  A    between atoms: C_4  and  C_5 
REMARK    2  A    between atoms: C_5  and  N_6 
REMARK    3  A    between atoms: N_10  and  S_11 
ROOT
HETATM    1  N   UNL     1      41.076 -14.831   1.483  1.00  0.00    -0.063 N 
HETATM    2  H   UNL     1      41.290 -15.598   0.833  1.00  0.00     0.280 HD
HETATM    3  C   UNL     1      40.920 -15.415   2.881  1.00  0.00     0.267 C 
HETATM    4  C   UNL     1      42.233 -16.117   3.372  1.00  0.00     0.067 C 
HETATM    5  N   UNL     1      42.093 -16.694   4.791  1.00  0.00    -0.300 N 
HETATM    6  C   UNL     1      43.327 -17.416   5.242  1.00  0.00     0.136 C 
HETATM    7  C   UNL     1      43.600 -18.597   4.319  1.00  0.00     0.021 C 
HETATM    8  C   UNL     1      43.723 -18.162   2.868  1.00  0.00     0.004 C 
HETATM    9  C   UNL     1      42.507 -17.341   2.444  1.00  0.00     0.033 C 
HETATM   10  C   UNL     1      43.363 -15.059   3.288  1.00  0.00     0.035 C 
HETATM   11  C   UNL     1      43.474 -14.401   1.908  1.00  0.00     0.030 C 
HETATM   12  C   UNL     1      42.161 -13.797   1.432  1.00  0.00     0.235 C 
ENDROOT
BRANCH   5  13
HETATM   13  S   UNL     1      41.338 -15.735   5.988  1.00  0.00     0.225 S 
HETATM   14  C   UNL     1      42.325 -15.985   7.455  1.00  0.00     0.186 C 
HETATM   15  O   UNL     1      41.447 -14.362   5.553  1.00  0.00    -0.206 OA
HETATM   16  O   UNL     1      40.040 -16.329   6.234  1.00  0.00    -0.206 OA
ENDBRANCH   5  13
BRANCH   1  17
HETATM   17  C   UNL     1      39.753 -14.300   0.958  1.00  0.00     0.299 C 
BRANCH  17  18
HETATM   18  C   UNL     1      39.756 -14.175  -0.521  1.00  0.00     0.079 A 
HETATM   19  O   UNL     1      40.431 -13.099  -1.028  1.00  0.00    -0.318 OA
HETATM   20  C   UNL     1      40.336 -13.176  -2.386  1.00  0.00     0.049 A 
HETATM   21  C   UNL     1      41.009 -12.115  -3.165  1.00  0.00     0.076 C 
HETATM   22  C   UNL     1      39.606 -14.286  -2.747  1.00  0.00     0.035 A 
HETATM   23  C   UNL     1      39.230 -14.932  -1.544  1.00  0.00     0.037 A 
ENDBRANCH  17  18
ENDBRANCH   1  17
TORSDOF 3
ENDMDL
MODEL 5
REMARK VINA RESULT:      -7.3      2.847      6.470
REMARK  3 active torsions:
REMARK  status: ('A' for Active; 'I' for Inactive)
REMARK    1  A    between atoms: C_4  and  C_5 
REMARK    2  A    between atoms: C_5  and  N_6 
REMARK    3  A    between atoms: N_10  and  S_11 
ROOT
HETATM    1  N   UNL     1      42.132 -13.275   6.234  1.00  0.00    -0.063 N 
HETATM    2  H   UNL     1      42.661 -13.603   7.053  1.00  0.00     0.280 HD
HETATM    3  C   UNL     1      42.769 -13.865   4.982  1.00  0.00     0.267 C 
HETATM    4  C   UNL     1      42.732 -15.432   4.991  1.00  0.00     0.067 C 
HETATM    5  N   UNL     1      43.356 -16.039   3.722  1.00  0.00    -0.300 N 
HETATM    6  C   UNL     1      43.374 -17.537   3.751  1.00  0.00     0.136 C 
HETATM    7  C   UNL     1      44.220 -18.021   4.922  1.00  0.00     0.021 C 
HETATM    8  C   UNL     1      43.726 -17.455   6.245  1.00  0.00     0.004 C 
HETATM    9  C   UNL     1      43.614 -15.934   6.175  1.00  0.00     0.033 C 
HETATM   10  C   UNL     1      41.246 -15.843   5.156  1.00  0.00     0.035 C 
HETATM   11  C   UNL     1      40.569 -15.187   6.365  1.00  0.00     0.030 C 
HETATM   12  C   UNL     1      40.691 -13.670   6.362  1.00  0.00     0.235 C 
ENDROOT
BRANCH   5  13
HETATM   13  S   UNL     1      42.955 -15.350   2.210  1.00  0.00     0.225 S 
HETATM   14  C   UNL     1      41.169 -15.361   2.168  1.00  0.00     0.186 C 
HETATM   15  O   UNL     1      43.435 -13.988   2.230  1.00  0.00    -0.206 OA
HETATM   16  O   UNL     1      43.416 -16.279   1.198  1.00  0.00    -0.206 OA
ENDBRANCH   5  13
BRANCH   1  17
HETATM   17  C   UNL     1      42.321 -11.768   6.289  1.00  0.00     0.299 C 
BRANCH  17  18
HETATM   18  C   UNL     1      43.659 -11.399   6.815  1.00  0.00     0.079 A 
HETATM   19  O   UNL     1      43.682 -10.873   8.077  1.00  0.00    -0.318 OA
HETATM   20  C   UNL     1      44.987 -10.624   8.380  1.00  0.00     0.049 A 
HETATM   21  C   UNL     1      45.269 -10.058   9.716  1.00  0.00     0.076 C 
HETATM   22  C   UNL     1      45.795 -10.982   7.323  1.00  0.00     0.035 A 
HETATM   23  C   UNL     1      44.938 -11.482   6.312  1.00  0.00     0.037 A 
ENDBRANCH  17  18
ENDBRANCH   1  17
TORSDOF 3
ENDMDL
MODEL 6
REMARK VINA RESULT:      -7.2      3.135      6.158
REMARK  3 active torsions:
REMARK  status: ('A' for Active; 'I' for Inactive)
REMARK    1  A    between atoms: C_4  and  C_5 
REMARK    2  A    between atoms: C_5  and  N_6 
REMARK    3  A    between atoms: N_10  and  S_11 
ROOT
HETATM    1  N   UNL     1      41.917 -13.473   5.737  1.00  0.00    -0.063 N 
HETATM    2  H   UNL     1      42.833 -13.844   6.026  1.00  0.00     0.280 HD
HETATM    3  C   UNL     1      41.752 -13.715   4.243  1.00  0.00     0.267 C 
HETATM    4  C   UNL     1      41.793 -15.241   3.889  1.00  0.00     0.067 C 
HETATM    5  N   UNL     1      41.608 -15.499   2.383  1.00  0.00    -0.300 N 
HETATM    6  C   UNL     1      41.703 -16.953   2.032  1.00  0.00     0.136 C 
HETATM    7  C   UNL     1      43.086 -17.481   2.394  1.00  0.00     0.021 C 
HETATM    8  C   UNL     1      43.410 -17.251   3.862  1.00  0.00     0.004 C 
HETATM    9  C   UNL     1      43.214 -15.784   4.237  1.00  0.00     0.033 C 
HETATM   10  C   UNL     1      40.686 -15.926   4.731  1.00  0.00     0.035 C 
HETATM   11  C   UNL     1      40.792 -15.620   6.229  1.00  0.00     0.030 C 
HETATM   12  C   UNL     1      40.825 -14.128   6.529  1.00  0.00     0.235 C 
ENDROOT
BRANCH   5  13
HETATM   13  S   UNL     1      40.387 -14.634   1.555  1.00  0.00     0.225 S 
HETATM   14  C   UNL     1      41.241 -13.258   0.802  1.00  0.00     0.186 C 
HETATM   15  O   UNL     1      39.874 -15.512   0.531  1.00  0.00    -0.206 OA
HETATM   16  O   UNL     1      39.507 -14.091   2.570  1.00  0.00    -0.206 OA
ENDBRANCH   5  13
BRANCH   1  17
HETATM   17  C   UNL     1      42.040 -11.990   6.045  1.00  0.00     0.299 C 
BRANCH  17  18
HETATM   18  C   UNL     1      43.424 -11.619   6.431  1.00  0.00     0.079 A 
HETATM   19  O   UNL     1      43.572 -11.076   7.677  1.00  0.00    -0.318 OA
HETATM   20  C   UNL     1      44.902 -10.828   7.846  1.00  0.00     0.049 A 
HETATM   21  C   UNL     1      45.315 -10.245   9.140  1.00  0.00     0.076 C 
HETATM   22  C   UNL     1      45.600 -11.204   6.720  1.00  0.00     0.035 A 
HETATM   23  C   UNL     1      44.647 -11.714   5.805  1.00  0.00     0.037 A 
ENDBRANCH  17  18
ENDBRANCH   1  17
TORSDOF 3
ENDMDL
MODEL 7
REMARK VINA RESULT:      -6.9      2.707      5.442
REMARK  3 active torsions:
REMARK  status: ('A' for Active; 'I' for Inactive)
REMARK    1  A    between atoms: C_4  and  C_5 
REMARK    2  A    between atoms: C_5  and  N_6 
REMARK    3  A    between atoms: N_10  and  S_11 
ROOT
HETATM    1  N   UNL     1      40.797 -15.826   2.983  1.00  0.00    -0.063 N 
HETATM    2  H   UNL     1      40.462 -16.666   3.472  1.00  0.00     0.280 HD
HETATM    3  C   UNL     1      41.080 -14.747   4.020  1.00  0.00     0.267 C 
HETATM    4  C   UNL     1      42.186 -15.190   5.039  1.00  0.00     0.067 C 
HETATM    5  N   UNL     1      42.494 -14.100   6.080  1.00  0.00    -0.300 N 
HETATM    6  C   UNL     1      43.509 -14.541   7.090  1.00  0.00     0.136 C 
HETATM    7  C   UNL     1      42.979 -15.741   7.865  1.00  0.00     0.021 C 
HETATM    8  C   UNL     1      42.598 -16.886   6.939  1.00  0.00     0.004 C 
HETATM    9  C   UNL     1      41.641 -16.406   5.851  1.00  0.00     0.033 C 
HETATM   10  C   UNL     1      43.439 -15.562   4.205  1.00  0.00     0.035 C 
HETATM   11  C   UNL     1      43.148 -16.585   3.101  1.00  0.00     0.030 C 
HETATM   12  C   UNL     1      42.018 -16.154   2.177  1.00  0.00     0.235 C 
ENDROOT
BRANCH   5  13
HETATM   13  S   UNL     1      42.663 -12.487   5.541  1.00  0.00     0.225 S 
HETATM   14  C   UNL     1      43.750 -11.724   6.735  1.00  0.00     0.186 C 
HETATM   15  O   UNL     1      43.312 -12.543   4.253  1.00  0.00    -0.206 OA
HETATM   16  O   UNL     1      41.362 -11.866   5.684  1.00  0.00    -0.206 OA
ENDBRANCH   5  13
BRANCH   1  17
HETATM   17  C   UNL     1      39.614 -15.450   2.106  1.00  0.00     0.299 C 
BRANCH  17  18
HETATM   18  C   UNL     1      40.010 -14.534   1.008  1.00  0.00     0.079 A 
HETATM   19  O   UNL     1      39.726 -14.962  -0.260  1.00  0.00    -0.318 OA
HETATM   20  C   UNL     1      40.143 -13.983  -1.112  1.00  0.00     0.049 A 
HETATM   21  C   UNL     1      39.926 -14.214  -2.555  1.00  0.00     0.076 C 
HETATM   22  C   UNL     1      40.692 -12.939  -0.400  1.00  0.00     0.035 A 
HETATM   23  C   UNL     1      40.608 -13.294   0.968  1.00  0.00     0.037 A 
ENDBRANCH  17  18
ENDBRANCH   1  17
TORSDOF 3
ENDMDL
MODEL 8
REMARK VINA RESULT:      -6.9      2.036      2.849
REMARK  3 active torsions:
REMARK  status: ('A' for Active; 'I' for Inactive)
REMARK    1  A    between atoms: C_4  and  C_5 
REMARK    2  A    between atoms: C_5  and  N_6 
REMARK    3  A    between atoms: N_10  and  S_11 
ROOT
HETATM    1  N   UNL     1      41.938 -15.267   3.910  1.00  0.00    -0.063 N 
HETATM    2  H   UNL     1      42.568 -15.144   3.106  1.00  0.00     0.280 HD
HETATM    3  C   UNL     1      41.602 -13.892   4.471  1.00  0.00     0.267 C 
HETATM    4  C   UNL     1      40.874 -12.991   3.415  1.00  0.00     0.067 C 
HETATM    5  N   UNL     1      40.511 -11.605   3.977  1.00  0.00    -0.300 N 
HETATM    6  C   UNL     1      39.866 -10.720   2.954  1.00  0.00     0.136 C 
HETATM    7  C   UNL     1      40.830 -10.480   1.799  1.00  0.00     0.021 C 
HETATM    8  C   UNL     1      41.298 -11.784   1.174  1.00  0.00     0.004 C 
HETATM    9  C   UNL     1      41.863 -12.722   2.239  1.00  0.00     0.033 C 
HETATM   10  C   UNL     1      39.617 -13.772   2.952  1.00  0.00     0.035 C 
HETATM   11  C   UNL     1      39.933 -15.190   2.464  1.00  0.00     0.030 C 
HETATM   12  C   UNL     1      40.706 -16.010   3.486  1.00  0.00     0.235 C 
ENDROOT
BRANCH   5  13
HETATM   13  S   UNL     1      39.830 -11.517   5.543  1.00  0.00     0.225 S 
HETATM   14  C   UNL     1      38.678 -10.155   5.458  1.00  0.00     0.186 C 
HETATM   15  O   UNL     1      39.113 -12.752   5.757  1.00  0.00    -0.206 OA
HETATM   16  O   UNL     1      40.900 -11.122   6.436  1.00  0.00    -0.206 OA
ENDBRANCH   5  13
BRANCH   1  17
HETATM   17  C   UNL     1      42.785 -16.067   4.885  1.00  0.00     0.299 C 
BRANCH  17  18
HETATM   18  C   UNL     1      43.315 -17.308   4.266  1.00  0.00     0.079 A 
HETATM   19  O   UNL     1      43.596 -18.333   5.127  1.00  0.00    -0.318 OA
HETATM   20  C   UNL     1      44.045 -19.374   4.370  1.00  0.00     0.049 A 
HETATM   21  C   UNL     1      44.403 -20.616   5.086  1.00  0.00     0.076 C 
HETATM   22  C   UNL     1      44.055 -19.022   3.038  1.00  0.00     0.035 A 
HETATM   23  C   UNL     1      43.586 -17.688   2.970  1.00  0.00     0.037 A 
ENDBRANCH  17  18
ENDBRANCH   1  17
TORSDOF 3
ENDMDL
MODEL 9
REMARK VINA RESULT:      -6.8      3.583      6.789
REMARK  3 active torsions:
REMARK  status: ('A' for Active; 'I' for Inactive)
REMARK    1  A    between atoms: C_4  and  C_5 
REMARK    2  A    between atoms: C_5  and  N_6 
REMARK    3  A    between atoms: N_10  and  S_11 
ROOT
HETATM    1  N   UNL     1      43.546 -11.985   6.480  1.00  0.00    -0.063 N 
HETATM    2  H   UNL     1      43.321 -12.482   7.352  1.00  0.00     0.280 HD
HETATM    3  C   UNL     1      43.547 -12.994   5.339  1.00  0.00     0.267 C 
HETATM    4  C   UNL     1      42.147 -13.679   5.163  1.00  0.00     0.067 C 
HETATM    5  N   UNL     1      42.131 -14.686   4.000  1.00  0.00    -0.300 N 
HETATM    6  C   UNL     1      40.812 -15.384   3.864  1.00  0.00     0.136 C 
HETATM    7  C   UNL     1      40.515 -16.179   5.129  1.00  0.00     0.021 C 
HETATM    8  C   UNL     1      40.540 -15.297   6.367  1.00  0.00     0.004 C 
HETATM    9  C   UNL     1      41.847 -14.512   6.447  1.00  0.00     0.033 C 
HETATM   10  C   UNL     1      41.116 -12.540   4.954  1.00  0.00     0.035 C 
HETATM   11  C   UNL     1      41.165 -11.472   6.052  1.00  0.00     0.030 C 
HETATM   12  C   UNL     1      42.555 -10.884   6.246  1.00  0.00     0.235 C 
ENDROOT
BRANCH   5  13
HETATM   13  S   UNL     1      42.867 -14.236   2.524  1.00  0.00     0.225 S 
HETATM   14  C   UNL     1      41.504 -13.979   1.400  1.00  0.00     0.186 C 
HETATM   15  O   UNL     1      43.548 -12.985   2.762  1.00  0.00    -0.206 OA
HETATM   16  O   UNL     1      43.598 -15.396   2.058  1.00  0.00    -0.206 OA
ENDBRANCH   5  13
BRANCH   1  17
HETATM   17  C   UNL     1      44.944 -11.453   6.744  1.00  0.00     0.299 C 
BRANCH  17  18
HETATM   18  C   UNL     1      45.021 -10.718   8.032  1.00  0.00     0.079 A 
HETATM   19  O   UNL     1      44.255 -11.215   9.050  1.00  0.00    -0.318 OA
HETATM   20  C   UNL     1      44.480 -10.423  10.137  1.00  0.00     0.049 A 
HETATM   21  C   UNL     1      43.764 -10.775  11.381  1.00  0.00     0.076 C 
HETATM   22  C   UNL     1      45.377  -9.427   9.820  1.00  0.00     0.035 A 
HETATM   23  C   UNL     1      45.725  -9.615   8.461  1.00  0.00     0.037 A 
ENDBRANCH  17  18
ENDBRANCH   1  17
TORSDOF 3
ENDMDL
MODEL 10
REMARK VINA RESULT:      -6.8      2.358      6.551
REMARK  3 active torsions:
REMARK  status: ('A' for Active; 'I' for Inactive)
REMARK    1  A    between atoms: C_4  and  C_5 
REMARK    2  A    between atoms: C_5  and  N_6 
REMARK    3  A    between atoms: N_10  and  S_11 
ROOT
HETATM    1  N   UNL     1      40.798 -15.316   2.184  1.00  0.00    -0.063 N 
HETATM    2  H   UNL     1      40.717 -16.110   1.534  1.00  0.00     0.280 HD
HETATM    3  C   UNL     1      41.172 -15.857   3.558  1.00  0.00     0.267 C 
HETATM    4  C   UNL     1      42.547 -16.611   3.535  1.00  0.00     0.067 C 
HETATM    5  N   UNL     1      42.944 -17.146   4.922  1.00  0.00    -0.300 N 
HETATM    6  C   UNL     1      44.229 -17.916   4.895  1.00  0.00     0.136 C 
HETATM    7  C   UNL     1      44.083 -19.131   3.988  1.00  0.00     0.021 C 
HETATM    8  C   UNL     1      43.653 -18.738   2.584  1.00  0.00     0.004 C 
HETATM    9  C   UNL     1      42.398 -17.869   2.626  1.00  0.00     0.033 C 
HETATM   10  C   UNL     1      43.595 -15.612   2.980  1.00  0.00     0.035 C 
HETATM   11  C   UNL     1      43.189 -14.995   1.637  1.00  0.00     0.030 C 
HETATM   12  C   UNL     1      41.816 -14.339   1.677  1.00  0.00     0.235 C 
ENDROOT
BRANCH   5  13
HETATM   13  S   UNL     1      42.743 -16.121   6.276  1.00  0.00     0.225 S 
HETATM   14  C   UNL     1      43.805 -16.819   7.531  1.00  0.00     0.186 C 
HETATM   15  O   UNL     1      43.232 -14.818   5.890  1.00  0.00    -0.206 OA
HETATM   16  O   UNL     1      41.376 -16.292   6.723  1.00  0.00    -0.206 OA
ENDBRANCH   5  13
BRANCH   1  17
HETATM   17  C   UNL     1      39.394 -14.735   2.185  1.00  0.00     0.299 C 
BRANCH  17  18
HETATM   18  C   UNL     1      39.393 -13.296   2.549  1.00  0.00     0.079 A 
HETATM   19  O   UNL     1      39.504 -13.017   3.884  1.00  0.00    -0.318 OA
HETATM   20  C   UNL     1      39.505 -11.659   4.006  1.00  0.00     0.049 A 
HETATM   21  C   UNL     1      39.631 -11.109   5.372  1.00  0.00     0.076 C 
HETATM   22  C   UNL     1      39.394 -11.072   2.764  1.00  0.00     0.035 A 
HETATM   23  C   UNL     1      39.320 -12.128   1.824  1.00  0.00     0.037 A 
ENDBRANCH  17  18
ENDBRANCH   1  17
TORSDOF 3
ENDMDL
