MODEL 1
REMARK VINA RESULT:      -8.9      0.000      0.000
REMARK  5 active torsions:
REMARK  status: ('A' for Active; 'I' for Inactive)
REMARK    1  A    between atoms: C_8  and  C_9 
REMARK    2  A    between atoms: C_9  and  N_10 
REMARK       I    between atoms: N_10  and  C_11 
REMARK       I    between atoms: C_11  and  N_12 
REMARK    3  A    between atoms: C_13  and  C_14 
REMARK    4  A    between atoms: C_14  and  C_15 
REMARK    5  A    between atoms: C_15  and  C_16 
ROOT
HETATM    1  N   UNL     1      41.523 -13.732   4.038  1.00  0.00    -0.339 N 
HETATM    2  C   UNL     1      40.792 -13.331   2.957  1.00  0.00     0.318 C 
HETATM    3  N   UNL     1      41.316 -13.813   1.753  1.00  0.00    -0.330 N 
HETATM    4  C   UNL     1      41.360 -15.271   1.432  1.00  0.00     0.089 C 
HETATM    5  C   UNL     1      40.037 -15.684   0.748  1.00  0.00     0.025 C 
HETATM    6  C   UNL     1      39.725 -14.806  -0.466  1.00  0.00     0.004 C 
HETATM    7  C   UNL     1      39.739 -13.329  -0.094  1.00  0.00     0.020 C 
HETATM    8  C   UNL     1      41.053 -12.966   0.591  1.00  0.00     0.128 C 
HETATM    9  O   UNL     1      39.855 -12.546   3.034  1.00  0.00    -0.247 OA
HETATM   10  H   UNL     1      42.484 -13.950   3.819  1.00  0.00     0.164 HD
ENDROOT
BRANCH   4  11
HETATM   11  C   UNL     1      41.698 -16.206   2.612  1.00  0.00     0.030 C 
BRANCH  11  12
HETATM   12  C   UNL     1      43.189 -16.522   2.782  1.00  0.00     0.040 C 
BRANCH  12  13
HETATM   13  C   UNL     1      43.387 -17.993   3.068  1.00  0.00    -0.058 A 
HETATM   14  C   UNL     1      43.929 -18.405   4.295  1.00  0.00     0.007 A 
HETATM   15  C   UNL     1      44.158 -19.758   4.548  1.00  0.00     0.001 A 
HETATM   16  C   UNL     1      43.855 -20.710   3.577  1.00  0.00     0.000 A 
HETATM   17  C   UNL     1      43.322 -20.310   2.352  1.00  0.00     0.001 A 
HETATM   18  C   UNL     1      43.089 -18.958   2.098  1.00  0.00     0.007 A 
ENDBRANCH  12  13
ENDBRANCH  11  12
ENDBRANCH   4  11
BRANCH   1  19
HETATM   19  C   UNL     1      41.248 -13.278   5.379  1.00  0.00     0.167 C 
BRANCH  19  20
HETATM   20  C   UNL     1      41.907 -14.228   6.318  1.00  0.00     0.009 A 
HETATM   21  C   UNL     1      41.454 -15.472   6.722  1.00  0.00     0.034 A 
HETATM   22  C   UNL     1      40.237 -16.236   6.361  1.00  0.00     0.070 C 
HETATM   23  N   UNL     1      42.384 -15.944   7.602  1.00  0.00    -0.282 N 
HETATM   24  H   UNL     1      42.385 -16.827   8.100  1.00  0.00     0.189 HD
HETATM   25  N   UNL     1      43.399 -15.096   7.819  1.00  0.00    -0.179 NA
HETATM   26  C   UNL     1      43.120 -14.044   7.040  1.00  0.00     0.060 A 
HETATM   27  C   UNL     1      44.023 -12.866   7.024  1.00  0.00     0.073 C 
ENDBRANCH  19  20
ENDBRANCH   1  19
TORSDOF 5
ENDMDL
MODEL 2
REMARK VINA RESULT:      -8.5      1.372      2.260
REMARK  5 active torsions:
REMARK  status: ('A' for Active; 'I' for Inactive)
REMARK    1  A    between atoms: C_8  and  C_9 
REMARK    2  A    between atoms: C_9  and  N_10 
REMARK       I    between atoms: N_10  and  C_11 
REMARK       I    between atoms: C_11  and  N_12 
REMARK    3  A    between atoms: C_13  and  C_14 
REMARK    4  A    between atoms: C_14  and  C_15 
REMARK    5  A    between atoms: C_15  and  C_16 
ROOT
HETATM    1  N   UNL     1      41.534 -13.648   4.221  1.00  0.00    -0.339 N 
HETATM    2  C   UNL     1      40.824 -13.281   3.114  1.00  0.00     0.318 C 
HETATM    3  N   UNL     1      41.367 -13.805   1.936  1.00  0.00    -0.330 N 
HETATM    4  C   UNL     1      41.411 -15.273   1.666  1.00  0.00     0.089 C 
HETATM    5  C   UNL     1      40.098 -15.705   0.972  1.00  0.00     0.025 C 
HETATM    6  C   UNL     1      39.812 -14.867  -0.276  1.00  0.00     0.004 C 
HETATM    7  C   UNL     1      39.825 -13.378   0.046  1.00  0.00     0.020 C 
HETATM    8  C   UNL     1      41.128 -12.997   0.742  1.00  0.00     0.128 C 
HETATM    9  O   UNL     1      39.889 -12.490   3.147  1.00  0.00    -0.247 OA
HETATM   10  H   UNL     1      42.497 -13.877   4.027  1.00  0.00     0.164 HD
ENDROOT
BRANCH   4  11
HETATM   11  C   UNL     1      41.723 -16.169   2.883  1.00  0.00     0.030 C 
BRANCH  11  12
HETATM   12  C   UNL     1      43.211 -16.468   3.101  1.00  0.00     0.040 C 
BRANCH  12  13
HETATM   13  C   UNL     1      43.444 -17.960   3.175  1.00  0.00    -0.058 A 
HETATM   14  C   UNL     1      43.031 -18.790   2.123  1.00  0.00     0.007 A 
HETATM   15  C   UNL     1      43.202 -20.173   2.204  1.00  0.00     0.001 A 
HETATM   16  C   UNL     1      43.779 -20.738   3.338  1.00  0.00     0.000 A 
HETATM   17  C   UNL     1      44.188 -19.923   4.392  1.00  0.00     0.001 A 
HETATM   18  C   UNL     1      44.021 -18.539   4.312  1.00  0.00     0.007 A 
ENDBRANCH  12  13
ENDBRANCH  11  12
ENDBRANCH   4  11
BRANCH   1  19
HETATM   19  C   UNL     1      41.237 -13.148   5.541  1.00  0.00     0.167 C 
BRANCH  19  20
HETATM   20  C   UNL     1      42.505 -12.618   6.115  1.00  0.00     0.009 A 
HETATM   21  C   UNL     1      42.879 -11.293   6.266  1.00  0.00     0.034 A 
HETATM   22  C   UNL     1      42.173 -10.033   5.938  1.00  0.00     0.070 C 
HETATM   23  N   UNL     1      44.130 -11.316   6.811  1.00  0.00    -0.282 N 
HETATM   24  H   UNL     1      44.718 -10.529   7.062  1.00  0.00     0.189 HD
HETATM   25  N   UNL     1      44.609 -12.551   7.009  1.00  0.00    -0.179 NA
HETATM   26  C   UNL     1      43.626 -13.356   6.589  1.00  0.00     0.060 A 
HETATM   27  C   UNL     1      43.797 -14.830   6.632  1.00  0.00     0.073 C 
ENDBRANCH  19  20
ENDBRANCH   1  19
TORSDOF 5
ENDMDL
MODEL 3
REMARK VINA RESULT:      -8.2      1.924      5.443
REMARK  5 active torsions:
REMARK  status: ('A' for Active; 'I' for Inactive)
REMARK    1  A    between atoms: C_8  and  C_9 
REMARK    2  A    between atoms: C_9  and  N_10 
REMARK       I    between atoms: N_10  and  C_11 
REMARK       I    between atoms: C_11  and  N_12 
REMARK    3  A    between atoms: C_13  and  C_14 
REMARK    4  A    between atoms: C_14  and  C_15 
REMARK    5  A    between atoms: C_15  and  C_16 
ROOT
HETATM    1  N   UNL     1      42.219 -13.303   2.999  1.00  0.00    -0.339 N 
HETATM    2  C   UNL     1      42.907 -12.372   3.723  1.00  0.00     0.318 C 
HETATM    3  N   UNL     1      42.464 -12.295   5.047  1.00  0.00    -0.330 N 
HETATM    4  C   UNL     1      42.610 -13.434   6.001  1.00  0.00     0.089 C 
HETATM    5  C   UNL     1      43.983 -13.340   6.704  1.00  0.00     0.025 C 
HETATM    6  C   UNL     1      44.197 -11.973   7.357  1.00  0.00     0.004 C 
HETATM    7  C   UNL     1      43.990 -10.846   6.352  1.00  0.00     0.020 C 
HETATM    8  C   UNL     1      42.633 -10.984   5.671  1.00  0.00     0.128 C 
HETATM    9  O   UNL     1      43.736 -11.615   3.230  1.00  0.00    -0.247 OA
HETATM   10  H   UNL     1      41.297 -13.496   3.360  1.00  0.00     0.164 HD
ENDROOT
BRANCH   4  11
HETATM   11  C   UNL     1      42.378 -14.839   5.406  1.00  0.00     0.030 C 
BRANCH  11  12
HETATM   12  C   UNL     1      43.525 -15.832   5.628  1.00  0.00     0.040 C 
BRANCH  12  13
HETATM   13  C   UNL     1      43.488 -16.923   4.581  1.00  0.00    -0.058 A 
HETATM   14  C   UNL     1      44.223 -18.103   4.767  1.00  0.00     0.007 A 
HETATM   15  C   UNL     1      44.230 -19.094   3.785  1.00  0.00     0.001 A 
HETATM   16  C   UNL     1      43.511 -18.912   2.606  1.00  0.00     0.000 A 
HETATM   17  C   UNL     1      42.782 -17.740   2.408  1.00  0.00     0.001 A 
HETATM   18  C   UNL     1      42.770 -16.749   3.391  1.00  0.00     0.007 A 
ENDBRANCH  12  13
ENDBRANCH  11  12
ENDBRANCH   4  11
BRANCH   1  19
HETATM   19  C   UNL     1      42.416 -13.494   1.583  1.00  0.00     0.167 C 
BRANCH  19  20
HETATM   20  C   UNL     1      41.105 -13.272   0.913  1.00  0.00     0.009 A 
HETATM   21  C   UNL     1      40.097 -14.196   0.697  1.00  0.00     0.034 A 
HETATM   22  C   UNL     1      39.989 -15.630   1.055  1.00  0.00     0.070 C 
HETATM   23  N   UNL     1      39.113 -13.529   0.027  1.00  0.00    -0.282 N 
HETATM   24  H   UNL     1      38.221 -13.888  -0.297  1.00  0.00     0.189 HD
HETATM   25  N   UNL     1      39.409 -12.247  -0.228  1.00  0.00    -0.179 NA
HETATM   26  C   UNL     1      40.622 -12.077   0.309  1.00  0.00     0.060 A 
HETATM   27  C   UNL     1      41.307 -10.763   0.208  1.00  0.00     0.073 C 
ENDBRANCH  19  20
ENDBRANCH   1  19
TORSDOF 5
ENDMDL
MODEL 4
REMARK VINA RESULT:      -8.2      0.989      1.972
REMARK  5 active torsions:
REMARK  status: ('A' for Active; 'I' for Inactive)
REMARK    1  A    between atoms: C_8  and  C_9 
REMARK    2  A    between atoms: C_9  and  N_10 
REMARK       I    between atoms: N_10  and  C_11 
REMARK       I    between atoms: C_11  and  N_12 
REMARK    3  A    between atoms: C_13  and  C_14 
REMARK    4  A    between atoms: C_14  and  C_15 
REMARK    5  A    between atoms: C_15  and  C_16 
ROOT
HETATM    1  N   UNL     1      41.864 -12.523   3.793  1.00  0.00    -0.339 N 
HETATM    2  C   UNL     1      40.919 -12.377   2.818  1.00  0.00     0.318 C 
HETATM    3  N   UNL     1      41.397 -12.747   1.556  1.00  0.00    -0.330 N 
HETATM    4  C   UNL     1      41.794 -14.151   1.238  1.00  0.00     0.089 C 
HETATM    5  C   UNL     1      40.557 -14.932   0.738  1.00  0.00     0.025 C 
HETATM    6  C   UNL     1      39.866 -14.219  -0.426  1.00  0.00     0.004 C 
HETATM    7  C   UNL     1      39.525 -12.779  -0.065  1.00  0.00     0.020 C 
HETATM    8  C   UNL     1      40.767 -12.049   0.438  1.00  0.00     0.128 C 
HETATM    9  O   UNL     1      39.821 -11.870   3.017  1.00  0.00    -0.247 OA
HETATM   10  H   UNL     1      42.811 -12.483   3.449  1.00  0.00     0.164 HD
ENDROOT
BRANCH   4  11
HETATM   11  C   UNL     1      42.521 -14.913   2.365  1.00  0.00     0.030 C 
BRANCH  11  12
HETATM   12  C   UNL     1      41.725 -16.068   2.984  1.00  0.00     0.040 C 
BRANCH  12  13
HETATM   13  C   UNL     1      42.647 -17.209   3.349  1.00  0.00    -0.058 A 
HETATM   14  C   UNL     1      43.218 -17.272   4.628  1.00  0.00     0.007 A 
HETATM   15  C   UNL     1      44.106 -18.297   4.957  1.00  0.00     0.001 A 
HETATM   16  C   UNL     1      44.437 -19.263   4.010  1.00  0.00     0.000 A 
HETATM   17  C   UNL     1      43.881 -19.206   2.733  1.00  0.00     0.001 A 
HETATM   18  C   UNL     1      42.989 -18.184   2.402  1.00  0.00     0.007 A 
ENDBRANCH  12  13
ENDBRANCH  11  12
ENDBRANCH   4  11
BRANCH   1  19
HETATM   19  C   UNL     1      41.649 -12.107   5.158  1.00  0.00     0.167 C 
BRANCH  19  20
HETATM   20  C   UNL     1      42.185 -13.178   6.043  1.00  0.00     0.009 A 
HETATM   21  C   UNL     1      43.437 -13.244   6.630  1.00  0.00     0.034 A 
HETATM   22  C   UNL     1      44.590 -12.315   6.586  1.00  0.00     0.070 C 
HETATM   23  N   UNL     1      43.465 -14.420   7.323  1.00  0.00    -0.282 N 
HETATM   24  H   UNL     1      44.223 -14.802   7.877  1.00  0.00     0.189 HD
HETATM   25  N   UNL     1      42.337 -15.134   7.217  1.00  0.00    -0.179 NA
HETATM   26  C   UNL     1      41.546 -14.386   6.439  1.00  0.00     0.060 A 
HETATM   27  C   UNL     1      40.189 -14.865   6.072  1.00  0.00     0.073 C 
ENDBRANCH  19  20
ENDBRANCH   1  19
TORSDOF 5
ENDMDL
MODEL 5
REMARK VINA RESULT:      -8.1      1.786      5.466
REMARK  5 active torsions:
REMARK  status: ('A' for Active; 'I' for Inactive)
REMARK    1  A    between atoms: C_8  and  C_9 
REMARK    2  A    between atoms: C_9  and  N_10 
REMARK       I    between atoms: N_10  and  C_11 
REMARK       I    between atoms: C_11  and  N_12 
REMARK    3  A    between atoms: C_13  and  C_14 
REMARK    4  A    between atoms: C_14  and  C_15 
REMARK    5  A    between atoms: C_15  and  C_16 
ROOT
HETATM    1  N   UNL     1      40.788 -13.650   1.648  1.00  0.00    -0.339 N 
HETATM    2  C   UNL     1      40.997 -13.063   2.863  1.00  0.00     0.318 C 
HETATM    3  N   UNL     1      40.668 -13.910   3.927  1.00  0.00    -0.330 N 
HETATM    4  C   UNL     1      41.409 -15.179   4.191  1.00  0.00     0.089 C 
HETATM    5  C   UNL     1      42.617 -14.884   5.109  1.00  0.00     0.025 C 
HETATM    6  C   UNL     1      42.197 -14.152   6.385  1.00  0.00     0.004 C 
HETATM    7  C   UNL     1      41.404 -12.892   6.060  1.00  0.00     0.020 C 
HETATM    8  C   UNL     1      40.233 -13.223   5.141  1.00  0.00     0.128 C 
HETATM    9  O   UNL     1      41.325 -11.889   2.995  1.00  0.00    -0.247 OA
HETATM   10  H   UNL     1      40.100 -14.387   1.668  1.00  0.00     0.164 HD
ENDROOT
BRANCH   4  11
HETATM   11  C   UNL     1      41.837 -15.977   2.940  1.00  0.00     0.030 C 
BRANCH  11  12
HETATM   12  C   UNL     1      43.312 -16.391   2.910  1.00  0.00     0.040 C 
BRANCH  12  13
HETATM   13  C   UNL     1      43.445 -17.886   3.095  1.00  0.00    -0.058 A 
HETATM   14  C   UNL     1      44.007 -18.404   4.271  1.00  0.00     0.007 A 
HETATM   15  C   UNL     1      44.175 -19.780   4.428  1.00  0.00     0.001 A 
HETATM   16  C   UNL     1      43.790 -20.650   3.411  1.00  0.00     0.000 A 
HETATM   17  C   UNL     1      43.236 -20.145   2.235  1.00  0.00     0.001 A 
HETATM   18  C   UNL     1      43.064 -18.769   2.076  1.00  0.00     0.007 A 
ENDBRANCH  12  13
ENDBRANCH  11  12
ENDBRANCH   4  11
BRANCH   1  19
HETATM   19  C   UNL     1      40.951 -12.944   0.401  1.00  0.00     0.167 C 
BRANCH  19  20
HETATM   20  C   UNL     1      39.591 -12.669  -0.139  1.00  0.00     0.009 A 
HETATM   21  C   UNL     1      38.907 -13.376  -1.114  1.00  0.00     0.034 A 
HETATM   22  C   UNL     1      39.276 -14.582  -1.890  1.00  0.00     0.070 C 
HETATM   23  N   UNL     1      37.718 -12.727  -1.284  1.00  0.00    -0.282 N 
HETATM   24  H   UNL     1      36.961 -12.961  -1.917  1.00  0.00     0.189 HD
HETATM   25  N   UNL     1      37.582 -11.642  -0.509  1.00  0.00    -0.179 NA
HETATM   26  C   UNL     1      38.718 -11.596   0.196  1.00  0.00     0.060 A 
HETATM   27  C   UNL     1      38.950 -10.498   1.168  1.00  0.00     0.073 C 
ENDBRANCH  19  20
ENDBRANCH   1  19
TORSDOF 5
ENDMDL
MODEL 6
REMARK VINA RESULT:      -8.0      2.626      6.140
REMARK  5 active torsions:
REMARK  status: ('A' for Active; 'I' for Inactive)
REMARK    1  A    between atoms: C_8  and  C_9 
REMARK    2  A    between atoms: C_9  and  N_10 
REMARK       I    between atoms: N_10  and  C_11 
REMARK       I    between atoms: C_11  and  N_12 
REMARK    3  A    between atoms: C_13  and  C_14 
REMARK    4  A    between atoms: C_14  and  C_15 
REMARK    5  A    between atoms: C_15  and  C_16 
ROOT
HETATM    1  N   UNL     1      39.815 -12.682   0.880  1.00  0.00    -0.339 N 
HETATM    2  C   UNL     1      40.493 -11.817   1.691  1.00  0.00     0.318 C 
HETATM    3  N   UNL     1      40.968 -12.437   2.851  1.00  0.00    -0.330 N 
HETATM    4  C   UNL     1      41.998 -13.517   2.810  1.00  0.00     0.089 C 
HETATM    5  C   UNL     1      43.407 -12.882   2.857  1.00  0.00     0.025 C 
HETATM    6  C   UNL     1      43.566 -11.938   4.050  1.00  0.00     0.004 C 
HETATM    7  C   UNL     1      42.464 -10.887   4.071  1.00  0.00     0.020 C 
HETATM    8  C   UNL     1      41.094 -11.553   4.008  1.00  0.00     0.128 C 
HETATM    9  O   UNL     1      40.570 -10.613   1.474  1.00  0.00    -0.247 OA
HETATM   10  H   UNL     1      39.424 -13.472   1.369  1.00  0.00     0.164 HD
ENDROOT
BRANCH   4  11
HETATM   11  C   UNL     1      41.872 -14.518   1.642  1.00  0.00     0.030 C 
BRANCH  11  12
HETATM   12  C   UNL     1      41.208 -15.852   2.002  1.00  0.00     0.040 C 
BRANCH  12  13
HETATM   13  C   UNL     1      42.169 -16.729   2.772  1.00  0.00    -0.058 A 
HETATM   14  C   UNL     1      42.362 -16.525   4.146  1.00  0.00     0.007 A 
HETATM   15  C   UNL     1      43.280 -17.301   4.854  1.00  0.00     0.001 A 
HETATM   16  C   UNL     1      44.020 -18.280   4.195  1.00  0.00     0.000 A 
HETATM   17  C   UNL     1      43.841 -18.487   2.828  1.00  0.00     0.001 A 
HETATM   18  C   UNL     1      42.920 -17.715   2.118  1.00  0.00     0.007 A 
ENDBRANCH  12  13
ENDBRANCH  11  12
ENDBRANCH   4  11
BRANCH   1  19
HETATM   19  C   UNL     1      39.138 -12.259  -0.321  1.00  0.00     0.167 C 
BRANCH  19  20
HETATM   20  C   UNL     1      40.007 -12.618  -1.476  1.00  0.00     0.009 A 
HETATM   21  C   UNL     1      41.015 -11.859  -2.047  1.00  0.00     0.034 A 
HETATM   22  C   UNL     1      41.542 -10.517  -1.708  1.00  0.00     0.070 C 
HETATM   23  N   UNL     1      41.499 -12.599  -3.086  1.00  0.00    -0.282 N 
HETATM   24  H   UNL     1      42.245 -12.361  -3.731  1.00  0.00     0.189 HD
HETATM   25  N   UNL     1      40.874 -13.773  -3.249  1.00  0.00    -0.179 NA
HETATM   26  C   UNL     1      39.961 -13.798  -2.271  1.00  0.00     0.060 A 
HETATM   27  C   UNL     1      39.042 -14.956  -2.136  1.00  0.00     0.073 C 
ENDBRANCH  19  20
ENDBRANCH   1  19
TORSDOF 5
ENDMDL
MODEL 7
REMARK VINA RESULT:      -7.8      2.152      5.764
REMARK  5 active torsions:
REMARK  status: ('A' for Active; 'I' for Inactive)
REMARK    1  A    between atoms: C_8  and  C_9 
REMARK    2  A    between atoms: C_9  and  N_10 
REMARK       I    between atoms: N_10  and  C_11 
REMARK       I    between atoms: C_11  and  N_12 
REMARK    3  A    between atoms: C_13  and  C_14 
REMARK    4  A    between atoms: C_14  and  C_15 
REMARK    5  A    between atoms: C_15  and  C_16 
ROOT
HETATM    1  N   UNL     1      41.375 -13.907   5.088  1.00  0.00    -0.339 N 
HETATM    2  C   UNL     1      42.387 -14.821   5.167  1.00  0.00     0.318 C 
HETATM    3  N   UNL     1      41.968 -16.109   4.817  1.00  0.00    -0.330 N 
HETATM    4  C   UNL     1      41.503 -16.447   3.439  1.00  0.00     0.089 C 
HETATM    5  C   UNL     1      42.716 -16.863   2.577  1.00  0.00     0.025 C 
HETATM    6  C   UNL     1      43.524 -17.984   3.236  1.00  0.00     0.004 C 
HETATM    7  C   UNL     1      43.933 -17.607   4.654  1.00  0.00     0.020 C 
HETATM    8  C   UNL     1      42.711 -17.188   5.465  1.00  0.00     0.128 C 
HETATM    9  O   UNL     1      43.500 -14.554   5.605  1.00  0.00    -0.247 OA
HETATM   10  H   UNL     1      40.456 -14.311   5.186  1.00  0.00     0.164 HD
ENDROOT
BRANCH   4  11
HETATM   11  C   UNL     1      40.658 -15.364   2.734  1.00  0.00     0.030 C 
BRANCH  11  12
HETATM   12  C   UNL     1      39.979 -15.817   1.436  1.00  0.00     0.040 C 
BRANCH  12  13
HETATM   13  C   UNL     1      40.092 -14.742   0.379  1.00  0.00    -0.058 A 
HETATM   14  C   UNL     1      39.583 -14.965  -0.909  1.00  0.00     0.007 A 
HETATM   15  C   UNL     1      39.723 -13.996  -1.903  1.00  0.00     0.001 A 
HETATM   16  C   UNL     1      40.380 -12.799  -1.622  1.00  0.00     0.000 A 
HETATM   17  C   UNL     1      40.895 -12.571  -0.347  1.00  0.00     0.001 A 
HETATM   18  C   UNL     1      40.753 -13.537   0.650  1.00  0.00     0.007 A 
ENDBRANCH  12  13
ENDBRANCH  11  12
ENDBRANCH   4  11
BRANCH   1  19
HETATM   19  C   UNL     1      41.528 -12.533   5.501  1.00  0.00     0.167 C 
BRANCH  19  20
HETATM   20  C   UNL     1      41.555 -11.696   4.270  1.00  0.00     0.009 A 
HETATM   21  C   UNL     1      40.483 -11.106   3.623  1.00  0.00     0.034 A 
HETATM   22  C   UNL     1      39.034 -11.100   3.933  1.00  0.00     0.070 C 
HETATM   23  N   UNL     1      41.005 -10.467   2.536  1.00  0.00    -0.282 N 
HETATM   24  H   UNL     1      40.516  -9.927   1.832  1.00  0.00     0.189 HD
HETATM   25  N   UNL     1      42.332 -10.612   2.413  1.00  0.00    -0.179 NA
HETATM   26  C   UNL     1      42.681 -11.359   3.466  1.00  0.00     0.060 A 
HETATM   27  C   UNL     1      44.098 -11.754   3.666  1.00  0.00     0.073 C 
ENDBRANCH  19  20
ENDBRANCH   1  19
TORSDOF 5
ENDMDL
MODEL 8
REMARK VINA RESULT:      -7.6      3.586      6.761
REMARK  5 active torsions:
REMARK  status: ('A' for Active; 'I' for Inactive)
REMARK    1  A    between atoms: C_8  and  C_9 
REMARK    2  A    between atoms: C_9  and  N_10 
REMARK       I    between atoms: N_10  and  C_11 
REMARK       I    between atoms: C_11  and  N_12 
REMARK    3  A    between atoms: C_13  and  C_14 
REMARK    4  A    between atoms: C_14  and  C_15 
REMARK    5  A    between atoms: C_15  and  C_16 
ROOT
HETATM    1  N   UNL     1      38.350 -12.125  -0.193  1.00  0.00    -0.339 N 
HETATM    2  C   UNL     1      38.730 -11.162   0.697  1.00  0.00     0.318 C 
HETATM    3  N   UNL     1      38.664 -11.608   2.022  1.00  0.00    -0.330 N 
HETATM    4  C   UNL     1      39.535 -12.706   2.535  1.00  0.00     0.089 C 
HETATM    5  C   UNL     1      40.864 -12.107   3.052  1.00  0.00     0.025 C 
HETATM    6  C   UNL     1      40.626 -10.994   4.075  1.00  0.00     0.004 C 
HETATM    7  C   UNL     1      39.695  -9.925   3.518  1.00  0.00     0.020 C 
HETATM    8  C   UNL     1      38.406 -10.558   3.005  1.00  0.00     0.128 C 
HETATM    9  O   UNL     1      38.986 -10.009   0.371  1.00  0.00    -0.247 OA
HETATM   10  H   UNL     1      37.735 -12.821   0.200  1.00  0.00     0.164 HD
ENDROOT
BRANCH   4  11
HETATM   11  C   UNL     1      39.789 -13.872   1.556  1.00  0.00     0.030 C 
BRANCH  11  12
HETATM   12  C   UNL     1      39.705 -15.270   2.180  1.00  0.00     0.040 C 
BRANCH  12  13
HETATM   13  C   UNL     1      41.091 -15.825   2.418  1.00  0.00    -0.058 A 
HETATM   14  C   UNL     1      42.081 -15.697   1.432  1.00  0.00     0.007 A 
HETATM   15  C   UNL     1      43.348 -16.247   1.627  1.00  0.00     0.001 A 
HETATM   16  C   UNL     1      43.636 -16.936   2.803  1.00  0.00     0.000 A 
HETATM   17  C   UNL     1      42.658 -17.075   3.786  1.00  0.00     0.001 A 
HETATM   18  C   UNL     1      41.390 -16.523   3.596  1.00  0.00     0.007 A 
ENDBRANCH  12  13
ENDBRANCH  11  12
ENDBRANCH   4  11
BRANCH   1  19
HETATM   19  C   UNL     1      38.230 -11.877  -1.609  1.00  0.00     0.167 C 
BRANCH  19  20
HETATM   20  C   UNL     1      39.471 -12.381  -2.260  1.00  0.00     0.009 A 
HETATM   21  C   UNL     1      40.579 -11.651  -2.653  1.00  0.00     0.034 A 
HETATM   22  C   UNL     1      40.886 -10.205  -2.550  1.00  0.00     0.070 C 
HETATM   23  N   UNL     1      41.438 -12.547  -3.221  1.00  0.00    -0.282 N 
HETATM   24  H   UNL     1      42.353 -12.371  -3.621  1.00  0.00     0.189 HD
HETATM   25  N   UNL     1      40.969 -13.802  -3.245  1.00  0.00    -0.179 NA
HETATM   26  C   UNL     1      39.768 -13.715  -2.660  1.00  0.00     0.060 A 
HETATM   27  C   UNL     1      38.917 -14.923  -2.518  1.00  0.00     0.073 C 
ENDBRANCH  19  20
ENDBRANCH   1  19
TORSDOF 5
ENDMDL
MODEL 9
REMARK VINA RESULT:      -7.5      2.623      6.408
REMARK  5 active torsions:
REMARK  status: ('A' for Active; 'I' for Inactive)
REMARK    1  A    between atoms: C_8  and  C_9 
REMARK    2  A    between atoms: C_9  and  N_10 
REMARK       I    between atoms: N_10  and  C_11 
REMARK       I    between atoms: C_11  and  N_12 
REMARK    3  A    between atoms: C_13  and  C_14 
REMARK    4  A    between atoms: C_14  and  C_15 
REMARK    5  A    between atoms: C_15  and  C_16 
ROOT
HETATM    1  N   UNL     1      39.870 -13.643   3.945  1.00  0.00    -0.339 N 
HETATM    2  C   UNL     1      41.064 -14.276   4.144  1.00  0.00     0.318 C 
HETATM    3  N   UNL     1      41.058 -15.587   3.656  1.00  0.00    -0.330 N 
HETATM    4  C   UNL     1      40.913 -15.893   2.202  1.00  0.00     0.089 C 
HETATM    5  C   UNL     1      42.309 -15.903   1.539  1.00  0.00     0.025 C 
HETATM    6  C   UNL     1      43.275 -16.844   2.261  1.00  0.00     0.004 C 
HETATM    7  C   UNL     1      43.351 -16.519   3.748  1.00  0.00     0.020 C 
HETATM    8  C   UNL     1      41.953 -16.503   4.359  1.00  0.00     0.128 C 
HETATM    9  O   UNL     1      41.988 -13.783   4.781  1.00  0.00    -0.247 OA
HETATM   10  H   UNL     1      39.087 -14.274   3.860  1.00  0.00     0.164 HD
ENDROOT
BRANCH   4  11
HETATM   11  C   UNL     1      39.929 -14.993   1.424  1.00  0.00     0.030 C 
BRANCH  11  12
HETATM   12  C   UNL     1      40.571 -14.112   0.347  1.00  0.00     0.040 C 
BRANCH  12  13
HETATM   13  C   UNL     1      39.659 -13.996  -0.853  1.00  0.00    -0.058 A 
HETATM   14  C   UNL     1      39.341 -15.133  -1.610  1.00  0.00     0.007 A 
HETATM   15  C   UNL     1      38.537 -15.026  -2.745  1.00  0.00     0.001 A 
HETATM   16  C   UNL     1      38.050 -13.782  -3.139  1.00  0.00     0.000 A 
HETATM   17  C   UNL     1      38.365 -12.644  -2.398  1.00  0.00     0.001 A 
HETATM   18  C   UNL     1      39.166 -12.749  -1.260  1.00  0.00     0.007 A 
ENDBRANCH  12  13
ENDBRANCH  11  12
ENDBRANCH   4  11
BRANCH   1  19
HETATM   19  C   UNL     1      39.591 -12.323   4.455  1.00  0.00     0.167 C 
BRANCH  19  20
HETATM   20  C   UNL     1      39.936 -11.347   3.384  1.00  0.00     0.009 A 
HETATM   21  C   UNL     1      41.049 -10.527   3.311  1.00  0.00     0.034 A 
HETATM   22  C   UNL     1      42.209 -10.368   4.217  1.00  0.00     0.070 C 
HETATM   23  N   UNL     1      40.904  -9.799   2.165  1.00  0.00    -0.282 N 
HETATM   24  H   UNL     1      41.529  -9.096   1.787  1.00  0.00     0.189 HD
HETATM   25  N   UNL     1      39.775 -10.067   1.496  1.00  0.00    -0.179 NA
HETATM   26  C   UNL     1      39.174 -11.012   2.229  1.00  0.00     0.060 A 
HETATM   27  C   UNL     1      37.859 -11.560   1.810  1.00  0.00     0.073 C 
ENDBRANCH  19  20
ENDBRANCH   1  19
TORSDOF 5
ENDMDL
MODEL 10
REMARK VINA RESULT:      -7.5      2.509      6.082
REMARK  5 active torsions:
REMARK  status: ('A' for Active; 'I' for Inactive)
REMARK    1  A    between atoms: C_8  and  C_9 
REMARK    2  A    between atoms: C_9  and  N_10 
REMARK       I    between atoms: N_10  and  C_11 
REMARK       I    between atoms: C_11  and  N_12 
REMARK    3  A    between atoms: C_13  and  C_14 
REMARK    4  A    between atoms: C_14  and  C_15 
REMARK    5  A    between atoms: C_15  and  C_16 
ROOT
HETATM    1  N   UNL     1      41.796 -12.904   6.188  1.00  0.00    -0.339 N 
HETATM    2  C   UNL     1      42.824 -13.748   6.496  1.00  0.00     0.318 C 
HETATM    3  N   UNL     1      42.421 -15.087   6.528  1.00  0.00    -0.330 N 
HETATM    4  C   UNL     1      41.939 -15.801   5.308  1.00  0.00     0.089 C 
HETATM    5  C   UNL     1      43.145 -16.427   4.571  1.00  0.00     0.025 C 
HETATM    6  C   UNL     1      43.982 -17.311   5.498  1.00  0.00     0.004 C 
HETATM    7  C   UNL     1      44.408 -16.549   6.747  1.00  0.00     0.020 C 
HETATM    8  C   UNL     1      43.193 -15.935   7.434  1.00  0.00     0.128 C 
HETATM    9  O   UNL     1      43.940 -13.358   6.820  1.00  0.00    -0.247 OA
HETATM   10  H   UNL     1      40.886 -13.276   6.413  1.00  0.00     0.164 HD
ENDROOT
BRANCH   4  11
HETATM   11  C   UNL     1      41.065 -14.968   4.347  1.00  0.00     0.030 C 
BRANCH  11  12
HETATM   12  C   UNL     1      40.373 -15.772   3.240  1.00  0.00     0.040 C 
BRANCH  12  13
HETATM   13  C   UNL     1      40.057 -14.881   2.060  1.00  0.00    -0.058 A 
HETATM   14  C   UNL     1      40.105 -15.396   0.756  1.00  0.00     0.007 A 
HETATM   15  C   UNL     1      39.859 -14.569  -0.341  1.00  0.00     0.001 A 
HETATM   16  C   UNL     1      39.571 -13.220  -0.146  1.00  0.00     0.000 A 
HETATM   17  C   UNL     1      39.528 -12.696   1.146  1.00  0.00     0.001 A 
HETATM   18  C   UNL     1      39.770 -13.523   2.245  1.00  0.00     0.007 A 
ENDBRANCH  12  13
ENDBRANCH  11  12
ENDBRANCH   4  11
BRANCH   1  19
HETATM   19  C   UNL     1      41.933 -11.468   6.199  1.00  0.00     0.167 C 
BRANCH  19  20
HETATM   20  C   UNL     1      41.796 -10.994   4.795  1.00  0.00     0.009 A 
HETATM   21  C   UNL     1      42.730 -11.079   3.776  1.00  0.00     0.034 A 
HETATM   22  C   UNL     1      44.095 -11.652   3.744  1.00  0.00     0.070 C 
HETATM   23  N   UNL     1      42.155 -10.487   2.689  1.00  0.00    -0.282 N 
HETATM   24  H   UNL     1      42.546 -10.366   1.761  1.00  0.00     0.189 HD
HETATM   25  N   UNL     1      40.927 -10.005   2.925  1.00  0.00    -0.179 NA
HETATM   26  C   UNL     1      40.695 -10.309   4.207  1.00  0.00     0.060 A 
HETATM   27  C   UNL     1      39.417  -9.911   4.850  1.00  0.00     0.073 C 
ENDBRANCH  19  20
ENDBRANCH   1  19
TORSDOF 5
ENDMDL
