MODEL 1
REMARK VINA RESULT:      -8.7      0.000      0.000
REMARK  8 active torsions:
REMARK  status: ('A' for Active; 'I' for Inactive)
REMARK    1  A    between atoms: C_2  and  S_3 
REMARK    2  A    between atoms: S_3  and  C_4 
REMARK    3  A    between atoms: C_4  and  C_5 
REMARK    4  A    between atoms: C_8  and  C_9 
REMARK    5  A    between atoms: C_10  and  C_11 
REMARK    6  A    between atoms: C_23  and  N_24 
REMARK       I    between atoms: N_24  and  C_25 
REMARK    7  A    between atoms: C_25  and  C_26 
REMARK    8  A    between atoms: C_26  and  C_27 
ROOT
HETATM    1  C   UNL     1      42.949  -8.635  10.809  1.00  0.00    -0.035 A 
HETATM    2  C   UNL     1      42.361  -9.320   9.739  1.00  0.00     0.030 A 
HETATM    3  C   UNL     1      43.124  -9.778   8.647  1.00  0.00     0.059 A 
HETATM    4  C   UNL     1      44.507  -9.561   8.633  1.00  0.00     0.050 A 
HETATM    5  N   UNL     1      45.416 -10.049   7.678  1.00  0.00    -0.324 N 
HETATM    6  C   UNL     1      45.351 -11.218   6.963  1.00  0.00     0.245 C 
HETATM    7  O   UNL     1      46.375 -11.592   6.387  1.00  0.00    -0.271 OA
HETATM    8  C   UNL     1      44.109 -12.095   7.106  1.00  0.00     0.182 C 
HETATM    9  N   UNL     1      42.909 -11.347   6.762  1.00  0.00    -0.332 N 
HETATM   10  C   UNL     1      42.345 -10.355   7.522  1.00  0.00     0.256 C 
HETATM   11  O   UNL     1      41.208  -9.937   7.314  1.00  0.00    -0.267 OA
HETATM   12  C   UNL     1      44.117 -13.302   6.157  1.00  0.00     0.061 C 
HETATM   13  C   UNL     1      42.648 -13.445   5.750  1.00  0.00     0.105 C 
HETATM   14  C   UNL     1      42.175 -11.993   5.685  1.00  0.00     0.152 C 
HETATM   15  C   UNL     1      45.081  -8.808   9.671  1.00  0.00     0.031 A 
HETATM   16  C   UNL     1      44.316  -8.368  10.757  1.00  0.00     0.013 A 
HETATM   17  H   UNL     1      46.350  -9.659   7.662  1.00  0.00     0.169 HD
ENDROOT
BRANCH   1  18
HETATM   18  C   UNL     1      42.184  -8.292  12.015  1.00  0.00     0.012 C 
HETATM   19  C   UNL     1      42.755  -7.917  13.171  1.00  0.00     0.012 C 
BRANCH  19  20
HETATM   20  C   UNL     1      42.011  -7.416  14.334  1.00  0.00    -0.036 A 
HETATM   21  C   UNL     1      41.543  -8.327  15.287  1.00  0.00     0.012 A 
HETATM   22  C   UNL     1      40.965  -7.878  16.477  1.00  0.00     0.009 A 
HETATM   23  C   UNL     1      40.857  -6.506  16.745  1.00  0.00    -0.049 A 
HETATM   24  C   UNL     1      41.311  -5.593  15.784  1.00  0.00     0.009 A 
HETATM   25  C   UNL     1      41.883  -6.045  14.591  1.00  0.00     0.012 A 
BRANCH  23  26
HETATM   26  C   UNL     1      40.337  -6.026  18.076  1.00  0.00     0.112 C 
BRANCH  26  27
HETATM   27  S   UNL     1      41.348  -6.694  19.439  1.00  0.00    -0.165 SA
BRANCH  27  28
HETATM   28  C   UNL     1      40.039  -7.525  20.383  1.00  0.00     0.069 C 
HETATM   29  C   UNL     1      39.868  -8.946  19.874  1.00  0.00     0.016 C 
ENDBRANCH  27  28
ENDBRANCH  26  27
ENDBRANCH  23  26
ENDBRANCH  19  20
ENDBRANCH   1  18
BRANCH  13  30
HETATM   30  N   UNL     1      42.399 -14.257   4.574  1.00  0.00    -0.355 N 
HETATM   31  C   UNL     1      41.543 -15.333   4.539  1.00  0.00     0.222 C 
HETATM   32  O   UNL     1      40.893 -15.684   5.524  1.00  0.00    -0.273 OA
HETATM   33  H   UNL     1      42.990 -14.090   3.766  1.00  0.00     0.162 HD
BRANCH  31  34
HETATM   34  C   UNL     1      41.440 -16.126   3.240  1.00  0.00     0.148 C 
BRANCH  34  35
HETATM   35  C   UNL     1      42.416 -17.259   3.117  1.00  0.00    -0.009 A 
HETATM   36  S   UNL     1      43.605 -17.507   4.329  1.00  0.00    -0.106 SA
HETATM   37  C   UNL     1      44.236 -18.873   3.521  1.00  0.00     0.050 A 
HETATM   38  C   UNL     1      43.558 -19.143   2.355  1.00  0.00     0.008 A 
HETATM   39  C   UNL     1      42.505 -18.211   2.121  1.00  0.00     0.015 A 
ENDBRANCH  34  35
ENDBRANCH  31  34
ENDBRANCH  13  30
TORSDOF 8
ENDMDL
MODEL 2
REMARK VINA RESULT:      -8.6      2.593      3.293
REMARK  8 active torsions:
REMARK  status: ('A' for Active; 'I' for Inactive)
REMARK    1  A    between atoms: C_2  and  S_3 
REMARK    2  A    between atoms: S_3  and  C_4 
REMARK    3  A    between atoms: C_4  and  C_5 
REMARK    4  A    between atoms: C_8  and  C_9 
REMARK    5  A    between atoms: C_10  and  C_11 
REMARK    6  A    between atoms: C_23  and  N_24 
REMARK       I    between atoms: N_24  and  C_25 
REMARK    7  A    between atoms: C_25  and  C_26 
REMARK    8  A    between atoms: C_26  and  C_27 
ROOT
HETATM    1  C   UNL     1      44.062  -9.457  10.463  1.00  0.00    -0.035 A 
HETATM    2  C   UNL     1      43.177  -9.669   9.399  1.00  0.00     0.030 A 
HETATM    3  C   UNL     1      43.639  -9.927   8.095  1.00  0.00     0.059 A 
HETATM    4  C   UNL     1      45.016  -9.991   7.851  1.00  0.00     0.050 A 
HETATM    5  N   UNL     1      45.630 -10.347   6.638  1.00  0.00    -0.324 N 
HETATM    6  C   UNL     1      45.178 -11.218   5.680  1.00  0.00     0.245 C 
HETATM    7  O   UNL     1      45.985 -11.601   4.830  1.00  0.00    -0.271 OA
HETATM    8  C   UNL     1      43.792 -11.836   5.849  1.00  0.00     0.182 C 
HETATM    9  N   UNL     1      42.776 -10.799   5.959  1.00  0.00    -0.332 N 
HETATM   10  C   UNL     1      42.589  -9.983   7.045  1.00  0.00     0.256 C 
HETATM   11  O   UNL     1      41.573  -9.307   7.189  1.00  0.00    -0.267 OA
HETATM   12  C   UNL     1      43.366 -12.688   4.644  1.00  0.00     0.061 C 
HETATM   13  C   UNL     1      41.864 -12.413   4.527  1.00  0.00     0.105 C 
HETATM   14  C   UNL     1      41.759 -10.943   4.930  1.00  0.00     0.152 C 
HETATM   15  C   UNL     1      45.900  -9.705   8.904  1.00  0.00     0.031 A 
HETATM   16  C   UNL     1      45.431  -9.461  10.200  1.00  0.00     0.013 A 
HETATM   17  H   UNL     1      46.620 -10.162   6.529  1.00  0.00     0.169 HD
ENDROOT
BRANCH   1  18
HETATM   18  C   UNL     1      43.586  -9.340  11.848  1.00  0.00     0.012 C 
HETATM   19  C   UNL     1      43.339  -8.164  12.447  1.00  0.00     0.012 C 
BRANCH  19  20
HETATM   20  C   UNL     1      42.710  -8.028  13.769  1.00  0.00    -0.036 A 
HETATM   21  C   UNL     1      43.136  -7.006  14.623  1.00  0.00     0.012 A 
HETATM   22  C   UNL     1      42.463  -6.753  15.821  1.00  0.00     0.009 A 
HETATM   23  C   UNL     1      41.339  -7.509  16.182  1.00  0.00    -0.049 A 
HETATM   24  C   UNL     1      40.921  -8.543  15.334  1.00  0.00     0.009 A 
HETATM   25  C   UNL     1      41.601  -8.799  14.139  1.00  0.00     0.012 A 
BRANCH  23  26
HETATM   26  C   UNL     1      40.548  -7.161  17.417  1.00  0.00     0.112 C 
BRANCH  26  27
HETATM   27  S   UNL     1      41.643  -7.052  18.871  1.00  0.00    -0.165 SA
BRANCH  27  28
HETATM   28  C   UNL     1      40.471  -7.587  20.149  1.00  0.00     0.069 C 
HETATM   29  C   UNL     1      39.436  -8.514  19.536  1.00  0.00     0.016 C 
ENDBRANCH  27  28
ENDBRANCH  26  27
ENDBRANCH  23  26
ENDBRANCH  19  20
ENDBRANCH   1  18
BRANCH  13  30
HETATM   30  N   UNL     1      41.257 -12.779   3.261  1.00  0.00    -0.355 N 
HETATM   31  C   UNL     1      40.606 -13.968   3.025  1.00  0.00     0.222 C 
HETATM   32  O   UNL     1      40.471 -14.823   3.899  1.00  0.00    -0.273 OA
HETATM   33  H   UNL     1      41.436 -12.167   2.471  1.00  0.00     0.162 HD
BRANCH  31  34
HETATM   34  C   UNL     1      40.078 -14.230   1.618  1.00  0.00     0.148 C 
BRANCH  34  35
HETATM   35  C   UNL     1      40.002 -13.016   0.739  1.00  0.00    -0.009 A 
HETATM   36  S   UNL     1      38.837 -11.796   1.055  1.00  0.00    -0.106 SA
HETATM   37  C   UNL     1      39.377 -10.850  -0.260  1.00  0.00     0.050 A 
HETATM   38  C   UNL     1      40.425 -11.442  -0.927  1.00  0.00     0.008 A 
HETATM   39  C   UNL     1      40.787 -12.694  -0.350  1.00  0.00     0.015 A 
ENDBRANCH  34  35
ENDBRANCH  31  34
ENDBRANCH  13  30
TORSDOF 8
ENDMDL
MODEL 3
REMARK VINA RESULT:      -8.4      2.392      2.826
REMARK  8 active torsions:
REMARK  status: ('A' for Active; 'I' for Inactive)
REMARK    1  A    between atoms: C_2  and  S_3 
REMARK    2  A    between atoms: S_3  and  C_4 
REMARK    3  A    between atoms: C_4  and  C_5 
REMARK    4  A    between atoms: C_8  and  C_9 
REMARK    5  A    between atoms: C_10  and  C_11 
REMARK    6  A    between atoms: C_23  and  N_24 
REMARK       I    between atoms: N_24  and  C_25 
REMARK    7  A    between atoms: C_25  and  C_26 
REMARK    8  A    between atoms: C_26  and  C_27 
ROOT
HETATM    1  C   UNL     1      43.519  -9.076  11.176  1.00  0.00    -0.035 A 
HETATM    2  C   UNL     1      42.795  -8.999   9.980  1.00  0.00     0.030 A 
HETATM    3  C   UNL     1      43.368  -9.359   8.746  1.00  0.00     0.059 A 
HETATM    4  C   UNL     1      44.688  -9.824   8.708  1.00  0.00     0.050 A 
HETATM    5  N   UNL     1      45.362 -10.324   7.580  1.00  0.00    -0.324 N 
HETATM    6  C   UNL     1      44.838 -11.006   6.511  1.00  0.00     0.245 C 
HETATM    7  O   UNL     1      45.627 -11.595   5.769  1.00  0.00    -0.271 OA
HETATM    8  C   UNL     1      43.325 -11.190   6.430  1.00  0.00     0.182 C 
HETATM    9  N   UNL     1      42.648  -9.902   6.454  1.00  0.00    -0.332 N 
HETATM   10  C   UNL     1      42.531  -9.085   7.549  1.00  0.00     0.256 C 
HETATM   11  O   UNL     1      41.744  -8.142   7.583  1.00  0.00    -0.267 OA
HETATM   12  C   UNL     1      42.872 -11.858   5.124  1.00  0.00     0.061 C 
HETATM   13  C   UNL     1      41.554 -11.150   4.800  1.00  0.00     0.105 C 
HETATM   14  C   UNL     1      41.814  -9.721   5.276  1.00  0.00     0.152 C 
HETATM   15  C   UNL     1      45.434  -9.829   9.898  1.00  0.00     0.031 A 
HETATM   16  C   UNL     1      44.852  -9.480  11.121  1.00  0.00     0.013 A 
HETATM   17  H   UNL     1      46.367 -10.437   7.632  1.00  0.00     0.169 HD
ENDROOT
BRANCH   1  18
HETATM   18  C   UNL     1      42.879  -8.847  12.478  1.00  0.00     0.012 C 
HETATM   19  C   UNL     1      43.003  -7.705  13.173  1.00  0.00     0.012 C 
BRANCH  19  20
HETATM   20  C   UNL     1      42.245  -7.394  14.392  1.00  0.00    -0.036 A 
HETATM   21  C   UNL     1      41.606  -8.431  15.080  1.00  0.00     0.012 A 
HETATM   22  C   UNL     1      41.005  -8.198  16.320  1.00  0.00     0.009 A 
HETATM   23  C   UNL     1      41.043  -6.924  16.904  1.00  0.00    -0.049 A 
HETATM   24  C   UNL     1      41.669  -5.882  16.208  1.00  0.00     0.009 A 
HETATM   25  C   UNL     1      42.265  -6.116  14.965  1.00  0.00     0.012 A 
BRANCH  23  26
HETATM   26  C   UNL     1      40.493  -6.702  18.290  1.00  0.00     0.112 C 
BRANCH  26  27
HETATM   27  S   UNL     1      41.665  -7.304  19.550  1.00  0.00    -0.165 SA
BRANCH  27  28
HETATM   28  C   UNL     1      40.765  -8.784  20.092  1.00  0.00     0.069 C 
HETATM   29  C   UNL     1      39.293  -8.640  19.744  1.00  0.00     0.016 C 
ENDBRANCH  27  28
ENDBRANCH  26  27
ENDBRANCH  23  26
ENDBRANCH  19  20
ENDBRANCH   1  18
BRANCH  13  30
HETATM   30  N   UNL     1      41.080 -11.298   3.437  1.00  0.00    -0.355 N 
HETATM   31  C   UNL     1      39.754 -11.344   3.074  1.00  0.00     0.222 C 
HETATM   32  O   UNL     1      38.847 -11.240   3.899  1.00  0.00    -0.273 OA
HETATM   33  H   UNL     1      41.777 -11.504   2.728  1.00  0.00     0.162 HD
BRANCH  31  34
HETATM   34  C   UNL     1      39.420 -11.570   1.604  1.00  0.00     0.148 C 
BRANCH  34  35
HETATM   35  C   UNL     1      39.656 -12.968   1.113  1.00  0.00    -0.009 A 
HETATM   36  S   UNL     1      39.847 -14.253   2.235  1.00  0.00    -0.106 SA
HETATM   37  C   UNL     1      40.038 -15.401   0.984  1.00  0.00     0.050 A 
HETATM   38  C   UNL     1      39.955 -14.825  -0.263  1.00  0.00     0.008 A 
HETATM   39  C   UNL     1      39.733 -13.419  -0.190  1.00  0.00     0.015 A 
ENDBRANCH  34  35
ENDBRANCH  31  34
ENDBRANCH  13  30
TORSDOF 8
ENDMDL
MODEL 4
REMARK VINA RESULT:      -8.3      3.917      4.995
REMARK  8 active torsions:
REMARK  status: ('A' for Active; 'I' for Inactive)
REMARK    1  A    between atoms: C_2  and  S_3 
REMARK    2  A    between atoms: S_3  and  C_4 
REMARK    3  A    between atoms: C_4  and  C_5 
REMARK    4  A    between atoms: C_8  and  C_9 
REMARK    5  A    between atoms: C_10  and  C_11 
REMARK    6  A    between atoms: C_23  and  N_24 
REMARK       I    between atoms: N_24  and  C_25 
REMARK    7  A    between atoms: C_25  and  C_26 
REMARK    8  A    between atoms: C_26  and  C_27 
ROOT
HETATM    1  C   UNL     1      43.226 -10.121   8.484  1.00  0.00    -0.035 A 
HETATM    2  C   UNL     1      42.459  -9.888   7.336  1.00  0.00     0.030 A 
HETATM    3  C   UNL     1      42.614 -10.666   6.173  1.00  0.00     0.059 A 
HETATM    4  C   UNL     1      43.545 -11.711   6.163  1.00  0.00     0.050 A 
HETATM    5  N   UNL     1      43.739 -12.642   5.127  1.00  0.00    -0.324 N 
HETATM    6  C   UNL     1      42.811 -13.140   4.248  1.00  0.00     0.245 C 
HETATM    7  O   UNL     1      43.119 -14.144   3.602  1.00  0.00    -0.271 OA
HETATM    8  C   UNL     1      41.392 -12.577   4.285  1.00  0.00     0.182 C 
HETATM    9  N   UNL     1      41.405 -11.137   4.080  1.00  0.00    -0.332 N 
HETATM   10  C   UNL     1      41.839 -10.208   4.991  1.00  0.00     0.256 C 
HETATM   11  O   UNL     1      41.597  -9.009   4.872  1.00  0.00    -0.267 OA
HETATM   12  C   UNL     1      40.499 -13.135   3.167  1.00  0.00     0.061 C 
HETATM   13  C   UNL     1      39.631 -11.936   2.775  1.00  0.00     0.105 C 
HETATM   14  C   UNL     1      40.592 -10.758   2.935  1.00  0.00     0.152 C 
HETATM   15  C   UNL     1      44.365 -11.894   7.289  1.00  0.00     0.031 A 
HETATM   16  C   UNL     1      44.194 -11.122   8.444  1.00  0.00     0.013 A 
HETATM   17  H   UNL     1      44.571 -13.218   5.150  1.00  0.00     0.169 HD
ENDROOT
BRANCH   1  18
HETATM   18  C   UNL     1      42.960  -9.413   9.743  1.00  0.00     0.012 C 
HETATM   19  C   UNL     1      42.876 -10.029  10.933  1.00  0.00     0.012 C 
BRANCH  19  20
HETATM   20  C   UNL     1      42.773  -9.327  12.220  1.00  0.00    -0.036 A 
HETATM   21  C   UNL     1      43.568  -8.198  12.445  1.00  0.00     0.012 A 
HETATM   22  C   UNL     1      43.390  -7.420  13.593  1.00  0.00     0.009 A 
HETATM   23  C   UNL     1      42.402  -7.749  14.532  1.00  0.00    -0.049 A 
HETATM   24  C   UNL     1      41.617  -8.888  14.314  1.00  0.00     0.009 A 
HETATM   25  C   UNL     1      41.801  -9.668  13.169  1.00  0.00     0.012 A 
BRANCH  23  26
HETATM   26  C   UNL     1      42.137  -6.845  15.709  1.00  0.00     0.112 C 
BRANCH  26  27
HETATM   27  S   UNL     1      40.673  -5.802  15.403  1.00  0.00    -0.165 SA
BRANCH  27  28
HETATM   28  C   UNL     1      39.609  -6.406  16.743  1.00  0.00     0.069 C 
HETATM   29  C   UNL     1      40.434  -7.231  17.716  1.00  0.00     0.016 C 
ENDBRANCH  27  28
ENDBRANCH  26  27
ENDBRANCH  23  26
ENDBRANCH  19  20
ENDBRANCH   1  18
BRANCH  13  30
HETATM   30  N   UNL     1      38.953 -12.044   1.496  1.00  0.00    -0.355 N 
HETATM   31  C   UNL     1      38.052 -11.124   1.013  1.00  0.00     0.222 C 
HETATM   32  O   UNL     1      37.761 -10.104   1.637  1.00  0.00    -0.273 OA
HETATM   33  H   UNL     1      39.063 -12.917   0.990  1.00  0.00     0.162 HD
BRANCH  31  34
HETATM   34  C   UNL     1      37.375 -11.416  -0.322  1.00  0.00     0.148 C 
BRANCH  34  35
HETATM   35  C   UNL     1      38.263 -12.052  -1.351  1.00  0.00    -0.009 A 
HETATM   36  S   UNL     1      39.602 -11.187  -1.986  1.00  0.00    -0.106 SA
HETATM   37  C   UNL     1      40.057 -12.498  -2.984  1.00  0.00     0.050 A 
HETATM   38  C   UNL     1      39.213 -13.575  -2.838  1.00  0.00     0.008 A 
HETATM   39  C   UNL     1      38.176 -13.319  -1.894  1.00  0.00     0.015 A 
ENDBRANCH  34  35
ENDBRANCH  31  34
ENDBRANCH  13  30
TORSDOF 8
ENDMDL
MODEL 5
REMARK VINA RESULT:      -8.0      2.966     12.788
REMARK  8 active torsions:
REMARK  status: ('A' for Active; 'I' for Inactive)
REMARK    1  A    between atoms: C_2  and  S_3 
REMARK    2  A    between atoms: S_3  and  C_4 
REMARK    3  A    between atoms: C_4  and  C_5 
REMARK    4  A    between atoms: C_8  and  C_9 
REMARK    5  A    between atoms: C_10  and  C_11 
REMARK    6  A    between atoms: C_23  and  N_24 
REMARK       I    between atoms: N_24  and  C_25 
REMARK    7  A    between atoms: C_25  and  C_26 
REMARK    8  A    between atoms: C_26  and  C_27 
ROOT
HETATM    1  C   UNL     1      44.317 -11.210   7.964  1.00  0.00    -0.035 A 
HETATM    2  C   UNL     1      43.876 -11.121   9.290  1.00  0.00     0.030 A 
HETATM    3  C   UNL     1      43.680  -9.878   9.921  1.00  0.00     0.059 A 
HETATM    4  C   UNL     1      43.914  -8.697   9.205  1.00  0.00     0.050 A 
HETATM    5  N   UNL     1      43.660  -7.389   9.654  1.00  0.00    -0.324 N 
HETATM    6  C   UNL     1      42.676  -6.960  10.508  1.00  0.00     0.245 C 
HETATM    7  O   UNL     1      42.452  -5.748  10.556  1.00  0.00    -0.271 OA
HETATM    8  C   UNL     1      41.773  -8.000  11.166  1.00  0.00     0.182 C 
HETATM    9  N   UNL     1      42.562  -8.966  11.916  1.00  0.00    -0.332 N 
HETATM   10  C   UNL     1      43.355  -9.941  11.369  1.00  0.00     0.256 C 
HETATM   11  O   UNL     1      43.794 -10.878  12.032  1.00  0.00    -0.267 OA
HETATM   12  C   UNL     1      40.805  -7.390  12.190  1.00  0.00     0.061 C 
HETATM   13  C   UNL     1      40.736  -8.451  13.291  1.00  0.00     0.105 C 
HETATM   14  C   UNL     1      42.160  -9.006  13.313  1.00  0.00     0.152 C 
HETATM   15  C   UNL     1      44.427  -8.790   7.901  1.00  0.00     0.031 A 
HETATM   16  C   UNL     1      44.607 -10.031   7.280  1.00  0.00     0.013 A 
HETATM   17  H   UNL     1      44.056  -6.618   9.131  1.00  0.00     0.169 HD
ENDROOT
BRANCH   1  18
HETATM   18  C   UNL     1      44.375 -12.497   7.258  1.00  0.00     0.012 C 
HETATM   19  C   UNL     1      43.337 -13.017   6.584  1.00  0.00     0.012 C 
BRANCH  19  20
HETATM   20  C   UNL     1      43.420 -14.217   5.739  1.00  0.00    -0.036 A 
HETATM   21  C   UNL     1      43.966 -15.389   6.272  1.00  0.00     0.012 A 
HETATM   22  C   UNL     1      43.924 -16.585   5.552  1.00  0.00     0.009 A 
HETATM   23  C   UNL     1      43.321 -16.637   4.287  1.00  0.00    -0.049 A 
HETATM   24  C   UNL     1      42.788 -15.460   3.746  1.00  0.00     0.009 A 
HETATM   25  C   UNL     1      42.837 -14.262   4.467  1.00  0.00     0.012 A 
BRANCH  23  26
HETATM   26  C   UNL     1      43.177 -17.951   3.563  1.00  0.00     0.112 C 
BRANCH  26  27
HETATM   27  S   UNL     1      44.196 -19.238   4.358  1.00  0.00    -0.165 SA
BRANCH  27  28
HETATM   28  C   UNL     1      43.814 -20.625   3.251  1.00  0.00     0.069 C 
HETATM   29  C   UNL     1      43.256 -20.094   1.942  1.00  0.00     0.016 C 
ENDBRANCH  27  28
ENDBRANCH  26  27
ENDBRANCH  23  26
ENDBRANCH  19  20
ENDBRANCH   1  18
BRANCH  13  30
HETATM   30  N   UNL     1      40.199  -8.002  14.562  1.00  0.00    -0.355 N 
HETATM   31  C   UNL     1      40.422  -6.758  15.105  1.00  0.00     0.222 C 
HETATM   32  O   UNL     1      41.096  -5.905  14.528  1.00  0.00    -0.273 OA
HETATM   33  H   UNL     1      39.734  -8.698  15.136  1.00  0.00     0.162 HD
BRANCH  31  34
HETATM   34  C   UNL     1      39.840  -6.462  16.483  1.00  0.00     0.148 C 
BRANCH  34  35
HETATM   35  C   UNL     1      40.634  -7.011  17.632  1.00  0.00    -0.009 A 
HETATM   36  S   UNL     1      39.875  -8.011  18.802  1.00  0.00    -0.106 SA
HETATM   37  C   UNL     1      41.332  -8.209  19.671  1.00  0.00     0.050 A 
HETATM   38  C   UNL     1      42.379  -7.534  19.085  1.00  0.00     0.008 A 
HETATM   39  C   UNL     1      41.976  -6.842  17.906  1.00  0.00     0.015 A 
ENDBRANCH  34  35
ENDBRANCH  31  34
ENDBRANCH  13  30
TORSDOF 8
ENDMDL
MODEL 6
REMARK VINA RESULT:      -8.0      6.898     13.852
REMARK  8 active torsions:
REMARK  status: ('A' for Active; 'I' for Inactive)
REMARK    1  A    between atoms: C_2  and  S_3 
REMARK    2  A    between atoms: S_3  and  C_4 
REMARK    3  A    between atoms: C_4  and  C_5 
REMARK    4  A    between atoms: C_8  and  C_9 
REMARK    5  A    between atoms: C_10  and  C_11 
REMARK    6  A    between atoms: C_23  and  N_24 
REMARK       I    between atoms: N_24  and  C_25 
REMARK    7  A    between atoms: C_25  and  C_26 
REMARK    8  A    between atoms: C_26  and  C_27 
ROOT
HETATM    1  C   UNL     1      41.189 -11.392   0.458  1.00  0.00    -0.035 A 
HETATM    2  C   UNL     1      41.358 -10.880   1.750  1.00  0.00     0.030 A 
HETATM    3  C   UNL     1      41.481 -11.725   2.870  1.00  0.00     0.059 A 
HETATM    4  C   UNL     1      41.451 -13.114   2.692  1.00  0.00     0.050 A 
HETATM    5  N   UNL     1      41.670 -14.084   3.685  1.00  0.00    -0.324 N 
HETATM    6  C   UNL     1      42.481 -14.002   4.788  1.00  0.00     0.245 C 
HETATM    7  O   UNL     1      42.748 -15.051   5.379  1.00  0.00    -0.271 OA
HETATM    8  C   UNL     1      43.184 -12.680   5.083  1.00  0.00     0.182 C 
HETATM    9  N   UNL     1      42.217 -11.601   5.217  1.00  0.00    -0.332 N 
HETATM   10  C   UNL     1      41.506 -11.039   4.187  1.00  0.00     0.256 C 
HETATM   11  O   UNL     1      40.899  -9.978   4.312  1.00  0.00    -0.267 OA
HETATM   12  C   UNL     1      43.954 -12.695   6.412  1.00  0.00     0.061 C 
HETATM   13  C   UNL     1      43.751 -11.279   6.957  1.00  0.00     0.105 C 
HETATM   14  C   UNL     1      42.327 -10.948   6.511  1.00  0.00     0.152 C 
HETATM   15  C   UNL     1      41.207 -13.622   1.406  1.00  0.00     0.031 A 
HETATM   16  C   UNL     1      41.098 -12.774   0.298  1.00  0.00     0.013 A 
HETATM   17  H   UNL     1      41.424 -15.045   3.480  1.00  0.00     0.169 HD
ENDROOT
BRANCH   1  18
HETATM   18  C   UNL     1      41.214 -10.521  -0.723  1.00  0.00     0.012 C 
HETATM   19  C   UNL     1      41.793  -9.310  -0.736  1.00  0.00     0.012 C 
BRANCH  19  20
HETATM   20  C   UNL     1      41.972  -8.493  -1.945  1.00  0.00    -0.036 A 
HETATM   21  C   UNL     1      42.957  -7.500  -1.956  1.00  0.00     0.012 A 
HETATM   22  C   UNL     1      43.256  -6.808  -3.133  1.00  0.00     0.009 A 
HETATM   23  C   UNL     1      42.585  -7.107  -4.327  1.00  0.00    -0.049 A 
HETATM   24  C   UNL     1      41.587  -8.090  -4.312  1.00  0.00     0.009 A 
HETATM   25  C   UNL     1      41.285  -8.776  -3.132  1.00  0.00     0.012 A 
BRANCH  23  26
HETATM   26  C   UNL     1      42.988  -6.439  -5.617  1.00  0.00     0.112 C 
BRANCH  26  27
HETATM   27  S   UNL     1      41.543  -6.226  -6.710  1.00  0.00    -0.165 SA
BRANCH  27  28
HETATM   28  C   UNL     1      42.382  -6.343  -8.315  1.00  0.00     0.069 C 
HETATM   29  C   UNL     1      43.874  -6.526  -8.098  1.00  0.00     0.016 C 
ENDBRANCH  27  28
ENDBRANCH  26  27
ENDBRANCH  23  26
ENDBRANCH  19  20
ENDBRANCH   1  18
BRANCH  13  30
HETATM   30  N   UNL     1      44.042 -11.103   8.368  1.00  0.00    -0.355 N 
HETATM   31  C   UNL     1      44.809 -10.083   8.883  1.00  0.00     0.222 C 
HETATM   32  O   UNL     1      45.302  -9.211   8.168  1.00  0.00    -0.273 OA
HETATM   33  H   UNL     1      43.761 -11.852   8.992  1.00  0.00     0.162 HD
BRANCH  31  34
HETATM   34  C   UNL     1      45.076 -10.074  10.384  1.00  0.00     0.148 C 
BRANCH  34  35
HETATM   35  C   UNL     1      43.878  -9.763  11.234  1.00  0.00    -0.009 A 
HETATM   36  S   UNL     1      43.128  -8.223  11.132  1.00  0.00    -0.106 SA
HETATM   37  C   UNL     1      41.948  -8.651  12.291  1.00  0.00     0.050 A 
HETATM   38  C   UNL     1      42.114  -9.939  12.746  1.00  0.00     0.008 A 
HETATM   39  C   UNL     1      43.229 -10.583  12.135  1.00  0.00     0.015 A 
ENDBRANCH  34  35
ENDBRANCH  31  34
ENDBRANCH  13  30
TORSDOF 8
ENDMDL
MODEL 7
REMARK VINA RESULT:      -7.9      2.813     12.842
REMARK  8 active torsions:
REMARK  status: ('A' for Active; 'I' for Inactive)
REMARK    1  A    between atoms: C_2  and  S_3 
REMARK    2  A    between atoms: S_3  and  C_4 
REMARK    3  A    between atoms: C_4  and  C_5 
REMARK    4  A    between atoms: C_8  and  C_9 
REMARK    5  A    between atoms: C_10  and  C_11 
REMARK    6  A    between atoms: C_23  and  N_24 
REMARK       I    between atoms: N_24  and  C_25 
REMARK    7  A    between atoms: C_25  and  C_26 
REMARK    8  A    between atoms: C_26  and  C_27 
ROOT
HETATM    1  C   UNL     1      42.547 -11.110   6.520  1.00  0.00    -0.035 A 
HETATM    2  C   UNL     1      42.907 -10.484   7.719  1.00  0.00     0.030 A 
HETATM    3  C   UNL     1      42.269  -9.310   8.160  1.00  0.00     0.059 A 
HETATM    4  C   UNL     1      41.235  -8.757   7.394  1.00  0.00     0.050 A 
HETATM    5  N   UNL     1      40.430  -7.661   7.750  1.00  0.00    -0.324 N 
HETATM    6  C   UNL     1      40.032  -7.271   9.003  1.00  0.00     0.245 C 
HETATM    7  O   UNL     1      39.110  -6.456   9.081  1.00  0.00    -0.271 OA
HETATM    8  C   UNL     1      40.581  -8.023  10.213  1.00  0.00     0.182 C 
HETATM    9  N   UNL     1      42.036  -7.987  10.225  1.00  0.00    -0.332 N 
HETATM   10  C   UNL     1      42.855  -8.680   9.371  1.00  0.00     0.256 C 
HETATM   11  O   UNL     1      44.059  -8.812   9.581  1.00  0.00    -0.267 OA
HETATM   12  C   UNL     1      40.152  -7.401  11.549  1.00  0.00     0.061 C 
HETATM   13  C   UNL     1      41.385  -7.585  12.439  1.00  0.00     0.105 C 
HETATM   14  C   UNL     1      42.540  -7.399  11.456  1.00  0.00     0.152 C 
HETATM   15  C   UNL     1      40.927  -9.345   6.156  1.00  0.00     0.031 A 
HETATM   16  C   UNL     1      41.561 -10.519   5.732  1.00  0.00     0.013 A 
HETATM   17  H   UNL     1      39.858  -7.233   7.032  1.00  0.00     0.169 HD
ENDROOT
BRANCH   1  18
HETATM   18  C   UNL     1      43.104 -12.413   6.135  1.00  0.00     0.012 C 
HETATM   19  C   UNL     1      42.509 -13.583   6.416  1.00  0.00     0.012 C 
BRANCH  19  20
HETATM   20  C   UNL     1      42.962 -14.884   5.904  1.00  0.00    -0.036 A 
HETATM   21  C   UNL     1      42.621 -15.257   4.599  1.00  0.00     0.012 A 
HETATM   22  C   UNL     1      43.157 -16.414   4.028  1.00  0.00     0.009 A 
HETATM   23  C   UNL     1      44.057 -17.215   4.746  1.00  0.00    -0.049 A 
HETATM   24  C   UNL     1      44.386 -16.849   6.058  1.00  0.00     0.009 A 
HETATM   25  C   UNL     1      43.843 -15.695   6.630  1.00  0.00     0.012 A 
BRANCH  23  26
HETATM   26  C   UNL     1      44.720 -18.398   4.088  1.00  0.00     0.112 C 
BRANCH  26  27
HETATM   27  S   UNL     1      43.683 -19.044   2.733  1.00  0.00    -0.165 SA
BRANCH  27  28
HETATM   28  C   UNL     1      43.664 -20.797   3.201  1.00  0.00     0.069 C 
HETATM   29  C   UNL     1      44.033 -20.936   4.668  1.00  0.00     0.016 C 
ENDBRANCH  27  28
ENDBRANCH  26  27
ENDBRANCH  23  26
ENDBRANCH  19  20
ENDBRANCH   1  18
BRANCH  13  30
HETATM   30  N   UNL     1      41.421  -6.767  13.637  1.00  0.00    -0.355 N 
HETATM   31  C   UNL     1      41.735  -7.238  14.891  1.00  0.00     0.222 C 
HETATM   32  O   UNL     1      42.035  -8.415  15.091  1.00  0.00    -0.273 OA
HETATM   33  H   UNL     1      41.072  -5.818  13.557  1.00  0.00     0.162 HD
BRANCH  31  34
HETATM   34  C   UNL     1      41.665  -6.263  16.062  1.00  0.00     0.148 C 
BRANCH  34  35
HETATM   35  C   UNL     1      41.207  -6.868  17.357  1.00  0.00    -0.009 A 
HETATM   36  S   UNL     1      42.306  -7.036  18.664  1.00  0.00    -0.106 SA
HETATM   37  C   UNL     1      41.107  -7.724  19.667  1.00  0.00     0.050 A 
HETATM   38  C   UNL     1      39.892  -7.822  19.027  1.00  0.00     0.008 A 
HETATM   39  C   UNL     1      39.949  -7.327  17.692  1.00  0.00     0.015 A 
ENDBRANCH  34  35
ENDBRANCH  31  34
ENDBRANCH  13  30
TORSDOF 8
ENDMDL
MODEL 8
REMARK VINA RESULT:      -7.8      7.114     10.201
REMARK  8 active torsions:
REMARK  status: ('A' for Active; 'I' for Inactive)
REMARK    1  A    between atoms: C_2  and  S_3 
REMARK    2  A    between atoms: S_3  and  C_4 
REMARK    3  A    between atoms: C_4  and  C_5 
REMARK    4  A    between atoms: C_8  and  C_9 
REMARK    5  A    between atoms: C_10  and  C_11 
REMARK    6  A    between atoms: C_23  and  N_24 
REMARK       I    between atoms: N_24  and  C_25 
REMARK    7  A    between atoms: C_25  and  C_26 
REMARK    8  A    between atoms: C_26  and  C_27 
ROOT
HETATM    1  C   UNL     1      42.655 -12.925   3.480  1.00  0.00    -0.035 A 
HETATM    2  C   UNL     1      42.049 -12.037   2.583  1.00  0.00     0.030 A 
HETATM    3  C   UNL     1      41.517 -12.475   1.355  1.00  0.00     0.059 A 
HETATM    4  C   UNL     1      41.576 -13.835   1.024  1.00  0.00     0.050 A 
HETATM    5  N   UNL     1      40.996 -14.442  -0.103  1.00  0.00    -0.324 N 
HETATM    6  C   UNL     1      39.848 -14.086  -0.763  1.00  0.00     0.245 C 
HETATM    7  O   UNL     1      39.365 -14.904  -1.549  1.00  0.00    -0.271 OA
HETATM    8  C   UNL     1      39.116 -12.819  -0.328  1.00  0.00     0.182 C 
HETATM    9  N   UNL     1      39.997 -11.664  -0.404  1.00  0.00    -0.332 N 
HETATM   10  C   UNL     1      41.040 -11.402   0.446  1.00  0.00     0.256 C 
HETATM   11  O   UNL     1      41.587 -10.302   0.494  1.00  0.00    -0.267 OA
HETATM   12  C   UNL     1      37.924 -12.476  -1.232  1.00  0.00     0.061 C 
HETATM   13  C   UNL     1      37.951 -10.946  -1.293  1.00  0.00     0.105 C 
HETATM   14  C   UNL     1      39.448 -10.636  -1.275  1.00  0.00     0.152 C 
HETATM   15  C   UNL     1      42.250 -14.710   1.892  1.00  0.00     0.031 A 
HETATM   16  C   UNL     1      42.765 -14.265   3.115  1.00  0.00     0.013 A 
HETATM   17  H   UNL     1      41.278 -15.387  -0.337  1.00  0.00     0.169 HD
ENDROOT
BRANCH   1  18
HETATM   18  C   UNL     1      43.071 -12.497   4.822  1.00  0.00     0.012 C 
HETATM   19  C   UNL     1      43.925 -11.485   5.043  1.00  0.00     0.012 C 
BRANCH  19  20
HETATM   20  C   UNL     1      44.228 -10.937   6.372  1.00  0.00    -0.036 A 
HETATM   21  C   UNL     1      43.185 -10.430   7.154  1.00  0.00     0.012 A 
HETATM   22  C   UNL     1      43.412 -10.040   8.477  1.00  0.00     0.009 A 
HETATM   23  C   UNL     1      44.687 -10.163   9.048  1.00  0.00    -0.049 A 
HETATM   24  C   UNL     1      45.735 -10.655   8.260  1.00  0.00     0.009 A 
HETATM   25  C   UNL     1      45.506 -11.038   6.935  1.00  0.00     0.012 A 
BRANCH  23  26
HETATM   26  C   UNL     1      44.903  -9.848  10.507  1.00  0.00     0.112 C 
BRANCH  26  27
HETATM   27  S   UNL     1      43.797 -10.854  11.552  1.00  0.00    -0.165 SA
BRANCH  27  28
HETATM   28  C   UNL     1      42.687  -9.543  12.135  1.00  0.00     0.069 C 
HETATM   29  C   UNL     1      43.479  -8.267  12.360  1.00  0.00     0.016 C 
ENDBRANCH  27  28
ENDBRANCH  26  27
ENDBRANCH  23  26
ENDBRANCH  19  20
ENDBRANCH   1  18
BRANCH  13  30
HETATM   30  N   UNL     1      37.182 -10.347  -2.367  1.00  0.00    -0.355 N 
HETATM   31  C   UNL     1      36.409  -9.217  -2.235  1.00  0.00     0.222 C 
HETATM   32  O   UNL     1      36.326  -8.604  -1.171  1.00  0.00    -0.273 OA
HETATM   33  H   UNL     1      37.118 -10.871  -3.234  1.00  0.00     0.162 HD
BRANCH  31  34
HETATM   34  C   UNL     1      35.607  -8.750  -3.445  1.00  0.00     0.148 C 
BRANCH  34  35
HETATM   35  C   UNL     1      34.188  -9.236  -3.484  1.00  0.00    -0.009 A 
HETATM   36  S   UNL     1      32.899  -8.115  -3.655  1.00  0.00    -0.106 SA
HETATM   37  C   UNL     1      31.730  -9.360  -3.632  1.00  0.00     0.050 A 
HETATM   38  C   UNL     1      32.302 -10.605  -3.503  1.00  0.00     0.008 A 
HETATM   39  C   UNL     1      33.723 -10.534  -3.417  1.00  0.00     0.015 A 
ENDBRANCH  34  35
ENDBRANCH  31  34
ENDBRANCH  13  30
TORSDOF 8
ENDMDL
MODEL 9
REMARK VINA RESULT:      -7.8      6.415     13.878
REMARK  8 active torsions:
REMARK  status: ('A' for Active; 'I' for Inactive)
REMARK    1  A    between atoms: C_2  and  S_3 
REMARK    2  A    between atoms: S_3  and  C_4 
REMARK    3  A    between atoms: C_4  and  C_5 
REMARK    4  A    between atoms: C_8  and  C_9 
REMARK    5  A    between atoms: C_10  and  C_11 
REMARK    6  A    between atoms: C_23  and  N_24 
REMARK       I    between atoms: N_24  and  C_25 
REMARK    7  A    between atoms: C_25  and  C_26 
REMARK    8  A    between atoms: C_26  and  C_27 
ROOT
HETATM    1  C   UNL     1      40.514 -13.387   0.584  1.00  0.00    -0.035 A 
HETATM    2  C   UNL     1      40.771 -12.637   1.738  1.00  0.00     0.030 A 
HETATM    3  C   UNL     1      40.995 -13.252   2.985  1.00  0.00     0.059 A 
HETATM    4  C   UNL     1      40.979 -14.649   3.077  1.00  0.00     0.050 A 
HETATM    5  N   UNL     1      41.292 -15.411   4.216  1.00  0.00    -0.324 N 
HETATM    6  C   UNL     1      42.183 -15.117   5.216  1.00  0.00     0.245 C 
HETATM    7  O   UNL     1      42.514 -16.032   5.973  1.00  0.00    -0.271 OA
HETATM    8  C   UNL     1      42.881 -13.759   5.198  1.00  0.00     0.182 C 
HETATM    9  N   UNL     1      41.906 -12.679   5.200  1.00  0.00    -0.332 N 
HETATM   10  C   UNL     1      41.108 -12.327   4.142  1.00  0.00     0.256 C 
HETATM   11  O   UNL     1      40.492 -11.264   4.110  1.00  0.00    -0.267 OA
HETATM   12  C   UNL     1      43.751 -13.517   6.441  1.00  0.00     0.061 C 
HETATM   13  C   UNL     1      43.563 -12.024   6.721  1.00  0.00     0.105 C 
HETATM   14  C   UNL     1      42.103 -11.790   6.334  1.00  0.00     0.152 C 
HETATM   15  C   UNL     1      40.646 -15.395   1.934  1.00  0.00     0.031 A 
HETATM   16  C   UNL     1      40.437 -14.774   0.698  1.00  0.00     0.013 A 
HETATM   17  H   UNL     1      41.048 -16.394   4.217  1.00  0.00     0.169 HD
ENDROOT
BRANCH   1  18
HETATM   18  C   UNL     1      40.432 -12.758  -0.740  1.00  0.00     0.012 C 
HETATM   19  C   UNL     1      39.672 -11.682  -1.001  1.00  0.00     0.012 C 
BRANCH  19  20
HETATM   20  C   UNL     1      39.699 -10.941  -2.269  1.00  0.00    -0.036 A 
HETATM   21  C   UNL     1      38.494 -10.499  -2.826  1.00  0.00     0.012 A 
HETATM   22  C   UNL     1      38.492  -9.666  -3.948  1.00  0.00     0.009 A 
HETATM   23  C   UNL     1      39.697  -9.245  -4.527  1.00  0.00    -0.049 A 
HETATM   24  C   UNL     1      40.903  -9.700  -3.979  1.00  0.00     0.009 A 
HETATM   25  C   UNL     1      40.903 -10.539  -2.861  1.00  0.00     0.012 A 
BRANCH  23  26
HETATM   26  C   UNL     1      39.693  -8.257  -5.665  1.00  0.00     0.112 C 
BRANCH  26  27
HETATM   27  S   UNL     1      41.071  -7.075  -5.496  1.00  0.00    -0.165 SA
BRANCH  27  28
HETATM   28  C   UNL     1      41.400  -6.768  -7.254  1.00  0.00     0.069 C 
HETATM   29  C   UNL     1      40.747  -7.854  -8.091  1.00  0.00     0.016 C 
ENDBRANCH  27  28
ENDBRANCH  26  27
ENDBRANCH  23  26
ENDBRANCH  19  20
ENDBRANCH   1  18
BRANCH  13  30
HETATM   30  N   UNL     1      43.957 -11.580   8.045  1.00  0.00    -0.355 N 
HETATM   31  C   UNL     1      44.958 -10.670   8.295  1.00  0.00     0.222 C 
HETATM   32  O   UNL     1      45.598 -10.137   7.388  1.00  0.00    -0.273 OA
HETATM   33  H   UNL     1      43.547 -12.068   8.834  1.00  0.00     0.162 HD
BRANCH  31  34
HETATM   34  C   UNL     1      45.296 -10.356   9.748  1.00  0.00     0.148 C 
BRANCH  34  35
HETATM   35  C   UNL     1      44.116 -10.007  10.607  1.00  0.00    -0.009 A 
HETATM   36  S   UNL     1      43.242  -8.559  10.321  1.00  0.00    -0.106 SA
HETATM   37  C   UNL     1      42.151  -8.890  11.593  1.00  0.00     0.050 A 
HETATM   38  C   UNL     1      42.439 -10.080  12.223  1.00  0.00     0.008 A 
HETATM   39  C   UNL     1      43.574 -10.726  11.653  1.00  0.00     0.015 A 
ENDBRANCH  34  35
ENDBRANCH  31  34
ENDBRANCH  13  30
TORSDOF 8
ENDMDL
MODEL 10
REMARK VINA RESULT:      -7.7      9.102     12.678
REMARK  8 active torsions:
REMARK  status: ('A' for Active; 'I' for Inactive)
REMARK    1  A    between atoms: C_2  and  S_3 
REMARK    2  A    between atoms: S_3  and  C_4 
REMARK    3  A    between atoms: C_4  and  C_5 
REMARK    4  A    between atoms: C_8  and  C_9 
REMARK    5  A    between atoms: C_10  and  C_11 
REMARK    6  A    between atoms: C_23  and  N_24 
REMARK       I    between atoms: N_24  and  C_25 
REMARK    7  A    between atoms: C_25  and  C_26 
REMARK    8  A    between atoms: C_26  and  C_27 
ROOT
HETATM    1  C   UNL     1      37.767 -10.143   0.317  1.00  0.00    -0.035 A 
HETATM    2  C   UNL     1      38.481 -11.343   0.409  1.00  0.00     0.030 A 
HETATM    3  C   UNL     1      39.788 -11.387   0.932  1.00  0.00     0.059 A 
HETATM    4  C   UNL     1      40.387 -10.207   1.388  1.00  0.00     0.050 A 
HETATM    5  N   UNL     1      41.632 -10.103   2.034  1.00  0.00    -0.324 N 
HETATM    6  C   UNL     1      42.239 -11.014   2.860  1.00  0.00     0.245 C 
HETATM    7  O   UNL     1      43.190 -10.622   3.540  1.00  0.00    -0.271 OA
HETATM    8  C   UNL     1      41.576 -12.374   3.063  1.00  0.00     0.182 C 
HETATM    9  N   UNL     1      41.389 -13.051   1.789  1.00  0.00    -0.332 N 
HETATM   10  C   UNL     1      40.472 -12.702   0.830  1.00  0.00     0.256 C 
HETATM   11  O   UNL     1      40.184 -13.447  -0.103  1.00  0.00    -0.267 OA
HETATM   12  C   UNL     1      42.427 -13.334   3.907  1.00  0.00     0.061 C 
HETATM   13  C   UNL     1      42.172 -14.698   3.259  1.00  0.00     0.105 C 
HETATM   14  C   UNL     1      42.047 -14.347   1.777  1.00  0.00     0.152 C 
HETATM   15  C   UNL     1      39.698  -8.995   1.225  1.00  0.00     0.031 A 
HETATM   16  C   UNL     1      38.395  -8.964   0.715  1.00  0.00     0.013 A 
HETATM   17  H   UNL     1      42.045  -9.183   2.132  1.00  0.00     0.169 HD
ENDROOT
BRANCH   1  18
HETATM   18  C   UNL     1      36.354 -10.117  -0.084  1.00  0.00     0.012 C 
HETATM   19  C   UNL     1      35.662  -8.984  -0.281  1.00  0.00     0.012 C 
BRANCH  19  20
HETATM   20  C   UNL     1      34.303  -8.933  -0.836  1.00  0.00    -0.036 A 
HETATM   21  C   UNL     1      33.990  -9.725  -1.946  1.00  0.00     0.012 A 
HETATM   22  C   UNL     1      32.674  -9.816  -2.408  1.00  0.00     0.009 A 
HETATM   23  C   UNL     1      31.640  -9.127  -1.758  1.00  0.00    -0.049 A 
HETATM   24  C   UNL     1      31.956  -8.321  -0.656  1.00  0.00     0.009 A 
HETATM   25  C   UNL     1      33.274  -8.227  -0.201  1.00  0.00     0.012 A 
BRANCH  23  26
HETATM   26  C   UNL     1      30.208  -9.317  -2.188  1.00  0.00     0.112 C 
BRANCH  26  27
HETATM   27  S   UNL     1      29.149  -9.691  -0.751  1.00  0.00    -0.165 SA
BRANCH  27  28
HETATM   28  C   UNL     1      27.680 -10.292  -1.630  1.00  0.00     0.069 C 
HETATM   29  C   UNL     1      28.059 -11.473  -2.508  1.00  0.00     0.016 C 
ENDBRANCH  27  28
ENDBRANCH  26  27
ENDBRANCH  23  26
ENDBRANCH  19  20
ENDBRANCH   1  18
BRANCH  13  30
HETATM   30  N   UNL     1      43.124 -15.740   3.597  1.00  0.00    -0.355 N 
HETATM   31  C   UNL     1      43.019 -16.564   4.693  1.00  0.00     0.222 C 
HETATM   32  O   UNL     1      42.075 -16.488   5.480  1.00  0.00    -0.273 OA
HETATM   33  H   UNL     1      43.980 -15.773   3.054  1.00  0.00     0.162 HD
BRANCH  31  34
HETATM   34  C   UNL     1      44.139 -17.568   4.946  1.00  0.00     0.148 C 
BRANCH  34  35
HETATM   35  C   UNL     1      44.041 -18.833   4.144  1.00  0.00    -0.009 A 
HETATM   36  S   UNL     1      44.220 -20.356   4.914  1.00  0.00    -0.106 SA
HETATM   37  C   UNL     1      43.977 -21.198   3.448  1.00  0.00     0.050 A 
HETATM   38  C   UNL     1      43.758 -20.343   2.392  1.00  0.00     0.008 A 
HETATM   39  C   UNL     1      43.794 -18.976   2.793  1.00  0.00     0.015 A 
ENDBRANCH  34  35
ENDBRANCH  31  34
ENDBRANCH  13  30
TORSDOF 8
ENDMDL
