MODEL 1
REMARK VINA RESULT:      -8.0      0.000      0.000
REMARK  6 active torsions:
REMARK  status: ('A' for Active; 'I' for Inactive)
REMARK    1  A    between atoms: C_2  and  N_3 
REMARK    2  A    between atoms: N_3  and  C_5 
REMARK    3  A    between atoms: N_3  and  C_28 
REMARK    4  A    between atoms: C_8  and  C_9 
REMARK    5  A    between atoms: N_10  and  C_11 
REMARK    6  A    between atoms: C_11  and  C_12 
ROOT
HETATM    1  C   UNL     1      41.491 -14.436   0.772  1.00  0.00     0.199 C 
HETATM    2  N   UNL     1      41.244 -13.074   1.211  1.00  0.00    -0.321 N 
HETATM    3  C   UNL     1      40.737 -12.171   0.279  1.00  0.00     0.257 C 
HETATM    4  O   UNL     1      40.851 -10.953   0.379  1.00  0.00    -0.267 OA
HETATM    5  C   UNL     1      39.990 -12.747  -0.860  1.00  0.00     0.053 A 
HETATM    6  C   UNL     1      39.779 -14.130  -0.878  1.00  0.00     0.026 A 
HETATM    7  N   UNL     1      40.276 -14.953   0.150  1.00  0.00    -0.266 NA
HETATM    8  C   UNL     1      39.457 -11.919  -1.854  1.00  0.00     0.019 A 
HETATM    9  C   UNL     1      38.664 -12.471  -2.860  1.00  0.00     0.001 A 
HETATM   10  C   UNL     1      38.392 -13.838  -2.853  1.00  0.00     0.002 A 
HETATM   11  C   UNL     1      38.935 -14.660  -1.860  1.00  0.00     0.024 A 
HETATM   12  H   UNL     1      40.386 -15.910  -0.173  1.00  0.00     0.130 HD
ENDROOT
BRANCH   1  13
HETATM   13  C   UNL     1      41.896 -15.416   1.869  1.00  0.00    -0.021 A 
HETATM   14  C   UNL     1      41.020 -15.756   2.910  1.00  0.00     0.013 A 
HETATM   15  C   UNL     1      41.442 -16.581   3.959  1.00  0.00     0.038 A 
HETATM   16  C   UNL     1      42.728 -17.138   3.966  1.00  0.00     0.134 A 
HETATM   17  C   UNL     1      43.589 -16.837   2.906  1.00  0.00     0.038 A 
HETATM   18  C   UNL     1      43.181 -15.979   1.876  1.00  0.00     0.013 A 
BRANCH  16  19
HETATM   19  N   UNL     1      43.135 -17.972   5.140  1.00  0.00    -0.042 N 
HETATM   20  H   UNL     1      42.321 -18.585   5.294  1.00  0.00     0.286 HD
BRANCH  19  21
HETATM   21  C   UNL     1      43.343 -17.237   6.447  1.00  0.00     0.237 C 
HETATM   22  C   UNL     1      44.611 -16.400   6.417  1.00  0.00     0.035 C 
ENDBRANCH  19  21
BRANCH  19  23
HETATM   23  C   UNL     1      44.291 -18.905   4.819  1.00  0.00     0.237 C 
HETATM   24  C   UNL     1      44.045 -20.332   5.271  1.00  0.00     0.035 C 
ENDBRANCH  19  23
ENDBRANCH  16  19
ENDBRANCH   1  13
BRANCH   2  25
HETATM   25  C   UNL     1      41.934 -12.514   2.368  1.00  0.00     0.193 C 
BRANCH  25  26
HETATM   26  C   UNL     1      41.078 -12.494   3.584  1.00  0.00     0.070 A 
HETATM   27  O   UNL     1      41.689 -12.794   4.769  1.00  0.00    -0.325 OA
HETATM   28  C   UNL     1      40.722 -12.805   5.721  1.00  0.00     0.142 A 
HETATM   29  C   UNL     1      39.500 -12.492   5.172  1.00  0.00     0.027 A 
HETATM   30  C   UNL     1      39.729 -12.288   3.789  1.00  0.00     0.036 A 
ENDBRANCH  25  26
ENDBRANCH   2  25
TORSDOF 6
ENDMDL
MODEL 2
REMARK VINA RESULT:      -7.8      2.799      4.986
REMARK  6 active torsions:
REMARK  status: ('A' for Active; 'I' for Inactive)
REMARK    1  A    between atoms: C_2  and  N_3 
REMARK    2  A    between atoms: N_3  and  C_5 
REMARK    3  A    between atoms: N_3  and  C_28 
REMARK    4  A    between atoms: C_8  and  C_9 
REMARK    5  A    between atoms: N_10  and  C_11 
REMARK    6  A    between atoms: C_11  and  C_12 
ROOT
HETATM    1  C   UNL     1      40.507 -13.298   2.305  1.00  0.00     0.199 C 
HETATM    2  N   UNL     1      40.472 -14.733   2.089  1.00  0.00    -0.321 N 
HETATM    3  C   UNL     1      39.995 -15.197   0.864  1.00  0.00     0.257 C 
HETATM    4  O   UNL     1      39.547 -16.326   0.691  1.00  0.00    -0.267 OA
HETATM    5  C   UNL     1      40.088 -14.261  -0.277  1.00  0.00     0.053 A 
HETATM    6  C   UNL     1      40.711 -13.026  -0.068  1.00  0.00     0.026 A 
HETATM    7  N   UNL     1      41.223 -12.676   1.196  1.00  0.00    -0.266 NA
HETATM    8  C   UNL     1      39.620 -14.632  -1.542  1.00  0.00     0.019 A 
HETATM    9  C   UNL     1      39.816 -13.779  -2.628  1.00  0.00     0.001 A 
HETATM   10  C   UNL     1      40.494 -12.575  -2.447  1.00  0.00     0.002 A 
HETATM   11  C   UNL     1      40.951 -12.207  -1.177  1.00  0.00     0.024 A 
HETATM   12  H   UNL     1      41.287 -11.667   1.295  1.00  0.00     0.130 HD
ENDROOT
BRANCH   1  13
HETATM   13  C   UNL     1      41.181 -12.845   3.597  1.00  0.00    -0.021 A 
HETATM   14  C   UNL     1      40.434 -12.510   4.736  1.00  0.00     0.013 A 
HETATM   15  C   UNL     1      41.061 -12.005   5.880  1.00  0.00     0.038 A 
HETATM   16  C   UNL     1      42.456 -11.878   5.940  1.00  0.00     0.134 A 
HETATM   17  C   UNL     1      43.208 -12.253   4.823  1.00  0.00     0.038 A 
HETATM   18  C   UNL     1      42.576 -12.722   3.662  1.00  0.00     0.013 A 
BRANCH  16  19
HETATM   19  N   UNL     1      43.063 -11.286   7.174  1.00  0.00    -0.042 N 
HETATM   20  H   UNL     1      42.505 -11.694   7.937  1.00  0.00     0.286 HD
BRANCH  19  21
HETATM   21  C   UNL     1      42.933  -9.785   7.333  1.00  0.00     0.237 C 
HETATM   22  C   UNL     1      41.903  -9.427   8.390  1.00  0.00     0.035 C 
ENDBRANCH  19  21
BRANCH  19  23
HETATM   23  C   UNL     1      44.486 -11.764   7.410  1.00  0.00     0.237 C 
HETATM   24  C   UNL     1      45.355 -10.726   8.095  1.00  0.00     0.035 C 
ENDBRANCH  19  23
ENDBRANCH  16  19
ENDBRANCH   1  13
BRANCH   2  25
HETATM   25  C   UNL     1      40.438 -15.667   3.209  1.00  0.00     0.193 C 
BRANCH  25  26
HETATM   26  C   UNL     1      41.731 -16.377   3.396  1.00  0.00     0.070 A 
HETATM   27  O   UNL     1      42.051 -17.325   2.466  1.00  0.00    -0.325 OA
HETATM   28  C   UNL     1      43.210 -17.902   2.871  1.00  0.00     0.142 A 
HETATM   29  C   UNL     1      43.657 -17.322   4.036  1.00  0.00     0.027 A 
HETATM   30  C   UNL     1      42.702 -16.332   4.376  1.00  0.00     0.036 A 
ENDBRANCH  25  26
ENDBRANCH   2  25
TORSDOF 6
ENDMDL
MODEL 3
REMARK VINA RESULT:      -7.7      1.738      4.739
REMARK  6 active torsions:
REMARK  status: ('A' for Active; 'I' for Inactive)
REMARK    1  A    between atoms: C_2  and  N_3 
REMARK    2  A    between atoms: N_3  and  C_5 
REMARK    3  A    between atoms: N_3  and  C_28 
REMARK    4  A    between atoms: C_8  and  C_9 
REMARK    5  A    between atoms: N_10  and  C_11 
REMARK    6  A    between atoms: C_11  and  C_12 
ROOT
HETATM    1  C   UNL     1      40.662 -14.050   3.326  1.00  0.00     0.199 C 
HETATM    2  N   UNL     1      41.046 -12.961   2.445  1.00  0.00    -0.321 N 
HETATM    3  C   UNL     1      40.339 -11.763   2.543  1.00  0.00     0.257 C 
HETATM    4  O   UNL     1      40.277 -10.934   1.640  1.00  0.00    -0.267 OA
HETATM    5  C   UNL     1      39.672 -11.494   3.835  1.00  0.00     0.053 A 
HETATM    6  C   UNL     1      39.863 -12.407   4.878  1.00  0.00     0.026 A 
HETATM    7  N   UNL     1      40.653 -13.558   4.700  1.00  0.00    -0.266 NA
HETATM    8  C   UNL     1      38.927 -10.325   4.022  1.00  0.00     0.019 A 
HETATM    9  C   UNL     1      38.399 -10.037   5.280  1.00  0.00     0.001 A 
HETATM   10  C   UNL     1      38.636 -10.905   6.344  1.00  0.00     0.002 A 
HETATM   11  C   UNL     1      39.375 -12.076   6.147  1.00  0.00     0.024 A 
HETATM   12  H   UNL     1      40.398 -14.280   5.366  1.00  0.00     0.130 HD
ENDROOT
BRANCH   1  13
HETATM   13  C   UNL     1      41.567 -15.278   3.284  1.00  0.00    -0.021 A 
HETATM   14  C   UNL     1      41.292 -16.363   2.441  1.00  0.00     0.013 A 
HETATM   15  C   UNL     1      42.077 -17.521   2.485  1.00  0.00     0.038 A 
HETATM   16  C   UNL     1      43.194 -17.602   3.328  1.00  0.00     0.134 A 
HETATM   17  C   UNL     1      43.498 -16.503   4.138  1.00  0.00     0.038 A 
HETATM   18  C   UNL     1      42.688 -15.359   4.123  1.00  0.00     0.013 A 
BRANCH  16  19
HETATM   19  N   UNL     1      43.965 -18.885   3.365  1.00  0.00    -0.042 N 
HETATM   20  H   UNL     1      44.769 -18.700   2.748  1.00  0.00     0.286 HD
BRANCH  19  21
HETATM   21  C   UNL     1      43.275 -20.100   2.783  1.00  0.00     0.237 C 
HETATM   22  C   UNL     1      43.917 -20.528   1.474  1.00  0.00     0.035 C 
ENDBRANCH  19  21
BRANCH  19  23
HETATM   23  C   UNL     1      44.560 -19.167   4.734  1.00  0.00     0.237 C 
HETATM   24  C   UNL     1      44.012 -20.431   5.370  1.00  0.00     0.035 C 
ENDBRANCH  19  23
ENDBRANCH  16  19
ENDBRANCH   1  13
BRANCH   2  25
HETATM   25  C   UNL     1      41.754 -13.212   1.195  1.00  0.00     0.193 C 
BRANCH  25  26
HETATM   26  C   UNL     1      40.831 -13.533   0.074  1.00  0.00     0.070 A 
HETATM   27  O   UNL     1      40.829 -12.669  -0.985  1.00  0.00    -0.325 OA
HETATM   28  C   UNL     1      39.865 -13.094  -1.840  1.00  0.00     0.142 A 
HETATM   29  C   UNL     1      39.262 -14.234  -1.360  1.00  0.00     0.027 A 
HETATM   30  C   UNL     1      39.888 -14.520  -0.123  1.00  0.00     0.036 A 
ENDBRANCH  25  26
ENDBRANCH   2  25
TORSDOF 6
ENDMDL
MODEL 4
REMARK VINA RESULT:      -7.6      2.119      7.171
REMARK  6 active torsions:
REMARK  status: ('A' for Active; 'I' for Inactive)
REMARK    1  A    between atoms: C_2  and  N_3 
REMARK    2  A    between atoms: N_3  and  C_5 
REMARK    3  A    between atoms: N_3  and  C_28 
REMARK    4  A    between atoms: C_8  and  C_9 
REMARK    5  A    between atoms: N_10  and  C_11 
REMARK    6  A    between atoms: C_11  and  C_12 
ROOT
HETATM    1  C   UNL     1      41.280 -15.992   3.095  1.00  0.00     0.199 C 
HETATM    2  N   UNL     1      42.042 -15.467   4.214  1.00  0.00    -0.321 N 
HETATM    3  C   UNL     1      42.735 -16.374   5.014  1.00  0.00     0.257 C 
HETATM    4  O   UNL     1      43.074 -16.142   6.170  1.00  0.00    -0.267 OA
HETATM    5  C   UNL     1      43.101 -17.662   4.386  1.00  0.00     0.053 A 
HETATM    6  C   UNL     1      42.801 -17.843   3.031  1.00  0.00     0.026 A 
HETATM    7  N   UNL     1      42.156 -16.836   2.289  1.00  0.00    -0.266 NA
HETATM    8  C   UNL     1      43.784 -18.641   5.115  1.00  0.00     0.019 A 
HETATM    9  C   UNL     1      44.216 -19.802   4.475  1.00  0.00     0.001 A 
HETATM   10  C   UNL     1      43.982 -19.967   3.111  1.00  0.00     0.002 A 
HETATM   11  C   UNL     1      43.291 -18.987   2.390  1.00  0.00     0.024 A 
HETATM   12  H   UNL     1      41.679 -17.229   1.483  1.00  0.00     0.130 HD
ENDROOT
BRANCH   1  13
HETATM   13  C   UNL     1      40.671 -14.945   2.167  1.00  0.00    -0.021 A 
HETATM   14  C   UNL     1      41.063 -14.838   0.825  1.00  0.00     0.013 A 
HETATM   15  C   UNL     1      40.566 -13.811   0.014  1.00  0.00     0.038 A 
HETATM   16  C   UNL     1      39.617 -12.902   0.503  1.00  0.00     0.134 A 
HETATM   17  C   UNL     1      39.190 -13.034   1.828  1.00  0.00     0.038 A 
HETATM   18  C   UNL     1      39.718 -14.038   2.652  1.00  0.00     0.013 A 
BRANCH  16  19
HETATM   19  N   UNL     1      39.160 -11.798  -0.399  1.00  0.00    -0.042 N 
HETATM   20  H   UNL     1      39.183 -10.966   0.209  1.00  0.00     0.286 HD
BRANCH  19  21
HETATM   21  C   UNL     1      37.737 -11.891  -0.908  1.00  0.00     0.237 C 
HETATM   22  C   UNL     1      37.624 -12.876  -2.059  1.00  0.00     0.035 C 
ENDBRANCH  19  21
BRANCH  19  23
HETATM   23  C   UNL     1      40.149 -11.512  -1.516  1.00  0.00     0.237 C 
HETATM   24  C   UNL     1      41.022 -10.301  -1.242  1.00  0.00     0.035 C 
ENDBRANCH  19  23
ENDBRANCH  16  19
ENDBRANCH   1  13
BRANCH   2  25
HETATM   25  C   UNL     1      41.725 -14.171   4.805  1.00  0.00     0.193 C 
BRANCH  25  26
HETATM   26  C   UNL     1      42.752 -13.141   4.498  1.00  0.00     0.070 A 
HETATM   27  O   UNL     1      43.337 -12.520   5.566  1.00  0.00    -0.325 OA
HETATM   28  C   UNL     1      44.165 -11.568   5.065  1.00  0.00     0.142 A 
HETATM   29  C   UNL     1      44.143 -11.584   3.690  1.00  0.00     0.027 A 
HETATM   30  C   UNL     1      43.231 -12.603   3.321  1.00  0.00     0.036 A 
ENDBRANCH  25  26
ENDBRANCH   2  25
TORSDOF 6
ENDMDL
MODEL 5
REMARK VINA RESULT:      -7.6      1.919      7.158
REMARK  6 active torsions:
REMARK  status: ('A' for Active; 'I' for Inactive)
REMARK    1  A    between atoms: C_2  and  N_3 
REMARK    2  A    between atoms: N_3  and  C_5 
REMARK    3  A    between atoms: N_3  and  C_28 
REMARK    4  A    between atoms: C_8  and  C_9 
REMARK    5  A    between atoms: N_10  and  C_11 
REMARK    6  A    between atoms: C_11  and  C_12 
ROOT
HETATM    1  C   UNL     1      42.049 -16.623   2.930  1.00  0.00     0.199 C 
HETATM    2  N   UNL     1      43.016 -16.135   3.897  1.00  0.00    -0.321 N 
HETATM    3  C   UNL     1      43.621 -17.066   4.741  1.00  0.00     0.257 C 
HETATM    4  O   UNL     1      44.126 -16.777   5.821  1.00  0.00    -0.267 OA
HETATM    5  C   UNL     1      43.673 -18.462   4.255  1.00  0.00     0.053 A 
HETATM    6  C   UNL     1      43.192 -18.730   2.968  1.00  0.00     0.026 A 
HETATM    7  N   UNL     1      42.659 -17.705   2.164  1.00  0.00    -0.266 NA
HETATM    8  C   UNL     1      44.247 -19.468   5.039  1.00  0.00     0.019 A 
HETATM    9  C   UNL     1      44.385 -20.754   4.518  1.00  0.00     0.001 A 
HETATM   10  C   UNL     1      43.970 -21.020   3.215  1.00  0.00     0.002 A 
HETATM   11  C   UNL     1      43.389 -20.010   2.440  1.00  0.00     0.024 A 
HETATM   12  H   UNL     1      42.029 -18.084   1.463  1.00  0.00     0.130 HD
ENDROOT
BRANCH   1  13
HETATM   13  C   UNL     1      41.537 -15.587   1.934  1.00  0.00    -0.021 A 
HETATM   14  C   UNL     1      42.322 -14.492   1.546  1.00  0.00     0.013 A 
HETATM   15  C   UNL     1      41.802 -13.501   0.706  1.00  0.00     0.038 A 
HETATM   16  C   UNL     1      40.506 -13.608   0.181  1.00  0.00     0.134 A 
HETATM   17  C   UNL     1      39.737 -14.722   0.529  1.00  0.00     0.038 A 
HETATM   18  C   UNL     1      40.244 -15.695   1.403  1.00  0.00     0.013 A 
BRANCH  16  19
HETATM   19  N   UNL     1      39.991 -12.491  -0.673  1.00  0.00    -0.042 N 
HETATM   20  H   UNL     1      39.770 -11.750   0.008  1.00  0.00     0.286 HD
BRANCH  19  21
HETATM   21  C   UNL     1      38.700 -12.756  -1.419  1.00  0.00     0.237 C 
HETATM   22  C   UNL     1      37.641 -11.722  -1.080  1.00  0.00     0.035 C 
ENDBRANCH  19  21
BRANCH  19  23
HETATM   23  C   UNL     1      41.063 -11.906  -1.576  1.00  0.00     0.237 C 
HETATM   24  C   UNL     1      40.988 -12.427  -3.000  1.00  0.00     0.035 C 
ENDBRANCH  19  23
ENDBRANCH  16  19
ENDBRANCH   1  13
BRANCH   2  25
HETATM   25  C   UNL     1      43.009 -14.746   4.341  1.00  0.00     0.193 C 
BRANCH  25  26
HETATM   26  C   UNL     1      41.753 -14.382   5.049  1.00  0.00     0.070 A 
HETATM   27  O   UNL     1      41.082 -13.286   4.583  1.00  0.00    -0.325 OA
HETATM   28  C   UNL     1      40.030 -13.084   5.416  1.00  0.00     0.142 A 
HETATM   29  C   UNL     1      39.997 -14.049   6.396  1.00  0.00     0.027 A 
HETATM   30  C   UNL     1      41.110 -14.891   6.158  1.00  0.00     0.036 A 
ENDBRANCH  25  26
ENDBRANCH   2  25
TORSDOF 6
ENDMDL
MODEL 6
REMARK VINA RESULT:      -7.4      3.456      6.513
REMARK  6 active torsions:
REMARK  status: ('A' for Active; 'I' for Inactive)
REMARK    1  A    between atoms: C_2  and  N_3 
REMARK    2  A    between atoms: N_3  and  C_5 
REMARK    3  A    between atoms: N_3  and  C_28 
REMARK    4  A    between atoms: C_8  and  C_9 
REMARK    5  A    between atoms: N_10  and  C_11 
REMARK    6  A    between atoms: C_11  and  C_12 
ROOT
HETATM    1  C   UNL     1      43.055 -14.634   4.013  1.00  0.00     0.199 C 
HETATM    2  N   UNL     1      41.676 -14.892   3.637  1.00  0.00    -0.321 N 
HETATM    3  C   UNL     1      41.416 -16.005   2.839  1.00  0.00     0.257 C 
HETATM    4  O   UNL     1      40.414 -16.121   2.139  1.00  0.00    -0.267 OA
HETATM    5  C   UNL     1      42.404 -17.104   2.895  1.00  0.00     0.053 A 
HETATM    6  C   UNL     1      43.471 -16.985   3.792  1.00  0.00     0.026 A 
HETATM    7  N   UNL     1      43.611 -15.845   4.608  1.00  0.00    -0.266 NA
HETATM    8  C   UNL     1      42.235 -18.254   2.118  1.00  0.00     0.019 A 
HETATM    9  C   UNL     1      43.117 -19.323   2.267  1.00  0.00     0.001 A 
HETATM   10  C   UNL     1      44.146 -19.245   3.203  1.00  0.00     0.002 A 
HETATM   11  C   UNL     1      44.314 -18.088   3.971  1.00  0.00     0.024 A 
HETATM   12  H   UNL     1      44.576 -15.725   4.899  1.00  0.00     0.130 HD
ENDROOT
BRANCH   1  13
HETATM   13  C   UNL     1      43.262 -13.498   5.011  1.00  0.00    -0.021 A 
HETATM   14  C   UNL     1      43.422 -12.171   4.588  1.00  0.00     0.013 A 
HETATM   15  C   UNL     1      43.706 -11.156   5.509  1.00  0.00     0.038 A 
HETATM   16  C   UNL     1      43.777 -11.429   6.882  1.00  0.00     0.134 A 
HETATM   17  C   UNL     1      43.573 -12.743   7.311  1.00  0.00     0.038 A 
HETATM   18  C   UNL     1      43.328 -13.767   6.386  1.00  0.00     0.013 A 
BRANCH  16  19
HETATM   19  N   UNL     1      44.133 -10.309   7.811  1.00  0.00    -0.042 N 
HETATM   20  H   UNL     1      44.180  -9.488   7.191  1.00  0.00     0.286 HD
BRANCH  19  21
HETATM   21  C   UNL     1      45.490 -10.395   8.478  1.00  0.00     0.237 C 
HETATM   22  C   UNL     1      46.434  -9.327   7.954  1.00  0.00     0.035 C 
ENDBRANCH  19  21
BRANCH  19  23
HETATM   23  C   UNL     1      43.026 -10.005   8.806  1.00  0.00     0.237 C 
HETATM   24  C   UNL     1      43.512  -9.971  10.243  1.00  0.00     0.035 C 
ENDBRANCH  19  23
ENDBRANCH  16  19
ENDBRANCH   1  13
BRANCH   2  25
HETATM   25  C   UNL     1      40.680 -13.826   3.632  1.00  0.00     0.193 C 
BRANCH  25  26
HETATM   26  C   UNL     1      40.595 -13.134   2.319  1.00  0.00     0.070 A 
HETATM   27  O   UNL     1      39.349 -13.008   1.772  1.00  0.00    -0.325 OA
HETATM   28  C   UNL     1      39.509 -12.436   0.552  1.00  0.00     0.142 A 
HETATM   29  C   UNL     1      40.838 -12.168   0.315  1.00  0.00     0.027 A 
HETATM   30  C   UNL     1      41.541 -12.617   1.459  1.00  0.00     0.036 A 
ENDBRANCH  25  26
ENDBRANCH   2  25
TORSDOF 6
ENDMDL
MODEL 7
REMARK VINA RESULT:      -7.3      3.882      7.966
REMARK  6 active torsions:
REMARK  status: ('A' for Active; 'I' for Inactive)
REMARK    1  A    between atoms: C_2  and  N_3 
REMARK    2  A    between atoms: N_3  and  C_5 
REMARK    3  A    between atoms: N_3  and  C_28 
REMARK    4  A    between atoms: C_8  and  C_9 
REMARK    5  A    between atoms: N_10  and  C_11 
REMARK    6  A    between atoms: C_11  and  C_12 
ROOT
HETATM    1  C   UNL     1      42.723 -10.815   6.334  1.00  0.00     0.199 C 
HETATM    2  N   UNL     1      43.727 -11.520   7.110  1.00  0.00    -0.321 N 
HETATM    3  C   UNL     1      44.284 -10.864   8.206  1.00  0.00     0.257 C 
HETATM    4  O   UNL     1      45.374 -11.152   8.691  1.00  0.00    -0.267 OA
HETATM    5  C   UNL     1      43.468  -9.791   8.817  1.00  0.00     0.053 A 
HETATM    6  C   UNL     1      42.183  -9.571   8.311  1.00  0.00     0.026 A 
HETATM    7  N   UNL     1      41.684 -10.336   7.240  1.00  0.00    -0.266 NA
HETATM    8  C   UNL     1      43.951  -9.066   9.912  1.00  0.00     0.019 A 
HETATM    9  C   UNL     1      43.124  -8.136  10.541  1.00  0.00     0.001 A 
HETATM   10  C   UNL     1      41.819  -7.953  10.088  1.00  0.00     0.002 A 
HETATM   11  C   UNL     1      41.347  -8.676   8.988  1.00  0.00     0.024 A 
HETATM   12  H   UNL     1      40.946  -9.838   6.751  1.00  0.00     0.130 HD
ENDROOT
BRANCH   1  13
HETATM   13  C   UNL     1      42.039 -11.636   5.245  1.00  0.00    -0.021 A 
HETATM   14  C   UNL     1      40.880 -12.381   5.507  1.00  0.00     0.013 A 
HETATM   15  C   UNL     1      40.321 -13.204   4.522  1.00  0.00     0.038 A 
HETATM   16  C   UNL     1      40.868 -13.258   3.232  1.00  0.00     0.134 A 
HETATM   17  C   UNL     1      41.997 -12.482   2.955  1.00  0.00     0.038 A 
HETATM   18  C   UNL     1      42.581 -11.688   3.952  1.00  0.00     0.013 A 
BRANCH  16  19
HETATM   19  N   UNL     1      40.254 -14.195   2.238  1.00  0.00    -0.042 N 
HETATM   20  H   UNL     1      39.310 -13.807   2.094  1.00  0.00     0.286 HD
BRANCH  19  21
HETATM   21  C   UNL     1      40.041 -15.620   2.702  1.00  0.00     0.237 C 
HETATM   22  C   UNL     1      41.340 -16.408   2.687  1.00  0.00     0.035 C 
ENDBRANCH  19  21
BRANCH  19  23
HETATM   23  C   UNL     1      40.933 -14.130   0.881  1.00  0.00     0.237 C 
HETATM   24  C   UNL     1      39.958 -14.248  -0.276  1.00  0.00     0.035 C 
ENDBRANCH  19  23
ENDBRANCH  16  19
ENDBRANCH   1  13
BRANCH   2  25
HETATM   25  C   UNL     1      44.498 -12.617   6.534  1.00  0.00     0.193 C 
BRANCH  25  26
HETATM   26  C   UNL     1      43.810 -13.928   6.672  1.00  0.00     0.070 A 
HETATM   27  O   UNL     1      43.370 -14.260   7.923  1.00  0.00    -0.325 OA
HETATM   28  C   UNL     1      42.860 -15.516   7.841  1.00  0.00     0.142 A 
HETATM   29  C   UNL     1      42.941 -15.987   6.551  1.00  0.00     0.027 A 
HETATM   30  C   UNL     1      43.554 -14.959   5.793  1.00  0.00     0.036 A 
ENDBRANCH  25  26
ENDBRANCH   2  25
TORSDOF 6
ENDMDL
MODEL 8
REMARK VINA RESULT:      -7.3      3.349      6.634
REMARK  6 active torsions:
REMARK  status: ('A' for Active; 'I' for Inactive)
REMARK    1  A    between atoms: C_2  and  N_3 
REMARK    2  A    between atoms: N_3  and  C_5 
REMARK    3  A    between atoms: N_3  and  C_28 
REMARK    4  A    between atoms: C_8  and  C_9 
REMARK    5  A    between atoms: N_10  and  C_11 
REMARK    6  A    between atoms: C_11  and  C_12 
ROOT
HETATM    1  C   UNL     1      43.138 -13.111   7.020  1.00  0.00     0.199 C 
HETATM    2  N   UNL     1      42.198 -12.164   6.448  1.00  0.00    -0.321 N 
HETATM    3  C   UNL     1      42.269 -10.838   6.872  1.00  0.00     0.257 C 
HETATM    4  O   UNL     1      41.334 -10.047   6.792  1.00  0.00    -0.267 OA
HETATM    5  C   UNL     1      43.572 -10.385   7.406  1.00  0.00     0.053 A 
HETATM    6  C   UNL     1      44.646 -11.282   7.373  1.00  0.00     0.026 A 
HETATM    7  N   UNL     1      44.489 -12.583   6.860  1.00  0.00    -0.266 NA
HETATM    8  C   UNL     1      43.734  -9.075   7.870  1.00  0.00     0.019 A 
HETATM    9  C   UNL     1      44.996  -8.636   8.267  1.00  0.00     0.001 A 
HETATM   10  C   UNL     1      46.088  -9.498   8.177  1.00  0.00     0.002 A 
HETATM   11  C   UNL     1      45.916 -10.808   7.720  1.00  0.00     0.024 A 
HETATM   12  H   UNL     1      45.195 -13.208   7.237  1.00  0.00     0.130 HD
ENDROOT
BRANCH   1  13
HETATM   13  C   UNL     1      43.117 -14.509   6.406  1.00  0.00    -0.021 A 
HETATM   14  C   UNL     1      42.696 -15.626   7.141  1.00  0.00     0.013 A 
HETATM   15  C   UNL     1      42.774 -16.913   6.595  1.00  0.00     0.038 A 
HETATM   16  C   UNL     1      43.217 -17.111   5.279  1.00  0.00     0.134 A 
HETATM   17  C   UNL     1      43.595 -15.994   4.529  1.00  0.00     0.038 A 
HETATM   18  C   UNL     1      43.554 -14.710   5.089  1.00  0.00     0.013 A 
BRANCH  16  19
HETATM   19  N   UNL     1      43.324 -18.515   4.770  1.00  0.00    -0.042 N 
HETATM   20  H   UNL     1      42.348 -18.770   4.559  1.00  0.00     0.286 HD
BRANCH  19  21
HETATM   21  C   UNL     1      43.811 -19.553   5.759  1.00  0.00     0.237 C 
HETATM   22  C   UNL     1      43.958 -20.916   5.105  1.00  0.00     0.035 C 
ENDBRANCH  19  21
BRANCH  19  23
HETATM   23  C   UNL     1      44.061 -18.598   3.444  1.00  0.00     0.237 C 
HETATM   24  C   UNL     1      43.131 -18.779   2.258  1.00  0.00     0.035 C 
ENDBRANCH  19  23
ENDBRANCH  16  19
ENDBRANCH   1  13
BRANCH   2  25
HETATM   25  C   UNL     1      40.935 -12.607   5.867  1.00  0.00     0.193 C 
BRANCH  25  26
HETATM   26  C   UNL     1      40.876 -12.384   4.398  1.00  0.00     0.070 A 
HETATM   27  O   UNL     1      39.686 -12.656   3.784  1.00  0.00    -0.325 OA
HETATM   28  C   UNL     1      39.878 -12.472   2.453  1.00  0.00     0.142 A 
HETATM   29  C   UNL     1      41.166 -12.060   2.202  1.00  0.00     0.027 A 
HETATM   30  C   UNL     1      41.813 -12.000   3.461  1.00  0.00     0.036 A 
ENDBRANCH  25  26
ENDBRANCH   2  25
TORSDOF 6
ENDMDL
MODEL 9
REMARK VINA RESULT:      -7.0      2.597      7.217
REMARK  6 active torsions:
REMARK  status: ('A' for Active; 'I' for Inactive)
REMARK    1  A    between atoms: C_2  and  N_3 
REMARK    2  A    between atoms: N_3  and  C_5 
REMARK    3  A    between atoms: N_3  and  C_28 
REMARK    4  A    between atoms: C_8  and  C_9 
REMARK    5  A    between atoms: N_10  and  C_11 
REMARK    6  A    between atoms: C_11  and  C_12 
ROOT
HETATM    1  C   UNL     1      41.389 -15.340   3.669  1.00  0.00     0.199 C 
HETATM    2  N   UNL     1      42.124 -15.084   4.895  1.00  0.00    -0.321 N 
HETATM    3  C   UNL     1      42.784 -16.156   5.494  1.00  0.00     0.257 C 
HETATM    4  O   UNL     1      43.092 -16.187   6.682  1.00  0.00    -0.267 OA
HETATM    5  C   UNL     1      43.154 -17.282   4.609  1.00  0.00     0.053 A 
HETATM    6  C   UNL     1      42.891 -17.158   3.240  1.00  0.00     0.026 A 
HETATM    7  N   UNL     1      42.278 -16.002   2.720  1.00  0.00    -0.266 NA
HETATM    8  C   UNL     1      43.805 -18.408   5.124  1.00  0.00     0.019 A 
HETATM    9  C   UNL     1      44.243 -19.408   4.257  1.00  0.00     0.001 A 
HETATM   10  C   UNL     1      44.046 -19.267   2.884  1.00  0.00     0.002 A 
HETATM   11  C   UNL     1      43.386 -18.142   2.378  1.00  0.00     0.024 A 
HETATM   12  H   UNL     1      41.820 -16.201   1.836  1.00  0.00     0.130 HD
ENDROOT
BRANCH   1  13
HETATM   13  C   UNL     1      40.819 -14.105   2.977  1.00  0.00    -0.021 A 
HETATM   14  C   UNL     1      39.557 -13.593   3.312  1.00  0.00     0.013 A 
HETATM   15  C   UNL     1      39.009 -12.519   2.601  1.00  0.00     0.038 A 
HETATM   16  C   UNL     1      39.731 -11.889   1.578  1.00  0.00     0.134 A 
HETATM   17  C   UNL     1      41.007 -12.368   1.271  1.00  0.00     0.038 A 
HETATM   18  C   UNL     1      41.541 -13.469   1.956  1.00  0.00     0.013 A 
BRANCH  16  19
HETATM   19  N   UNL     1      39.070 -10.777   0.823  1.00  0.00    -0.042 N 
HETATM   20  H   UNL     1      39.068 -11.115  -0.151  1.00  0.00     0.286 HD
BRANCH  19  21
HETATM   21  C   UNL     1      39.806  -9.454   0.794  1.00  0.00     0.237 C 
HETATM   22  C   UNL     1      39.862  -8.821   2.174  1.00  0.00     0.035 C 
ENDBRANCH  19  21
BRANCH  19  23
HETATM   23  C   UNL     1      37.607 -10.609   1.197  1.00  0.00     0.237 C 
HETATM   24  C   UNL     1      36.810  -9.852   0.151  1.00  0.00     0.035 C 
ENDBRANCH  19  23
ENDBRANCH  16  19
ENDBRANCH   1  13
BRANCH   2  25
HETATM   25  C   UNL     1      41.804 -13.944   5.746  1.00  0.00     0.193 C 
BRANCH  25  26
HETATM   26  C   UNL     1      42.961 -13.027   5.925  1.00  0.00     0.070 A 
HETATM   27  O   UNL     1      43.225 -12.166   4.896  1.00  0.00    -0.325 OA
HETATM   28  C   UNL     1      44.358 -11.494   5.224  1.00  0.00     0.142 A 
HETATM   29  C   UNL     1      44.814 -11.890   6.460  1.00  0.00     0.027 A 
HETATM   30  C   UNL     1      43.909 -12.881   6.916  1.00  0.00     0.036 A 
ENDBRANCH  25  26
ENDBRANCH   2  25
TORSDOF 6
ENDMDL
MODEL 10
REMARK VINA RESULT:      -6.9     15.489     16.982
REMARK  6 active torsions:
REMARK  status: ('A' for Active; 'I' for Inactive)
REMARK    1  A    between atoms: C_2  and  N_3 
REMARK    2  A    between atoms: N_3  and  C_5 
REMARK    3  A    between atoms: N_3  and  C_28 
REMARK    4  A    between atoms: C_8  and  C_9 
REMARK    5  A    between atoms: N_10  and  C_11 
REMARK    6  A    between atoms: C_11  and  C_12 
ROOT
HETATM    1  C   UNL     1      46.410 -29.653  -2.891  1.00  0.00     0.199 C 
HETATM    2  N   UNL     1      44.973 -29.534  -2.724  1.00  0.00    -0.321 N 
HETATM    3  C   UNL     1      44.170 -29.698  -3.851  1.00  0.00     0.257 C 
HETATM    4  O   UNL     1      43.031 -29.251  -3.947  1.00  0.00    -0.267 OA
HETATM    5  C   UNL     1      44.741 -30.496  -4.958  1.00  0.00     0.053 A 
HETATM    6  C   UNL     1      45.995 -31.088  -4.766  1.00  0.00     0.026 A 
HETATM    7  N   UNL     1      46.700 -30.917  -3.559  1.00  0.00    -0.266 NA
HETATM    8  C   UNL     1      44.015 -30.701  -6.136  1.00  0.00     0.019 A 
HETATM    9  C   UNL     1      44.525 -31.546  -7.122  1.00  0.00     0.001 A 
HETATM   10  C   UNL     1      45.741 -32.193  -6.916  1.00  0.00     0.002 A 
HETATM   11  C   UNL     1      46.465 -31.976  -5.739  1.00  0.00     0.024 A 
HETATM   12  H   UNL     1      47.696 -31.061  -3.699  1.00  0.00     0.130 HD
ENDROOT
BRANCH   1  13
HETATM   13  C   UNL     1      47.226 -29.619  -1.602  1.00  0.00    -0.021 A 
HETATM   14  C   UNL     1      47.584 -30.796  -0.929  1.00  0.00     0.013 A 
HETATM   15  C   UNL     1      48.249 -30.744   0.301  1.00  0.00     0.038 A 
HETATM   16  C   UNL     1      48.628 -29.516   0.863  1.00  0.00     0.134 A 
HETATM   17  C   UNL     1      48.312 -28.342   0.173  1.00  0.00     0.038 A 
HETATM   18  C   UNL     1      47.611 -28.393  -1.040  1.00  0.00     0.013 A 
BRANCH  16  19
HETATM   19  N   UNL     1      49.293 -29.524   2.205  1.00  0.00    -0.042 N 
HETATM   20  H   UNL     1      50.057 -28.842   2.099  1.00  0.00     0.286 HD
BRANCH  19  21
HETATM   21  C   UNL     1      49.959 -30.820   2.617  1.00  0.00     0.237 C 
HETATM   22  C   UNL     1      51.036 -30.583   3.661  1.00  0.00     0.035 C 
ENDBRANCH  19  21
BRANCH  19  23
HETATM   23  C   UNL     1      48.399 -28.968   3.301  1.00  0.00     0.237 C 
HETATM   24  C   UNL     1      47.411 -29.988   3.836  1.00  0.00     0.035 C 
ENDBRANCH  19  23
ENDBRANCH  16  19
ENDBRANCH   1  13
BRANCH   2  25
HETATM   25  C   UNL     1      44.398 -28.797  -1.604  1.00  0.00     0.193 C 
BRANCH  25  26
HETATM   26  C   UNL     1      43.818 -29.696  -0.571  1.00  0.00     0.070 A 
HETATM   27  O   UNL     1      43.019 -29.111   0.372  1.00  0.00    -0.325 OA
HETATM   28  C   UNL     1      42.674 -30.082   1.254  1.00  0.00     0.142 A 
HETATM   29  C   UNL     1      43.216 -31.290   0.880  1.00  0.00     0.027 A 
HETATM   30  C   UNL     1      43.955 -31.042  -0.302  1.00  0.00     0.036 A 
ENDBRANCH  25  26
ENDBRANCH   2  25
TORSDOF 6
ENDMDL
