MODEL 1
REMARK VINA RESULT:      -7.8      0.000      0.000
REMARK  6 active torsions:
REMARK  status: ('A' for Active; 'I' for Inactive)
REMARK    1  A    between atoms: C_2  and  C_3 
REMARK    2  A    between atoms: C_2  and  C_9 
REMARK    3  A    between atoms: C_9  and  N_10 
REMARK       I    between atoms: N_10  and  C_11 
REMARK       I    between atoms: C_11  and  N_12 
REMARK    4  A    between atoms: N_12  and  C_13 
REMARK    5  A    between atoms: C_14  and  O_15 
REMARK    6  A    between atoms: O_15  and  C_16 
ROOT
HETATM    1  N   UNL     1      41.796 -14.625   0.750  1.00  0.00    -0.342 N 
HETATM    2  C   UNL     1      42.637 -15.206   1.651  1.00  0.00     0.320 C 
HETATM    3  N   UNL     1      42.041 -16.034   2.562  1.00  0.00    -0.306 N 
HETATM    4  O   UNL     1      43.844 -15.007   1.545  1.00  0.00    -0.247 OA
HETATM    5  H   UNL     1      42.299 -14.039   0.092  1.00  0.00     0.164 HD
HETATM    6  H   UNL     1      41.263 -16.543   2.179  1.00  0.00     0.171 HD
ENDROOT
BRANCH   1   7
HETATM    7  C   UNL     1      40.358 -14.414   0.838  1.00  0.00     0.138 C 
BRANCH   7   8
HETATM    8  C   UNL     1      39.816 -13.130   0.135  1.00  0.00    -0.004 C 
HETATM    9  C   UNL     1      41.056 -12.255  -0.191  1.00  0.00     0.021 C 
HETATM   10  C   UNL     1      38.963 -12.289   1.113  1.00  0.00     0.021 C 
BRANCH   8  11
HETATM   11  C   UNL     1      39.002 -13.483  -1.126  1.00  0.00    -0.046 A 
HETATM   12  C   UNL     1      37.931 -12.701  -1.580  1.00  0.00     0.027 A 
HETATM   13  C   UNL     1      37.231 -13.089  -2.717  1.00  0.00     0.116 A 
HETATM   14  N   UNL     1      37.519 -14.185  -3.444  1.00  0.00    -0.273 NA
HETATM   15  C   UNL     1      38.558 -14.926  -3.016  1.00  0.00     0.116 A 
HETATM   16  C   UNL     1      39.313 -14.621  -1.890  1.00  0.00     0.027 A 
ENDBRANCH   8  11
ENDBRANCH   7   8
ENDBRANCH   1   7
BRANCH   3  17
HETATM   17  C   UNL     1      42.757 -16.698   3.586  1.00  0.00     0.070 A 
HETATM   18  C   UNL     1      43.306 -17.981   3.429  1.00  0.00     0.101 A 
HETATM   19  C   UNL     1      43.998 -18.575   4.491  1.00  0.00     0.039 A 
HETATM   20  C   UNL     1      44.120 -17.908   5.711  1.00  0.00     0.003 A 
HETATM   21  C   UNL     1      43.591 -16.629   5.863  1.00  0.00     0.002 A 
HETATM   22  C   UNL     1      42.928 -16.017   4.797  1.00  0.00     0.032 A 
BRANCH  18  23
HETATM   23  O   UNL     1      43.324 -18.556   2.184  1.00  0.00    -0.288 OA
BRANCH  23  24
HETATM   24  C   UNL     1      43.239 -19.974   2.249  1.00  0.00     0.505 C 
HETATM   25  F   UNL     1      42.022 -20.328   1.757  1.00  0.00    -0.184 F 
HETATM   26  F   UNL     1      44.153 -20.503   1.393  1.00  0.00    -0.184 F 
ENDBRANCH  23  24
ENDBRANCH  18  23
ENDBRANCH   3  17
TORSDOF 6
ENDMDL
MODEL 2
REMARK VINA RESULT:      -7.7      2.063      2.850
REMARK  6 active torsions:
REMARK  status: ('A' for Active; 'I' for Inactive)
REMARK    1  A    between atoms: C_2  and  C_3 
REMARK    2  A    between atoms: C_2  and  C_9 
REMARK    3  A    between atoms: C_9  and  N_10 
REMARK       I    between atoms: N_10  and  C_11 
REMARK       I    between atoms: C_11  and  N_12 
REMARK    4  A    between atoms: N_12  and  C_13 
REMARK    5  A    between atoms: C_14  and  O_15 
REMARK    6  A    between atoms: O_15  and  C_16 
ROOT
HETATM    1  N   UNL     1      41.868 -14.468   0.876  1.00  0.00    -0.342 N 
HETATM    2  C   UNL     1      42.689 -15.308   1.568  1.00  0.00     0.320 C 
HETATM    3  N   UNL     1      42.075 -16.381   2.152  1.00  0.00    -0.306 N 
HETATM    4  O   UNL     1      43.897 -15.087   1.563  1.00  0.00    -0.247 OA
HETATM    5  H   UNL     1      42.384 -13.704   0.452  1.00  0.00     0.164 HD
HETATM    6  H   UNL     1      41.310 -16.740   1.606  1.00  0.00     0.171 HD
ENDROOT
BRANCH   1   7
HETATM    7  C   UNL     1      40.427 -14.293   0.987  1.00  0.00     0.138 C 
BRANCH   7   8
HETATM    8  C   UNL     1      39.834 -13.055   0.244  1.00  0.00    -0.004 C 
HETATM    9  C   UNL     1      41.033 -12.124  -0.078  1.00  0.00     0.021 C 
HETATM   10  C   UNL     1      38.918 -12.239   1.185  1.00  0.00     0.021 C 
BRANCH   8  11
HETATM   11  C   UNL     1      39.065 -13.478  -1.025  1.00  0.00    -0.046 A 
HETATM   12  C   UNL     1      39.379 -14.636  -1.750  1.00  0.00     0.027 A 
HETATM   13  C   UNL     1      38.653 -14.948  -2.894  1.00  0.00     0.116 A 
HETATM   14  N   UNL     1      37.633 -14.205  -3.366  1.00  0.00    -0.273 NA
HETATM   15  C   UNL     1      37.323 -13.103  -2.660  1.00  0.00     0.116 A 
HETATM   16  C   UNL     1      37.994 -12.709  -1.508  1.00  0.00     0.027 A 
ENDBRANCH   8  11
ENDBRANCH   7   8
ENDBRANCH   1   7
BRANCH   3  17
HETATM   17  C   UNL     1      42.767 -17.337   2.931  1.00  0.00     0.070 A 
HETATM   18  C   UNL     1      43.073 -17.144   4.288  1.00  0.00     0.101 A 
HETATM   19  C   UNL     1      43.765 -18.135   4.992  1.00  0.00     0.039 A 
HETATM   20  C   UNL     1      44.176 -19.301   4.344  1.00  0.00     0.003 A 
HETATM   21  C   UNL     1      43.859 -19.501   3.002  1.00  0.00     0.002 A 
HETATM   22  C   UNL     1      43.140 -18.531   2.303  1.00  0.00     0.032 A 
BRANCH  18  23
HETATM   23  O   UNL     1      42.525 -16.077   4.955  1.00  0.00    -0.288 OA
BRANCH  23  24
HETATM   24  C   UNL     1      41.521 -16.481   5.876  1.00  0.00     0.505 C 
HETATM   25  F   UNL     1      41.382 -15.480   6.786  1.00  0.00    -0.184 F 
HETATM   26  F   UNL     1      40.333 -16.552   5.219  1.00  0.00    -0.184 F 
ENDBRANCH  23  24
ENDBRANCH  18  23
ENDBRANCH   3  17
TORSDOF 6
ENDMDL
MODEL 3
REMARK VINA RESULT:      -7.7      3.218      7.742
REMARK  6 active torsions:
REMARK  status: ('A' for Active; 'I' for Inactive)
REMARK    1  A    between atoms: C_2  and  C_3 
REMARK    2  A    between atoms: C_2  and  C_9 
REMARK    3  A    between atoms: C_9  and  N_10 
REMARK       I    between atoms: N_10  and  C_11 
REMARK       I    between atoms: C_11  and  N_12 
REMARK    4  A    between atoms: N_12  and  C_13 
REMARK    5  A    between atoms: C_14  and  O_15 
REMARK    6  A    between atoms: O_15  and  C_16 
ROOT
HETATM    1  N   UNL     1      40.151 -14.992   2.206  1.00  0.00    -0.342 N 
HETATM    2  C   UNL     1      39.972 -13.908   1.399  1.00  0.00     0.320 C 
HETATM    3  N   UNL     1      40.388 -14.064   0.106  1.00  0.00    -0.306 N 
HETATM    4  O   UNL     1      39.406 -12.920   1.857  1.00  0.00    -0.247 OA
HETATM    5  H   UNL     1      39.808 -14.821   3.146  1.00  0.00     0.164 HD
HETATM    6  H   UNL     1      40.244 -14.997  -0.242  1.00  0.00     0.171 HD
ENDROOT
BRANCH   1   7
HETATM    7  C   UNL     1      41.058 -16.119   2.044  1.00  0.00     0.138 C 
BRANCH   7   8
HETATM    8  C   UNL     1      42.465 -15.958   2.700  1.00  0.00    -0.004 C 
HETATM    9  C   UNL     1      42.274 -15.011   3.914  1.00  0.00     0.021 C 
HETATM   10  C   UNL     1      43.431 -15.218   1.747  1.00  0.00     0.021 C 
BRANCH   8  11
HETATM   11  C   UNL     1      43.052 -17.324   3.110  1.00  0.00    -0.046 A 
HETATM   12  C   UNL     1      43.640 -17.551   4.362  1.00  0.00     0.027 A 
HETATM   13  C   UNL     1      44.163 -18.805   4.659  1.00  0.00     0.116 A 
HETATM   14  N   UNL     1      44.137 -19.852   3.813  1.00  0.00    -0.273 NA
HETATM   15  C   UNL     1      43.557 -19.637   2.617  1.00  0.00     0.116 A 
HETATM   16  C   UNL     1      43.012 -18.420   2.231  1.00  0.00     0.027 A 
ENDBRANCH   8  11
ENDBRANCH   7   8
ENDBRANCH   1   7
BRANCH   3  17
HETATM   17  C   UNL     1      40.305 -13.035  -0.861  1.00  0.00     0.070 A 
HETATM   18  C   UNL     1      39.416 -13.073  -1.947  1.00  0.00     0.101 A 
HETATM   19  C   UNL     1      39.395 -12.018  -2.866  1.00  0.00     0.039 A 
HETATM   20  C   UNL     1      40.272 -10.942  -2.720  1.00  0.00     0.003 A 
HETATM   21  C   UNL     1      41.142 -10.893  -1.633  1.00  0.00     0.002 A 
HETATM   22  C   UNL     1      41.145 -11.927  -0.696  1.00  0.00     0.032 A 
BRANCH  18  23
HETATM   23  O   UNL     1      38.451 -14.048  -1.991  1.00  0.00    -0.288 OA
BRANCH  23  24
HETATM   24  C   UNL     1      38.786 -15.091  -2.897  1.00  0.00     0.505 C 
HETATM   25  F   UNL     1      38.554 -16.269  -2.259  1.00  0.00    -0.184 F 
HETATM   26  F   UNL     1      37.914 -15.057  -3.940  1.00  0.00    -0.184 F 
ENDBRANCH  23  24
ENDBRANCH  18  23
ENDBRANCH   3  17
TORSDOF 6
ENDMDL
MODEL 4
REMARK VINA RESULT:      -7.6      2.746      3.378
REMARK  6 active torsions:
REMARK  status: ('A' for Active; 'I' for Inactive)
REMARK    1  A    between atoms: C_2  and  C_3 
REMARK    2  A    between atoms: C_2  and  C_9 
REMARK    3  A    between atoms: C_9  and  N_10 
REMARK       I    between atoms: N_10  and  C_11 
REMARK       I    between atoms: C_11  and  N_12 
REMARK    4  A    between atoms: N_12  and  C_13 
REMARK    5  A    between atoms: C_14  and  O_15 
REMARK    6  A    between atoms: O_15  and  C_16 
ROOT
HETATM    1  N   UNL     1      40.713 -14.069   2.524  1.00  0.00    -0.342 N 
HETATM    2  C   UNL     1      41.125 -15.276   3.005  1.00  0.00     0.320 C 
HETATM    3  N   UNL     1      42.479 -15.459   3.054  1.00  0.00    -0.306 N 
HETATM    4  O   UNL     1      40.278 -16.067   3.413  1.00  0.00    -0.247 OA
HETATM    5  H   UNL     1      39.702 -13.988   2.529  1.00  0.00     0.164 HD
HETATM    6  H   UNL     1      42.980 -14.616   3.277  1.00  0.00     0.171 HD
ENDROOT
BRANCH   1   7
HETATM    7  C   UNL     1      41.435 -13.118   1.691  1.00  0.00     0.138 C 
BRANCH   7   8
HETATM    8  C   UNL     1      40.551 -12.179   0.811  1.00  0.00    -0.004 C 
HETATM    9  C   UNL     1      41.128 -10.748   0.984  1.00  0.00     0.021 C 
HETATM   10  C   UNL     1      39.108 -12.111   1.362  1.00  0.00     0.021 C 
BRANCH   8  11
HETATM   11  C   UNL     1      40.545 -12.633  -0.663  1.00  0.00    -0.046 A 
HETATM   12  C   UNL     1      41.137 -11.884  -1.688  1.00  0.00     0.027 A 
HETATM   13  C   UNL     1      41.080 -12.348  -2.998  1.00  0.00     0.116 A 
HETATM   14  N   UNL     1      40.492 -13.502  -3.365  1.00  0.00    -0.273 NA
HETATM   15  C   UNL     1      39.938 -14.228  -2.377  1.00  0.00     0.116 A 
HETATM   16  C   UNL     1      39.941 -13.844  -1.041  1.00  0.00     0.027 A 
ENDBRANCH   8  11
ENDBRANCH   7   8
ENDBRANCH   1   7
BRANCH   3  17
HETATM   17  C   UNL     1      43.080 -16.660   3.498  1.00  0.00     0.070 A 
HETATM   18  C   UNL     1      43.495 -16.864   4.824  1.00  0.00     0.101 A 
HETATM   19  C   UNL     1      44.086 -18.079   5.188  1.00  0.00     0.039 A 
HETATM   20  C   UNL     1      44.289 -19.076   4.232  1.00  0.00     0.003 A 
HETATM   21  C   UNL     1      43.863 -18.881   2.920  1.00  0.00     0.002 A 
HETATM   22  C   UNL     1      43.242 -17.685   2.559  1.00  0.00     0.032 A 
BRANCH  18  23
HETATM   23  O   UNL     1      43.145 -15.950   5.786  1.00  0.00    -0.288 OA
BRANCH  23  24
HETATM   24  C   UNL     1      42.320 -16.524   6.792  1.00  0.00     0.505 C 
HETATM   25  F   UNL     1      42.516 -15.807   7.931  1.00  0.00    -0.184 F 
HETATM   26  F   UNL     1      41.018 -16.327   6.451  1.00  0.00    -0.184 F 
ENDBRANCH  23  24
ENDBRANCH  18  23
ENDBRANCH   3  17
TORSDOF 6
ENDMDL
MODEL 5
REMARK VINA RESULT:      -7.5      5.313      8.004
REMARK  6 active torsions:
REMARK  status: ('A' for Active; 'I' for Inactive)
REMARK    1  A    between atoms: C_2  and  C_3 
REMARK    2  A    between atoms: C_2  and  C_9 
REMARK    3  A    between atoms: C_9  and  N_10 
REMARK       I    between atoms: N_10  and  C_11 
REMARK       I    between atoms: C_11  and  N_12 
REMARK    4  A    between atoms: N_12  and  C_13 
REMARK    5  A    between atoms: C_14  and  O_15 
REMARK    6  A    between atoms: O_15  and  C_16 
ROOT
HETATM    1  N   UNL     1      43.185 -13.316   3.241  1.00  0.00    -0.342 N 
HETATM    2  C   UNL     1      43.643 -12.278   3.996  1.00  0.00     0.320 C 
HETATM    3  N   UNL     1      43.757 -12.529   5.335  1.00  0.00    -0.306 N 
HETATM    4  O   UNL     1      43.976 -11.240   3.430  1.00  0.00    -0.247 OA
HETATM    5  H   UNL     1      43.140 -13.074   2.258  1.00  0.00     0.164 HD
HETATM    6  H   UNL     1      44.037 -13.475   5.534  1.00  0.00     0.171 HD
ENDROOT
BRANCH   1   7
HETATM    7  C   UNL     1      42.427 -14.488   3.655  1.00  0.00     0.138 C 
BRANCH   7   8
HETATM    8  C   UNL     1      42.567 -15.745   2.739  1.00  0.00    -0.004 C 
HETATM    9  C   UNL     1      43.471 -15.321   1.552  1.00  0.00     0.021 C 
HETATM   10  C   UNL     1      41.205 -16.116   2.108  1.00  0.00     0.021 C 
BRANCH   8  11
HETATM   11  C   UNL     1      43.146 -16.944   3.517  1.00  0.00    -0.046 A 
HETATM   12  C   UNL     1      43.574 -18.120   2.887  1.00  0.00     0.027 A 
HETATM   13  C   UNL     1      44.072 -19.168   3.654  1.00  0.00     0.116 A 
HETATM   14  N   UNL     1      44.188 -19.133   4.995  1.00  0.00    -0.273 NA
HETATM   15  C   UNL     1      43.791 -17.996   5.597  1.00  0.00     0.116 A 
HETATM   16  C   UNL     1      43.278 -16.900   4.915  1.00  0.00     0.027 A 
ENDBRANCH   8  11
ENDBRANCH   7   8
ENDBRANCH   1   7
BRANCH   3  17
HETATM   17  C   UNL     1      44.188 -11.559   6.269  1.00  0.00     0.070 A 
HETATM   18  C   UNL     1      43.316 -10.644   6.882  1.00  0.00     0.101 A 
HETATM   19  C   UNL     1      43.818  -9.709   7.794  1.00  0.00     0.039 A 
HETATM   20  C   UNL     1      45.185  -9.666   8.076  1.00  0.00     0.003 A 
HETATM   21  C   UNL     1      46.048 -10.583   7.482  1.00  0.00     0.002 A 
HETATM   22  C   UNL     1      45.549 -11.540   6.597  1.00  0.00     0.032 A 
BRANCH  18  23
HETATM   23  O   UNL     1      41.962 -10.799   6.726  1.00  0.00    -0.288 OA
BRANCH  23  24
HETATM   24  C   UNL     1      41.357  -9.657   6.134  1.00  0.00     0.505 C 
HETATM   25  F   UNL     1      42.049  -9.377   4.998  1.00  0.00    -0.184 F 
HETATM   26  F   UNL     1      40.102  -9.990   5.730  1.00  0.00    -0.184 F 
ENDBRANCH  23  24
ENDBRANCH  18  23
ENDBRANCH   3  17
TORSDOF 6
ENDMDL
MODEL 6
REMARK VINA RESULT:      -7.4      4.979      7.806
REMARK  6 active torsions:
REMARK  status: ('A' for Active; 'I' for Inactive)
REMARK    1  A    between atoms: C_2  and  C_3 
REMARK    2  A    between atoms: C_2  and  C_9 
REMARK    3  A    between atoms: C_9  and  N_10 
REMARK       I    between atoms: N_10  and  C_11 
REMARK       I    between atoms: C_11  and  N_12 
REMARK    4  A    between atoms: N_12  and  C_13 
REMARK    5  A    between atoms: C_14  and  O_15 
REMARK    6  A    between atoms: O_15  and  C_16 
ROOT
HETATM    1  N   UNL     1      42.618 -14.026   6.924  1.00  0.00    -0.342 N 
HETATM    2  C   UNL     1      42.469 -15.081   6.074  1.00  0.00     0.320 C 
HETATM    3  N   UNL     1      43.626 -15.570   5.534  1.00  0.00    -0.306 N 
HETATM    4  O   UNL     1      41.346 -15.549   5.907  1.00  0.00    -0.247 OA
HETATM    5  H   UNL     1      41.728 -13.722   7.304  1.00  0.00     0.164 HD
HETATM    6  H   UNL     1      44.404 -15.525   6.170  1.00  0.00     0.171 HD
ENDROOT
BRANCH   1   7
HETATM    7  C   UNL     1      43.726 -13.089   7.040  1.00  0.00     0.138 C 
BRANCH   7   8
HETATM    8  C   UNL     1      43.502 -11.689   6.388  1.00  0.00    -0.004 C 
HETATM    9  C   UNL     1      41.970 -11.446   6.394  1.00  0.00     0.021 C 
HETATM   10  C   UNL     1      43.912 -11.708   4.897  1.00  0.00     0.021 C 
BRANCH   8  11
HETATM   11  C   UNL     1      44.272 -10.588   7.146  1.00  0.00    -0.046 A 
HETATM   12  C   UNL     1      43.632  -9.511   7.774  1.00  0.00     0.027 A 
HETATM   13  C   UNL     1      44.391  -8.546   8.426  1.00  0.00     0.116 A 
HETATM   14  N   UNL     1      45.735  -8.575   8.513  1.00  0.00    -0.273 NA
HETATM   15  C   UNL     1      46.347  -9.618   7.923  1.00  0.00     0.116 A 
HETATM   16  C   UNL     1      45.673 -10.627   7.246  1.00  0.00     0.027 A 
ENDBRANCH   8  11
ENDBRANCH   7   8
ENDBRANCH   1   7
BRANCH   3  17
HETATM   17  C   UNL     1      43.656 -16.641   4.612  1.00  0.00     0.070 A 
HETATM   18  C   UNL     1      43.340 -16.491   3.251  1.00  0.00     0.101 A 
HETATM   19  C   UNL     1      43.388 -17.600   2.400  1.00  0.00     0.039 A 
HETATM   20  C   UNL     1      43.722 -18.858   2.903  1.00  0.00     0.003 A 
HETATM   21  C   UNL     1      44.052 -19.006   4.248  1.00  0.00     0.002 A 
HETATM   22  C   UNL     1      44.038 -17.898   5.096  1.00  0.00     0.032 A 
BRANCH  18  23
HETATM   23  O   UNL     1      43.175 -15.230   2.736  1.00  0.00    -0.288 OA
BRANCH  23  24
HETATM   24  C   UNL     1      41.822 -14.968   2.388  1.00  0.00     0.505 C 
HETATM   25  F   UNL     1      41.430 -13.870   3.089  1.00  0.00    -0.184 F 
HETATM   26  F   UNL     1      41.773 -14.607   1.078  1.00  0.00    -0.184 F 
ENDBRANCH  23  24
ENDBRANCH  18  23
ENDBRANCH   3  17
TORSDOF 6
ENDMDL
MODEL 7
REMARK VINA RESULT:      -7.3      3.113      7.511
REMARK  6 active torsions:
REMARK  status: ('A' for Active; 'I' for Inactive)
REMARK    1  A    between atoms: C_2  and  C_3 
REMARK    2  A    between atoms: C_2  and  C_9 
REMARK    3  A    between atoms: C_9  and  N_10 
REMARK       I    between atoms: N_10  and  C_11 
REMARK       I    between atoms: C_11  and  N_12 
REMARK    4  A    between atoms: N_12  and  C_13 
REMARK    5  A    between atoms: C_14  and  O_15 
REMARK    6  A    between atoms: O_15  and  C_16 
ROOT
HETATM    1  N   UNL     1      42.636 -13.709   2.394  1.00  0.00    -0.342 N 
HETATM    2  C   UNL     1      41.719 -12.827   1.904  1.00  0.00     0.320 C 
HETATM    3  N   UNL     1      40.495 -13.358   1.602  1.00  0.00    -0.306 N 
HETATM    4  O   UNL     1      42.023 -11.640   1.832  1.00  0.00    -0.247 OA
HETATM    5  H   UNL     1      43.514 -13.252   2.614  1.00  0.00     0.164 HD
HETATM    6  H   UNL     1      40.221 -14.092   2.233  1.00  0.00     0.171 HD
ENDROOT
BRANCH   1   7
HETATM    7  C   UNL     1      42.672 -15.159   2.273  1.00  0.00     0.138 C 
BRANCH   7   8
HETATM    8  C   UNL     1      42.458 -15.957   3.598  1.00  0.00    -0.004 C 
HETATM    9  C   UNL     1      40.930 -15.945   3.872  1.00  0.00     0.021 C 
HETATM   10  C   UNL     1      43.097 -15.213   4.793  1.00  0.00     0.021 C 
BRANCH   8  11
HETATM   11  C   UNL     1      43.021 -17.388   3.488  1.00  0.00    -0.046 A 
HETATM   12  C   UNL     1      43.755 -17.994   4.516  1.00  0.00     0.027 A 
HETATM   13  C   UNL     1      44.247 -19.283   4.342  1.00  0.00     0.116 A 
HETATM   14  N   UNL     1      44.056 -20.020   3.231  1.00  0.00    -0.273 NA
HETATM   15  C   UNL     1      43.337 -19.442   2.250  1.00  0.00     0.116 A 
HETATM   16  C   UNL     1      42.810 -18.159   2.333  1.00  0.00     0.027 A 
ENDBRANCH   8  11
ENDBRANCH   7   8
ENDBRANCH   1   7
BRANCH   3  17
HETATM   17  C   UNL     1      39.436 -12.596   1.058  1.00  0.00     0.070 A 
HETATM   18  C   UNL     1      39.223 -12.454  -0.323  1.00  0.00     0.101 A 
HETATM   19  C   UNL     1      38.154 -11.680  -0.786  1.00  0.00     0.039 A 
HETATM   20  C   UNL     1      37.316 -11.026   0.119  1.00  0.00     0.003 A 
HETATM   21  C   UNL     1      37.515 -11.179   1.489  1.00  0.00     0.002 A 
HETATM   22  C   UNL     1      38.559 -11.977   1.958  1.00  0.00     0.032 A 
BRANCH  18  23
HETATM   23  O   UNL     1      39.946 -13.227  -1.196  1.00  0.00    -0.288 OA
BRANCH  23  24
HETATM   24  C   UNL     1      39.170 -14.286  -1.740  1.00  0.00     0.505 C 
HETATM   25  F   UNL     1      39.767 -14.669  -2.900  1.00  0.00    -0.184 F 
HETATM   26  F   UNL     1      39.256 -15.359  -0.908  1.00  0.00    -0.184 F 
ENDBRANCH  23  24
ENDBRANCH  18  23
ENDBRANCH   3  17
TORSDOF 6
ENDMDL
MODEL 8
REMARK VINA RESULT:      -7.2      5.257      8.019
REMARK  6 active torsions:
REMARK  status: ('A' for Active; 'I' for Inactive)
REMARK    1  A    between atoms: C_2  and  C_3 
REMARK    2  A    between atoms: C_2  and  C_9 
REMARK    3  A    between atoms: C_9  and  N_10 
REMARK       I    between atoms: N_10  and  C_11 
REMARK       I    between atoms: C_11  and  N_12 
REMARK    4  A    between atoms: N_12  and  C_13 
REMARK    5  A    between atoms: C_14  and  O_15 
REMARK    6  A    between atoms: O_15  and  C_16 
ROOT
HETATM    1  N   UNL     1      43.262 -13.570   3.312  1.00  0.00    -0.342 N 
HETATM    2  C   UNL     1      43.168 -12.314   3.832  1.00  0.00     0.320 C 
HETATM    3  N   UNL     1      42.712 -12.242   5.119  1.00  0.00    -0.306 N 
HETATM    4  O   UNL     1      43.553 -11.365   3.154  1.00  0.00    -0.247 OA
HETATM    5  H   UNL     1      43.622 -13.557   2.364  1.00  0.00     0.164 HD
HETATM    6  H   UNL     1      43.017 -13.015   5.686  1.00  0.00     0.171 HD
ENDROOT
BRANCH   1   7
HETATM    7  C   UNL     1      42.591 -14.791   3.733  1.00  0.00     0.138 C 
BRANCH   7   8
HETATM    8  C   UNL     1      42.628 -15.973   2.714  1.00  0.00    -0.004 C 
HETATM    9  C   UNL     1      43.505 -15.495   1.525  1.00  0.00     0.021 C 
HETATM   10  C   UNL     1      41.224 -16.224   2.116  1.00  0.00     0.021 C 
BRANCH   8  11
HETATM   11  C   UNL     1      43.176 -17.259   3.365  1.00  0.00    -0.046 A 
HETATM   12  C   UNL     1      43.468 -18.415   2.630  1.00  0.00     0.027 A 
HETATM   13  C   UNL     1      43.945 -19.545   3.287  1.00  0.00     0.116 A 
HETATM   14  N   UNL     1      44.165 -19.609   4.614  1.00  0.00    -0.273 NA
HETATM   15  C   UNL     1      43.899 -18.492   5.316  1.00  0.00     0.116 A 
HETATM   16  C   UNL     1      43.417 -17.320   4.748  1.00  0.00     0.027 A 
ENDBRANCH   8  11
ENDBRANCH   7   8
ENDBRANCH   1   7
BRANCH   3  17
HETATM   17  C   UNL     1      42.526 -11.021   5.806  1.00  0.00     0.070 A 
HETATM   18  C   UNL     1      43.244 -10.674   6.962  1.00  0.00     0.101 A 
HETATM   19  C   UNL     1      43.001  -9.447   7.589  1.00  0.00     0.039 A 
HETATM   20  C   UNL     1      42.030  -8.580   7.085  1.00  0.00     0.003 A 
HETATM   21  C   UNL     1      41.329  -8.914   5.929  1.00  0.00     0.002 A 
HETATM   22  C   UNL     1      41.590 -10.122   5.280  1.00  0.00     0.032 A 
BRANCH  18  23
HETATM   23  O   UNL     1      44.304 -11.453   7.353  1.00  0.00    -0.288 OA
BRANCH  23  24
HETATM   24  C   UNL     1      45.552 -10.871   7.001  1.00  0.00     0.505 C 
HETATM   25  F   UNL     1      46.340 -10.904   8.109  1.00  0.00    -0.184 F 
HETATM   26  F   UNL     1      46.163 -11.673   6.089  1.00  0.00    -0.184 F 
ENDBRANCH  23  24
ENDBRANCH  18  23
ENDBRANCH   3  17
TORSDOF 6
ENDMDL
MODEL 9
REMARK VINA RESULT:      -7.1      3.488      7.414
REMARK  6 active torsions:
REMARK  status: ('A' for Active; 'I' for Inactive)
REMARK    1  A    between atoms: C_2  and  C_3 
REMARK    2  A    between atoms: C_2  and  C_9 
REMARK    3  A    between atoms: C_9  and  N_10 
REMARK       I    between atoms: N_10  and  C_11 
REMARK       I    between atoms: C_11  and  N_12 
REMARK    4  A    between atoms: N_12  and  C_13 
REMARK    5  A    between atoms: C_14  and  O_15 
REMARK    6  A    between atoms: O_15  and  C_16 
ROOT
HETATM    1  N   UNL     1      43.098 -13.929   3.466  1.00  0.00    -0.342 N 
HETATM    2  C   UNL     1      42.287 -12.910   3.066  1.00  0.00     0.320 C 
HETATM    3  N   UNL     1      40.970 -13.035   3.412  1.00  0.00    -0.306 N 
HETATM    4  O   UNL     1      42.790 -11.945   2.497  1.00  0.00    -0.247 OA
HETATM    5  H   UNL     1      44.062 -13.770   3.195  1.00  0.00     0.164 HD
HETATM    6  H   UNL     1      40.840 -13.478   4.307  1.00  0.00     0.171 HD
ENDROOT
BRANCH   1   7
HETATM    7  C   UNL     1      42.746 -15.293   3.834  1.00  0.00     0.138 C 
BRANCH   7   8
HETATM    8  C   UNL     1      42.655 -16.312   2.655  1.00  0.00    -0.004 C 
HETATM    9  C   UNL     1      43.483 -15.707   1.491  1.00  0.00     0.021 C 
HETATM   10  C   UNL     1      41.206 -16.408   2.125  1.00  0.00     0.021 C 
BRANCH   8  11
HETATM   11  C   UNL     1      43.169 -17.704   3.076  1.00  0.00    -0.046 A 
HETATM   12  C   UNL     1      43.104 -18.822   2.234  1.00  0.00     0.027 A 
HETATM   13  C   UNL     1      43.573 -20.051   2.686  1.00  0.00     0.116 A 
HETATM   14  N   UNL     1      44.110 -20.252   3.904  1.00  0.00    -0.273 NA
HETATM   15  C   UNL     1      44.185 -19.174   4.706  1.00  0.00     0.116 A 
HETATM   16  C   UNL     1      43.740 -17.909   4.343  1.00  0.00     0.027 A 
ENDBRANCH   8  11
ENDBRANCH   7   8
ENDBRANCH   1   7
BRANCH   3  17
HETATM   17  C   UNL     1      39.984 -12.087   3.055  1.00  0.00     0.070 A 
HETATM   18  C   UNL     1      39.262 -12.147   1.852  1.00  0.00     0.101 A 
HETATM   19  C   UNL     1      38.303 -11.169   1.567  1.00  0.00     0.039 A 
HETATM   20  C   UNL     1      38.082 -10.119   2.461  1.00  0.00     0.003 A 
HETATM   21  C   UNL     1      38.786 -10.067   3.662  1.00  0.00     0.002 A 
HETATM   22  C   UNL     1      39.719 -11.058   3.968  1.00  0.00     0.032 A 
BRANCH  18  23
HETATM   23  O   UNL     1      39.366 -13.264   1.062  1.00  0.00    -0.288 OA
BRANCH  23  24
HETATM   24  C   UNL     1      40.160 -13.027  -0.094  1.00  0.00     0.505 C 
HETATM   25  F   UNL     1      40.769 -14.200  -0.412  1.00  0.00    -0.184 F 
HETATM   26  F   UNL     1      39.334 -12.745  -1.137  1.00  0.00    -0.184 F 
ENDBRANCH  23  24
ENDBRANCH  18  23
ENDBRANCH   3  17
TORSDOF 6
ENDMDL
MODEL 10
REMARK VINA RESULT:      -7.1      3.459      8.093
REMARK  6 active torsions:
REMARK  status: ('A' for Active; 'I' for Inactive)
REMARK    1  A    between atoms: C_2  and  C_3 
REMARK    2  A    between atoms: C_2  and  C_9 
REMARK    3  A    between atoms: C_9  and  N_10 
REMARK       I    between atoms: N_10  and  C_11 
REMARK       I    between atoms: C_11  and  N_12 
REMARK    4  A    between atoms: N_12  and  C_13 
REMARK    5  A    between atoms: C_14  and  O_15 
REMARK    6  A    between atoms: O_15  and  C_16 
ROOT
HETATM    1  N   UNL     1      40.756 -13.758   2.095  1.00  0.00    -0.342 N 
HETATM    2  C   UNL     1      40.358 -13.007   1.029  1.00  0.00     0.320 C 
HETATM    3  N   UNL     1      41.297 -12.831   0.050  1.00  0.00    -0.306 N 
HETATM    4  O   UNL     1      39.198 -12.609   0.990  1.00  0.00    -0.247 OA
HETATM    5  H   UNL     1      40.012 -13.867   2.776  1.00  0.00     0.164 HD
HETATM    6  H   UNL     1      41.887 -13.636  -0.076  1.00  0.00     0.171 HD
ENDROOT
BRANCH   1   7
HETATM    7  C   UNL     1      42.104 -14.058   2.555  1.00  0.00     0.138 C 
BRANCH   7   8
HETATM    8  C   UNL     1      42.453 -15.574   2.693  1.00  0.00    -0.004 C 
HETATM    9  C   UNL     1      43.398 -15.913   1.509  1.00  0.00     0.021 C 
HETATM   10  C   UNL     1      41.195 -16.446   2.480  1.00  0.00     0.021 C 
BRANCH   8  11
HETATM   11  C   UNL     1      43.097 -15.879   4.061  1.00  0.00    -0.046 A 
HETATM   12  C   UNL     1      43.711 -17.104   4.352  1.00  0.00     0.027 A 
HETATM   13  C   UNL     1      44.258 -17.315   5.614  1.00  0.00     0.116 A 
HETATM   14  N   UNL     1      44.251 -16.401   6.602  1.00  0.00    -0.273 NA
HETATM   15  C   UNL     1      43.675 -15.219   6.314  1.00  0.00     0.116 A 
HETATM   16  C   UNL     1      43.100 -14.918   5.086  1.00  0.00     0.027 A 
ENDBRANCH   8  11
ENDBRANCH   7   8
ENDBRANCH   1   7
BRANCH   3  17
HETATM   17  C   UNL     1      41.066 -12.058  -1.111  1.00  0.00     0.070 A 
HETATM   18  C   UNL     1      40.714 -12.620  -2.349  1.00  0.00     0.101 A 
HETATM   19  C   UNL     1      40.505 -11.790  -3.455  1.00  0.00     0.039 A 
HETATM   20  C   UNL     1      40.672 -10.409  -3.339  1.00  0.00     0.003 A 
HETATM   21  C   UNL     1      41.004  -9.848  -2.108  1.00  0.00     0.002 A 
HETATM   22  C   UNL     1      41.181 -10.668  -0.992  1.00  0.00     0.032 A 
BRANCH  18  23
HETATM   23  O   UNL     1      40.394 -13.953  -2.414  1.00  0.00    -0.288 OA
BRANCH  23  24
HETATM   24  C   UNL     1      39.033 -14.158  -2.772  1.00  0.00     0.505 C 
HETATM   25  F   UNL     1      38.866 -15.492  -2.974  1.00  0.00    -0.184 F 
HETATM   26  F   UNL     1      38.252 -13.845  -1.703  1.00  0.00    -0.184 F 
ENDBRANCH  23  24
ENDBRANCH  18  23
ENDBRANCH   3  17
TORSDOF 6
ENDMDL
