MODEL 1
REMARK VINA RESULT:      -9.9      0.000      0.000
REMARK  9 active torsions:
REMARK  status: ('A' for Active; 'I' for Inactive)
REMARK    1  A    between atoms: N_2  and  C_4 
REMARK    2  A    between atoms: N_2  and  C_35 
REMARK    3  A    between atoms: C_4  and  C_5 
REMARK    4  A    between atoms: N_8  and  C_9 
REMARK    5  A    between atoms: C_12  and  N_13 
REMARK       I    between atoms: N_13  and  C_14 
REMARK       I    between atoms: C_14  and  N_15 
REMARK    6  A    between atoms: N_15  and  C_16 
REMARK    7  A    between atoms: C_19  and  O_20 
REMARK    8  A    between atoms: O_20  and  C_21 
REMARK    9  A    between atoms: C_35  and  C_36 
ROOT
HETATM    1  C   UNL     1      39.921  -9.515   6.830  1.00  0.00     0.161 C 
HETATM    2  C   UNL     1      38.838 -10.398   6.222  1.00  0.00     0.179 C 
HETATM    3  C   UNL     1      39.605 -11.239   5.217  1.00  0.00     0.177 C 
HETATM    4  C   UNL     1      39.330 -10.589   3.863  1.00  0.00     0.141 C 
HETATM    5  C   UNL     1      38.305  -9.495   4.142  1.00  0.00     0.196 C 
HETATM    6  O   UNL     1      37.845  -9.661   5.495  1.00  0.00    -0.379 OA
HETATM    7  O   UNL     1      41.006 -11.158   5.534  1.00  0.00    -0.379 OA
HETATM    8  C   UNL     1      41.140 -10.418   6.755  1.00  0.00     0.198 C 
ENDROOT
BRANCH   4   9
HETATM    9  N   UNL     1      38.975 -11.545   2.823  1.00  0.00    -0.334 N 
HETATM   10  C   UNL     1      39.584 -12.648   2.318  1.00  0.00     0.321 C 
HETATM   11  N   UNL     1      40.633 -13.169   3.024  1.00  0.00    -0.309 N 
HETATM   12  O   UNL     1      39.119 -13.088   1.271  1.00  0.00    -0.247 OA
HETATM   13  H   UNL     1      40.750 -12.862   3.975  1.00  0.00     0.170 HD
HETATM   14  H   UNL     1      38.252 -11.245   2.175  1.00  0.00     0.164 HD
BRANCH  11  15
HETATM   15  C   UNL     1      41.360 -14.332   2.665  1.00  0.00     0.036 A 
HETATM   16  C   UNL     1      40.866 -15.628   2.826  1.00  0.00     0.032 A 
HETATM   17  C   UNL     1      41.658 -16.736   2.516  1.00  0.00     0.039 A 
HETATM   18  C   UNL     1      42.956 -16.571   2.032  1.00  0.00     0.076 A 
HETATM   19  C   UNL     1      43.452 -15.280   1.845  1.00  0.00     0.039 A 
HETATM   20  C   UNL     1      42.651 -14.167   2.143  1.00  0.00     0.032 A 
BRANCH  18  21
HETATM   21  O   UNL     1      43.655 -17.742   1.849  1.00  0.00    -0.311 OA
BRANCH  21  22
HETATM   22  C   UNL     1      43.728 -18.647   2.874  1.00  0.00     0.076 A 
HETATM   23  C   UNL     1      43.605 -20.000   2.556  1.00  0.00     0.037 A 
HETATM   24  C   UNL     1      43.766 -20.964   3.551  1.00  0.00     0.003 A 
HETATM   25  C   UNL     1      44.063 -20.572   4.857  1.00  0.00     0.000 A 
HETATM   26  C   UNL     1      44.206 -19.218   5.168  1.00  0.00     0.003 A 
HETATM   27  C   UNL     1      44.049 -18.253   4.173  1.00  0.00     0.037 A 
ENDBRANCH  21  22
ENDBRANCH  18  21
ENDBRANCH  11  15
ENDBRANCH   4   9
BRANCH   1  28
HETATM   28  N   UNL     1      39.640  -9.020   8.154  1.00  0.00    -0.274 N 
HETATM   29  N   UNL     1      38.711  -8.072   8.369  1.00  0.00     0.005 NA
HETATM   30  N   UNL     1      38.607  -7.886   9.675  1.00  0.00    -0.161 NA
HETATM   31  C   UNL     1      39.481  -8.738  10.296  1.00  0.00     0.095 A 
HETATM   32  C   UNL     1      40.148  -9.474   9.342  1.00  0.00     0.139 A 
BRANCH  31  33
HETATM   33  C   UNL     1      39.564  -8.762  11.779  1.00  0.00     0.296 C 
BRANCH  33  34
HETATM   34  N   UNL     1      40.975  -8.945  12.304  1.00  0.00    -0.066 N 
HETATM   35  C   UNL     1      40.987  -9.254  13.770  1.00  0.00     0.270 C 
HETATM   36  H   UNL     1      41.341  -9.769  11.808  1.00  0.00     0.280 HD
BRANCH  34  37
HETATM   37  C   UNL     1      41.881  -7.795  11.921  1.00  0.00     0.273 C 
BRANCH  37  38
HETATM   38  C   UNL     1      42.990  -8.179  10.979  1.00  0.00    -0.033 A 
HETATM   39  C   UNL     1      43.865  -9.230  11.292  1.00  0.00     0.009 A 
HETATM   40  C   UNL     1      44.912  -9.557  10.427  1.00  0.00     0.001 A 
HETATM   41  C   UNL     1      45.091  -8.846   9.244  1.00  0.00     0.000 A 
HETATM   42  C   UNL     1      44.223  -7.807   8.917  1.00  0.00     0.001 A 
HETATM   43  C   UNL     1      43.177  -7.473   9.779  1.00  0.00     0.009 A 
ENDBRANCH  37  38
ENDBRANCH  34  37
ENDBRANCH  33  34
ENDBRANCH  31  33
ENDBRANCH   1  28
TORSDOF 9
ENDMDL
MODEL 2
REMARK VINA RESULT:      -9.7      1.444      2.267
REMARK  9 active torsions:
REMARK  status: ('A' for Active; 'I' for Inactive)
REMARK    1  A    between atoms: N_2  and  C_4 
REMARK    2  A    between atoms: N_2  and  C_35 
REMARK    3  A    between atoms: C_4  and  C_5 
REMARK    4  A    between atoms: N_8  and  C_9 
REMARK    5  A    between atoms: C_12  and  N_13 
REMARK       I    between atoms: N_13  and  C_14 
REMARK       I    between atoms: C_14  and  N_15 
REMARK    6  A    between atoms: N_15  and  C_16 
REMARK    7  A    between atoms: C_19  and  O_20 
REMARK    8  A    between atoms: O_20  and  C_21 
REMARK    9  A    between atoms: C_35  and  C_36 
ROOT
HETATM    1  C   UNL     1      40.086  -9.077   6.515  1.00  0.00     0.161 C 
HETATM    2  C   UNL     1      39.165 -10.160   5.966  1.00  0.00     0.179 C 
HETATM    3  C   UNL     1      39.979 -10.759   4.831  1.00  0.00     0.177 C 
HETATM    4  C   UNL     1      39.407 -10.135   3.561  1.00  0.00     0.141 C 
HETATM    5  C   UNL     1      38.203  -9.319   4.020  1.00  0.00     0.196 C 
HETATM    6  O   UNL     1      37.954  -9.643   5.399  1.00  0.00    -0.379 OA
HETATM    7  O   UNL     1      41.353 -10.369   5.005  1.00  0.00    -0.379 OA
HETATM    8  C   UNL     1      41.459  -9.670   6.252  1.00  0.00     0.198 C 
ENDROOT
BRANCH   4   9
HETATM    9  N   UNL     1      39.156 -11.103   2.502  1.00  0.00    -0.334 N 
HETATM   10  C   UNL     1      39.772 -12.249   2.118  1.00  0.00     0.321 C 
HETATM   11  N   UNL     1      40.677 -12.800   2.981  1.00  0.00    -0.309 N 
HETATM   12  O   UNL     1      39.441 -12.697   1.024  1.00  0.00    -0.247 OA
HETATM   13  H   UNL     1      40.671 -12.471   3.932  1.00  0.00     0.170 HD
HETATM   14  H   UNL     1      38.552 -10.787   1.749  1.00  0.00     0.164 HD
BRANCH  11  15
HETATM   15  C   UNL     1      41.385 -14.008   2.760  1.00  0.00     0.036 A 
HETATM   16  C   UNL     1      42.669 -14.059   2.213  1.00  0.00     0.032 A 
HETATM   17  C   UNL     1      43.287 -15.286   1.957  1.00  0.00     0.039 A 
HETATM   18  C   UNL     1      42.637 -16.485   2.251  1.00  0.00     0.076 A 
HETATM   19  C   UNL     1      41.364 -16.446   2.819  1.00  0.00     0.039 A 
HETATM   20  C   UNL     1      40.750 -15.214   3.089  1.00  0.00     0.032 A 
BRANCH  18  21
HETATM   21  O   UNL     1      43.322 -17.617   1.871  1.00  0.00    -0.311 OA
BRANCH  21  22
HETATM   22  C   UNL     1      43.536 -18.610   2.790  1.00  0.00     0.076 A 
HETATM   23  C   UNL     1      43.462 -19.931   2.347  1.00  0.00     0.037 A 
HETATM   24  C   UNL     1      43.765 -20.974   3.224  1.00  0.00     0.003 A 
HETATM   25  C   UNL     1      44.154 -20.691   4.533  1.00  0.00     0.000 A 
HETATM   26  C   UNL     1      44.247 -19.367   4.967  1.00  0.00     0.003 A 
HETATM   27  C   UNL     1      43.949 -18.322   4.092  1.00  0.00     0.037 A 
ENDBRANCH  21  22
ENDBRANCH  18  21
ENDBRANCH  11  15
ENDBRANCH   4   9
BRANCH   1  28
HETATM   28  N   UNL     1      39.860  -8.716   7.892  1.00  0.00    -0.274 N 
HETATM   29  N   UNL     1      38.854  -7.897   8.249  1.00  0.00     0.005 NA
HETATM   30  N   UNL     1      38.834  -7.821   9.570  1.00  0.00    -0.161 NA
HETATM   31  C   UNL     1      39.840  -8.613  10.056  1.00  0.00     0.095 A 
HETATM   32  C   UNL     1      40.504  -9.197   9.000  1.00  0.00     0.139 A 
BRANCH  31  33
HETATM   33  C   UNL     1      40.041  -8.737  11.522  1.00  0.00     0.296 C 
BRANCH  33  34
HETATM   34  N   UNL     1      40.426 -10.136  11.964  1.00  0.00    -0.066 N 
HETATM   35  C   UNL     1      39.352 -10.774  12.791  1.00  0.00     0.270 C 
HETATM   36  H   UNL     1      40.513 -10.679  11.093  1.00  0.00     0.280 HD
BRANCH  34  37
HETATM   37  C   UNL     1      41.793 -10.175  12.612  1.00  0.00     0.273 C 
BRANCH  37  38
HETATM   38  C   UNL     1      42.075  -9.003  13.513  1.00  0.00    -0.033 A 
HETATM   39  C   UNL     1      43.053  -8.055  13.172  1.00  0.00     0.009 A 
HETATM   40  C   UNL     1      43.331  -6.989  14.031  1.00  0.00     0.001 A 
HETATM   41  C   UNL     1      42.635  -6.855  15.230  1.00  0.00     0.000 A 
HETATM   42  C   UNL     1      41.655  -7.784  15.574  1.00  0.00     0.001 A 
HETATM   43  C   UNL     1      41.375  -8.852  14.722  1.00  0.00     0.009 A 
ENDBRANCH  37  38
ENDBRANCH  34  37
ENDBRANCH  33  34
ENDBRANCH  31  33
ENDBRANCH   1  28
TORSDOF 9
ENDMDL
MODEL 3
REMARK VINA RESULT:      -9.6      3.206     11.631
REMARK  9 active torsions:
REMARK  status: ('A' for Active; 'I' for Inactive)
REMARK    1  A    between atoms: N_2  and  C_4 
REMARK    2  A    between atoms: N_2  and  C_35 
REMARK    3  A    between atoms: C_4  and  C_5 
REMARK    4  A    between atoms: N_8  and  C_9 
REMARK    5  A    between atoms: C_12  and  N_13 
REMARK       I    between atoms: N_13  and  C_14 
REMARK       I    between atoms: C_14  and  N_15 
REMARK    6  A    between atoms: N_15  and  C_16 
REMARK    7  A    between atoms: C_19  and  O_20 
REMARK    8  A    between atoms: O_20  and  C_21 
REMARK    9  A    between atoms: C_35  and  C_36 
ROOT
HETATM    1  C   UNL     1      42.563 -10.572   4.889  1.00  0.00     0.161 C 
HETATM    2  C   UNL     1      43.115 -11.644   5.821  1.00  0.00     0.179 C 
HETATM    3  C   UNL     1      43.157 -10.939   7.167  1.00  0.00     0.177 C 
HETATM    4  C   UNL     1      44.617 -10.534   7.355  1.00  0.00     0.141 C 
HETATM    5  C   UNL     1      45.363 -11.151   6.176  1.00  0.00     0.196 C 
HETATM    6  O   UNL     1      44.456 -12.040   5.502  1.00  0.00    -0.379 OA
HETATM    7  O   UNL     1      42.320  -9.771   7.092  1.00  0.00    -0.379 OA
HETATM    8  C   UNL     1      41.660  -9.782   5.820  1.00  0.00     0.198 C 
ENDROOT
BRANCH   4   9
HETATM    9  N   UNL     1      45.141 -10.851   8.677  1.00  0.00    -0.334 N 
HETATM   10  C   UNL     1      44.812 -10.454   9.933  1.00  0.00     0.321 C 
HETATM   11  N   UNL     1      43.620  -9.807  10.100  1.00  0.00    -0.309 N 
HETATM   12  O   UNL     1      45.621 -10.731  10.814  1.00  0.00    -0.247 OA
HETATM   13  H   UNL     1      42.953  -9.864   9.349  1.00  0.00     0.170 HD
HETATM   14  H   UNL     1      46.065 -11.271   8.698  1.00  0.00     0.164 HD
BRANCH  11  15
HETATM   15  C   UNL     1      43.103  -9.355  11.340  1.00  0.00     0.036 A 
HETATM   16  C   UNL     1      43.590  -8.234  12.014  1.00  0.00     0.032 A 
HETATM   17  C   UNL     1      43.084  -7.879  13.266  1.00  0.00     0.039 A 
HETATM   18  C   UNL     1      42.074  -8.632  13.866  1.00  0.00     0.076 A 
HETATM   19  C   UNL     1      41.562  -9.740  13.191  1.00  0.00     0.039 A 
HETATM   20  C   UNL     1      42.062 -10.088  11.927  1.00  0.00     0.032 A 
BRANCH  18  21
HETATM   21  O   UNL     1      41.727  -8.223  15.133  1.00  0.00    -0.311 OA
BRANCH  21  22
HETATM   22  C   UNL     1      40.635  -7.412  15.300  1.00  0.00     0.076 A 
HETATM   23  C   UNL     1      40.421  -6.866  16.566  1.00  0.00     0.037 A 
HETATM   24  C   UNL     1      39.377  -5.960  16.762  1.00  0.00     0.003 A 
HETATM   25  C   UNL     1      38.563  -5.595  15.690  1.00  0.00     0.000 A 
HETATM   26  C   UNL     1      38.794  -6.128  14.420  1.00  0.00     0.003 A 
HETATM   27  C   UNL     1      39.839  -7.030  14.220  1.00  0.00     0.037 A 
ENDBRANCH  21  22
ENDBRANCH  18  21
ENDBRANCH  11  15
ENDBRANCH   4   9
BRANCH   1  28
HETATM   28  N   UNL     1      41.897 -11.066   3.710  1.00  0.00    -0.274 N 
HETATM   29  N   UNL     1      42.346 -10.776   2.475  1.00  0.00     0.005 NA
HETATM   30  N   UNL     1      41.600 -11.434   1.602  1.00  0.00    -0.161 NA
HETATM   31  C   UNL     1      40.669 -12.158   2.298  1.00  0.00     0.095 A 
HETATM   32  C   UNL     1      40.846 -11.940   3.646  1.00  0.00     0.139 A 
BRANCH  31  33
HETATM   33  C   UNL     1      39.704 -13.018   1.568  1.00  0.00     0.296 C 
BRANCH  33  34
HETATM   34  N   UNL     1      40.279 -14.359   1.155  1.00  0.00    -0.066 N 
HETATM   35  C   UNL     1      39.992 -14.669  -0.283  1.00  0.00     0.270 C 
HETATM   36  H   UNL     1      41.299 -14.257   1.255  1.00  0.00     0.280 HD
BRANCH  34  37
HETATM   37  C   UNL     1      39.880 -15.469   2.104  1.00  0.00     0.273 C 
BRANCH  37  38
HETATM   38  C   UNL     1      41.036 -16.077   2.853  1.00  0.00    -0.033 A 
HETATM   39  C   UNL     1      42.050 -16.765   2.170  1.00  0.00     0.009 A 
HETATM   40  C   UNL     1      43.101 -17.354   2.877  1.00  0.00     0.001 A 
HETATM   41  C   UNL     1      43.153 -17.257   4.265  1.00  0.00     0.000 A 
HETATM   42  C   UNL     1      42.157 -16.568   4.953  1.00  0.00     0.001 A 
HETATM   43  C   UNL     1      41.103 -15.980   4.253  1.00  0.00     0.009 A 
ENDBRANCH  37  38
ENDBRANCH  34  37
ENDBRANCH  33  34
ENDBRANCH  31  33
ENDBRANCH   1  28
TORSDOF 9
ENDMDL
MODEL 4
REMARK VINA RESULT:      -9.4      3.673     12.530
REMARK  9 active torsions:
REMARK  status: ('A' for Active; 'I' for Inactive)
REMARK    1  A    between atoms: N_2  and  C_4 
REMARK    2  A    between atoms: N_2  and  C_35 
REMARK    3  A    between atoms: C_4  and  C_5 
REMARK    4  A    between atoms: N_8  and  C_9 
REMARK    5  A    between atoms: C_12  and  N_13 
REMARK       I    between atoms: N_13  and  C_14 
REMARK       I    between atoms: C_14  and  N_15 
REMARK    6  A    between atoms: N_15  and  C_16 
REMARK    7  A    between atoms: C_19  and  O_20 
REMARK    8  A    between atoms: O_20  and  C_21 
REMARK    9  A    between atoms: C_35  and  C_36 
ROOT
HETATM    1  C   UNL     1      42.691 -11.504   6.698  1.00  0.00     0.161 C 
HETATM    2  C   UNL     1      42.541  -9.997   6.530  1.00  0.00     0.179 C 
HETATM    3  C   UNL     1      43.436  -9.440   7.624  1.00  0.00     0.177 C 
HETATM    4  C   UNL     1      42.486  -9.046   8.752  1.00  0.00     0.141 C 
HETATM    5  C   UNL     1      41.084  -9.264   8.192  1.00  0.00     0.196 C 
HETATM    6  O   UNL     1      41.210  -9.525   6.784  1.00  0.00    -0.379 OA
HETATM    7  O   UNL     1      44.322 -10.487   8.060  1.00  0.00    -0.379 OA
HETATM    8  C   UNL     1      44.115 -11.623   7.212  1.00  0.00     0.198 C 
ENDROOT
BRANCH   4   9
HETATM    9  N   UNL     1      42.754  -7.723   9.301  1.00  0.00    -0.334 N 
HETATM   10  C   UNL     1      42.510  -7.143  10.503  1.00  0.00     0.321 C 
HETATM   11  N   UNL     1      42.152  -7.961  11.539  1.00  0.00    -0.309 N 
HETATM   12  O   UNL     1      42.652  -5.925  10.551  1.00  0.00    -0.247 OA
HETATM   13  H   UNL     1      42.312  -8.947  11.427  1.00  0.00     0.170 HD
HETATM   14  H   UNL     1      42.960  -6.997   8.622  1.00  0.00     0.164 HD
BRANCH  11  15
HETATM   15  C   UNL     1      41.896  -7.532  12.866  1.00  0.00     0.036 A 
HETATM   16  C   UNL     1      40.646  -7.090  13.303  1.00  0.00     0.032 A 
HETATM   17  C   UNL     1      40.473  -6.616  14.606  1.00  0.00     0.039 A 
HETATM   18  C   UNL     1      41.544  -6.585  15.500  1.00  0.00     0.076 A 
HETATM   19  C   UNL     1      42.792  -7.048  15.081  1.00  0.00     0.039 A 
HETATM   20  C   UNL     1      42.961  -7.536  13.777  1.00  0.00     0.032 A 
BRANCH  18  21
HETATM   21  O   UNL     1      41.257  -6.018  16.721  1.00  0.00    -0.311 OA
BRANCH  21  22
HETATM   22  C   UNL     1      41.169  -6.820  17.828  1.00  0.00     0.076 A 
HETATM   23  C   UNL     1      39.953  -7.461  18.069  1.00  0.00     0.037 A 
HETATM   24  C   UNL     1      39.842  -8.361  19.130  1.00  0.00     0.003 A 
HETATM   25  C   UNL     1      40.950  -8.626  19.935  1.00  0.00     0.000 A 
HETATM   26  C   UNL     1      42.171  -7.999  19.677  1.00  0.00     0.003 A 
HETATM   27  C   UNL     1      42.285  -7.102  18.615  1.00  0.00     0.037 A 
ENDBRANCH  21  22
ENDBRANCH  18  21
ENDBRANCH  11  15
ENDBRANCH   4   9
BRANCH   1  28
HETATM   28  N   UNL     1      42.429 -12.284   5.514  1.00  0.00    -0.274 N 
HETATM   29  N   UNL     1      41.532 -11.887   4.594  1.00  0.00     0.005 NA
HETATM   30  N   UNL     1      41.572 -12.743   3.585  1.00  0.00    -0.161 NA
HETATM   31  C   UNL     1      42.517 -13.692   3.870  1.00  0.00     0.095 A 
HETATM   32  C   UNL     1      43.079 -13.414   5.096  1.00  0.00     0.139 A 
BRANCH  31  33
HETATM   33  C   UNL     1      42.793 -14.777   2.894  1.00  0.00     0.296 C 
BRANCH  33  34
HETATM   34  N   UNL     1      42.426 -16.157   3.403  1.00  0.00    -0.066 N 
HETATM   35  C   UNL     1      41.125 -16.147   4.149  1.00  0.00     0.270 C 
HETATM   36  H   UNL     1      42.295 -16.730   2.557  1.00  0.00     0.280 HD
BRANCH  34  37
HETATM   37  C   UNL     1      43.558 -16.804   4.171  1.00  0.00     0.273 C 
BRANCH  37  38
HETATM   38  C   UNL     1      43.673 -18.289   3.953  1.00  0.00    -0.033 A 
HETATM   39  C   UNL     1      44.035 -19.142   5.007  1.00  0.00     0.009 A 
HETATM   40  C   UNL     1      44.172 -20.514   4.787  1.00  0.00     0.001 A 
HETATM   41  C   UNL     1      43.944 -21.048   3.521  1.00  0.00     0.000 A 
HETATM   42  C   UNL     1      43.575 -20.212   2.469  1.00  0.00     0.001 A 
HETATM   43  C   UNL     1      43.439 -18.839   2.682  1.00  0.00     0.009 A 
ENDBRANCH  37  38
ENDBRANCH  34  37
ENDBRANCH  33  34
ENDBRANCH  31  33
ENDBRANCH   1  28
TORSDOF 9
ENDMDL
MODEL 5
REMARK VINA RESULT:      -9.4      1.751      2.854
REMARK  9 active torsions:
REMARK  status: ('A' for Active; 'I' for Inactive)
REMARK    1  A    between atoms: N_2  and  C_4 
REMARK    2  A    between atoms: N_2  and  C_35 
REMARK    3  A    between atoms: C_4  and  C_5 
REMARK    4  A    between atoms: N_8  and  C_9 
REMARK    5  A    between atoms: C_12  and  N_13 
REMARK       I    between atoms: N_13  and  C_14 
REMARK       I    between atoms: C_14  and  N_15 
REMARK    6  A    between atoms: N_15  and  C_16 
REMARK    7  A    between atoms: C_19  and  O_20 
REMARK    8  A    between atoms: O_20  and  C_21 
REMARK    9  A    between atoms: C_35  and  C_36 
ROOT
HETATM    1  C   UNL     1      40.876  -8.575   5.182  1.00  0.00     0.161 C 
HETATM    2  C   UNL     1      41.271  -9.896   4.532  1.00  0.00     0.179 C 
HETATM    3  C   UNL     1      40.745  -9.751   3.114  1.00  0.00     0.177 C 
HETATM    4  C   UNL     1      39.441 -10.545   3.093  1.00  0.00     0.141 C 
HETATM    5  C   UNL     1      39.359 -11.222   4.457  1.00  0.00     0.196 C 
HETATM    6  O   UNL     1      40.623 -11.034   5.116  1.00  0.00    -0.379 OA
HETATM    7  O   UNL     1      40.485  -8.357   2.868  1.00  0.00    -0.379 OA
HETATM    8  C   UNL     1      40.941  -7.616   4.007  1.00  0.00     0.198 C 
ENDROOT
BRANCH   4   9
HETATM    9  N   UNL     1      39.317 -11.423   1.937  1.00  0.00    -0.334 N 
HETATM   10  C   UNL     1      39.945 -12.564   1.558  1.00  0.00     0.321 C 
HETATM   11  N   UNL     1      40.697 -13.214   2.497  1.00  0.00    -0.309 N 
HETATM   12  O   UNL     1      39.763 -12.919   0.397  1.00  0.00    -0.247 OA
HETATM   13  H   UNL     1      40.562 -12.954   3.459  1.00  0.00     0.170 HD
HETATM   14  H   UNL     1      38.840 -11.028   1.131  1.00  0.00     0.164 HD
BRANCH  11  15
HETATM   15  C   UNL     1      41.390 -14.432   2.287  1.00  0.00     0.036 A 
HETATM   16  C   UNL     1      40.829 -15.688   2.529  1.00  0.00     0.032 A 
HETATM   17  C   UNL     1      41.588 -16.850   2.368  1.00  0.00     0.039 A 
HETATM   18  C   UNL     1      42.918 -16.781   1.952  1.00  0.00     0.076 A 
HETATM   19  C   UNL     1      43.481 -15.533   1.684  1.00  0.00     0.039 A 
HETATM   20  C   UNL     1      42.715 -14.367   1.834  1.00  0.00     0.032 A 
BRANCH  18  21
HETATM   21  O   UNL     1      43.572 -17.991   1.915  1.00  0.00    -0.311 OA
BRANCH  21  22
HETATM   22  C   UNL     1      43.635 -18.754   3.051  1.00  0.00     0.076 A 
HETATM   23  C   UNL     1      43.673 -20.141   2.900  1.00  0.00     0.037 A 
HETATM   24  C   UNL     1      43.832 -20.956   4.021  1.00  0.00     0.003 A 
HETATM   25  C   UNL     1      43.968 -20.381   5.285  1.00  0.00     0.000 A 
HETATM   26  C   UNL     1      43.951 -18.992   5.430  1.00  0.00     0.003 A 
HETATM   27  C   UNL     1      43.795 -18.175   4.310  1.00  0.00     0.037 A 
ENDBRANCH  21  22
ENDBRANCH  18  21
ENDBRANCH  11  15
ENDBRANCH   4   9
BRANCH   1  28
HETATM   28  N   UNL     1      41.685  -8.177   6.308  1.00  0.00    -0.274 N 
HETATM   29  N   UNL     1      42.111  -6.910   6.454  1.00  0.00     0.005 NA
HETATM   30  N   UNL     1      42.746  -6.821   7.613  1.00  0.00    -0.161 NA
HETATM   31  C   UNL     1      42.712  -8.052   8.211  1.00  0.00     0.095 A 
HETATM   32  C   UNL     1      42.034  -8.931   7.395  1.00  0.00     0.139 A 
BRANCH  31  33
HETATM   33  C   UNL     1      43.334  -8.244   9.546  1.00  0.00     0.296 C 
BRANCH  33  34
HETATM   34  N   UNL     1      42.432  -8.953  10.537  1.00  0.00    -0.066 N 
HETATM   35  C   UNL     1      41.217  -8.139  10.867  1.00  0.00     0.270 C 
HETATM   36  H   UNL     1      42.114  -9.804  10.051  1.00  0.00     0.280 HD
BRANCH  34  37
HETATM   37  C   UNL     1      43.188  -9.432  11.757  1.00  0.00     0.273 C 
BRANCH  37  38
HETATM   38  C   UNL     1      42.811  -8.720  13.029  1.00  0.00    -0.033 A 
HETATM   39  C   UNL     1      41.818  -9.240  13.874  1.00  0.00     0.009 A 
HETATM   40  C   UNL     1      41.452  -8.555  15.034  1.00  0.00     0.001 A 
HETATM   41  C   UNL     1      42.073  -7.353  15.365  1.00  0.00     0.000 A 
HETATM   42  C   UNL     1      43.067  -6.832  14.539  1.00  0.00     0.001 A 
HETATM   43  C   UNL     1      43.435  -7.511  13.377  1.00  0.00     0.009 A 
ENDBRANCH  37  38
ENDBRANCH  34  37
ENDBRANCH  33  34
ENDBRANCH  31  33
ENDBRANCH   1  28
TORSDOF 9
ENDMDL
MODEL 6
REMARK VINA RESULT:      -9.3      3.939      6.368
REMARK  9 active torsions:
REMARK  status: ('A' for Active; 'I' for Inactive)
REMARK    1  A    between atoms: N_2  and  C_4 
REMARK    2  A    between atoms: N_2  and  C_35 
REMARK    3  A    between atoms: C_4  and  C_5 
REMARK    4  A    between atoms: N_8  and  C_9 
REMARK    5  A    between atoms: C_12  and  N_13 
REMARK       I    between atoms: N_13  and  C_14 
REMARK       I    between atoms: C_14  and  N_15 
REMARK    6  A    between atoms: N_15  and  C_16 
REMARK    7  A    between atoms: C_19  and  O_20 
REMARK    8  A    between atoms: O_20  and  C_21 
REMARK    9  A    between atoms: C_35  and  C_36 
ROOT
HETATM    1  C   UNL     1      41.568  -8.769  11.577  1.00  0.00     0.161 C 
HETATM    2  C   UNL     1      42.934  -8.457  10.976  1.00  0.00     0.179 C 
HETATM    3  C   UNL     1      42.837  -9.046   9.579  1.00  0.00     0.177 C 
HETATM    4  C   UNL     1      43.577 -10.378   9.658  1.00  0.00     0.141 C 
HETATM    5  C   UNL     1      44.183 -10.421  11.058  1.00  0.00     0.196 C 
HETATM    6  O   UNL     1      44.015  -9.119  11.647  1.00  0.00    -0.379 OA
HETATM    7  O   UNL     1      41.447  -9.263   9.276  1.00  0.00    -0.379 OA
HETATM    8  C   UNL     1      40.671  -8.724  10.353  1.00  0.00     0.198 C 
ENDROOT
BRANCH   4   9
HETATM    9  N   UNL     1      44.504 -10.593   8.555  1.00  0.00    -0.334 N 
HETATM   10  C   UNL     1      44.552 -11.487   7.535  1.00  0.00     0.321 C 
HETATM   11  N   UNL     1      43.427 -12.220   7.284  1.00  0.00    -0.309 N 
HETATM   12  O   UNL     1      45.611 -11.540   6.916  1.00  0.00    -0.247 OA
HETATM   13  H   UNL     1      42.566 -11.906   7.699  1.00  0.00     0.170 HD
HETATM   14  H   UNL     1      45.417 -10.160   8.655  1.00  0.00     0.164 HD
BRANCH  11  15
HETATM   15  C   UNL     1      43.287 -13.169   6.240  1.00  0.00     0.036 A 
HETATM   16  C   UNL     1      43.153 -12.819   4.895  1.00  0.00     0.032 A 
HETATM   17  C   UNL     1      42.951 -13.799   3.920  1.00  0.00     0.039 A 
HETATM   18  C   UNL     1      42.888 -15.149   4.269  1.00  0.00     0.076 A 
HETATM   19  C   UNL     1      43.045 -15.512   5.606  1.00  0.00     0.039 A 
HETATM   20  C   UNL     1      43.262 -14.528   6.583  1.00  0.00     0.032 A 
BRANCH  18  21
HETATM   21  O   UNL     1      42.601 -16.000   3.226  1.00  0.00    -0.311 OA
BRANCH  21  22
HETATM   22  C   UNL     1      43.019 -17.303   3.290  1.00  0.00     0.076 A 
HETATM   23  C   UNL     1      42.722 -18.133   2.209  1.00  0.00     0.037 A 
HETATM   24  C   UNL     1      43.207 -19.441   2.185  1.00  0.00     0.003 A 
HETATM   25  C   UNL     1      43.998 -19.908   3.236  1.00  0.00     0.000 A 
HETATM   26  C   UNL     1      44.310 -19.067   4.306  1.00  0.00     0.003 A 
HETATM   27  C   UNL     1      43.829 -17.758   4.330  1.00  0.00     0.037 A 
ENDBRANCH  21  22
ENDBRANCH  18  21
ENDBRANCH  11  15
ENDBRANCH   4   9
BRANCH   1  28
HETATM   28  N   UNL     1      41.150  -7.892  12.642  1.00  0.00    -0.274 N 
HETATM   29  N   UNL     1      40.008  -8.105  13.321  1.00  0.00     0.005 NA
HETATM   30  N   UNL     1      39.932  -7.205  14.289  1.00  0.00    -0.161 NA
HETATM   31  C   UNL     1      41.048  -6.415  14.223  1.00  0.00     0.095 A 
HETATM   32  C   UNL     1      41.841  -6.841  13.181  1.00  0.00     0.139 A 
BRANCH  31  33
HETATM   33  C   UNL     1      41.241  -5.324  15.212  1.00  0.00     0.296 C 
BRANCH  33  34
HETATM   34  N   UNL     1      40.497  -5.548  16.514  1.00  0.00    -0.066 N 
HETATM   35  C   UNL     1      39.588  -4.401  16.840  1.00  0.00     0.270 C 
HETATM   36  H   UNL     1      39.906  -6.376  16.347  1.00  0.00     0.280 HD
BRANCH  34  37
HETATM   37  C   UNL     1      41.426  -5.925  17.647  1.00  0.00     0.273 C 
BRANCH  37  38
HETATM   38  C   UNL     1      40.759  -6.698  18.753  1.00  0.00    -0.033 A 
HETATM   39  C   UNL     1      40.057  -7.882  18.477  1.00  0.00     0.009 A 
HETATM   40  C   UNL     1      39.414  -8.575  19.505  1.00  0.00     0.001 A 
HETATM   41  C   UNL     1      39.470  -8.100  20.813  1.00  0.00     0.000 A 
HETATM   42  C   UNL     1      40.173  -6.932  21.100  1.00  0.00     0.001 A 
HETATM   43  C   UNL     1      40.815  -6.234  20.077  1.00  0.00     0.009 A 
ENDBRANCH  37  38
ENDBRANCH  34  37
ENDBRANCH  33  34
ENDBRANCH  31  33
ENDBRANCH   1  28
TORSDOF 9
ENDMDL
MODEL 7
REMARK VINA RESULT:      -9.2      3.120     12.006
REMARK  9 active torsions:
REMARK  status: ('A' for Active; 'I' for Inactive)
REMARK    1  A    between atoms: N_2  and  C_4 
REMARK    2  A    between atoms: N_2  and  C_35 
REMARK    3  A    between atoms: C_4  and  C_5 
REMARK    4  A    between atoms: N_8  and  C_9 
REMARK    5  A    between atoms: C_12  and  N_13 
REMARK       I    between atoms: N_13  and  C_14 
REMARK       I    between atoms: C_14  and  N_15 
REMARK    6  A    between atoms: N_15  and  C_16 
REMARK    7  A    between atoms: C_19  and  O_20 
REMARK    8  A    between atoms: O_20  and  C_21 
REMARK    9  A    between atoms: C_35  and  C_36 
ROOT
HETATM    1  C   UNL     1      43.284 -11.340   5.197  1.00  0.00     0.161 C 
HETATM    2  C   UNL     1      43.670 -11.969   6.531  1.00  0.00     0.179 C 
HETATM    3  C   UNL     1      43.415 -10.849   7.525  1.00  0.00     0.177 C 
HETATM    4  C   UNL     1      44.792 -10.257   7.816  1.00  0.00     0.141 C 
HETATM    5  C   UNL     1      45.782 -11.158   7.085  1.00  0.00     0.196 C 
HETATM    6  O   UNL     1      45.060 -12.311   6.617  1.00  0.00    -0.379 OA
HETATM    7  O   UNL     1      42.573  -9.867   6.894  1.00  0.00    -0.379 OA
HETATM    8  C   UNL     1      42.186 -10.376   5.612  1.00  0.00     0.198 C 
ENDROOT
BRANCH   4   9
HETATM    9  N   UNL     1      45.046 -10.051   9.236  1.00  0.00    -0.334 N 
HETATM   10  C   UNL     1      44.331  -9.486  10.241  1.00  0.00     0.321 C 
HETATM   11  N   UNL     1      43.005  -9.241  10.014  1.00  0.00    -0.309 N 
HETATM   12  O   UNL     1      44.947  -9.260  11.278  1.00  0.00    -0.247 OA
HETATM   13  H   UNL     1      42.579  -9.694   9.223  1.00  0.00     0.170 HD
HETATM   14  H   UNL     1      46.016 -10.129   9.527  1.00  0.00     0.164 HD
BRANCH  11  15
HETATM   15  C   UNL     1      42.103  -8.690  10.959  1.00  0.00     0.036 A 
HETATM   16  C   UNL     1      42.046  -7.329  11.265  1.00  0.00     0.032 A 
HETATM   17  C   UNL     1      41.181  -6.858  12.255  1.00  0.00     0.039 A 
HETATM   18  C   UNL     1      40.350  -7.735  12.953  1.00  0.00     0.076 A 
HETATM   19  C   UNL     1      40.382  -9.094  12.639  1.00  0.00     0.039 A 
HETATM   20  C   UNL     1      41.241  -9.565  11.634  1.00  0.00     0.032 A 
BRANCH  18  21
HETATM   21  O   UNL     1      39.612  -7.153  13.957  1.00  0.00    -0.311 OA
BRANCH  21  22
HETATM   22  C   UNL     1      40.237  -6.774  15.116  1.00  0.00     0.076 A 
HETATM   23  C   UNL     1      40.999  -7.732  15.785  1.00  0.00     0.037 A 
HETATM   24  C   UNL     1      41.730  -7.369  16.917  1.00  0.00     0.003 A 
HETATM   25  C   UNL     1      41.707  -6.048  17.366  1.00  0.00     0.000 A 
HETATM   26  C   UNL     1      40.959  -5.087  16.681  1.00  0.00     0.003 A 
HETATM   27  C   UNL     1      40.231  -5.447  15.547  1.00  0.00     0.037 A 
ENDBRANCH  21  22
ENDBRANCH  18  21
ENDBRANCH  11  15
ENDBRANCH   4   9
BRANCH   1  28
HETATM   28  N   UNL     1      42.889 -12.270   4.169  1.00  0.00    -0.274 N 
HETATM   29  N   UNL     1      43.572 -12.376   3.016  1.00  0.00     0.005 NA
HETATM   30  N   UNL     1      43.040 -13.363   2.312  1.00  0.00    -0.161 NA
HETATM   31  C   UNL     1      42.008 -13.895   3.039  1.00  0.00     0.095 A 
HETATM   32  C   UNL     1      41.898 -13.213   4.230  1.00  0.00     0.139 A 
BRANCH  31  33
HETATM   33  C   UNL     1      41.238 -15.043   2.498  1.00  0.00     0.296 C 
BRANCH  33  34
HETATM   34  N   UNL     1      41.538 -16.355   3.196  1.00  0.00    -0.066 N 
HETATM   35  C   UNL     1      40.894 -16.428   4.548  1.00  0.00     0.270 C 
HETATM   36  H   UNL     1      41.105 -17.080   2.605  1.00  0.00     0.280 HD
BRANCH  34  37
HETATM   37  C   UNL     1      43.019 -16.668   3.214  1.00  0.00     0.273 C 
BRANCH  37  38
HETATM   38  C   UNL     1      43.332 -18.137   3.313  1.00  0.00    -0.033 A 
HETATM   39  C   UNL     1      43.871 -18.677   4.491  1.00  0.00     0.009 A 
HETATM   40  C   UNL     1      44.189 -20.035   4.562  1.00  0.00     0.001 A 
HETATM   41  C   UNL     1      43.968 -20.865   3.465  1.00  0.00     0.000 A 
HETATM   42  C   UNL     1      43.425 -20.342   2.294  1.00  0.00     0.001 A 
HETATM   43  C   UNL     1      43.107 -18.985   2.217  1.00  0.00     0.009 A 
ENDBRANCH  37  38
ENDBRANCH  34  37
ENDBRANCH  33  34
ENDBRANCH  31  33
ENDBRANCH   1  28
TORSDOF 9
ENDMDL
MODEL 8
REMARK VINA RESULT:      -9.1      3.449      5.796
REMARK  9 active torsions:
REMARK  status: ('A' for Active; 'I' for Inactive)
REMARK    1  A    between atoms: N_2  and  C_4 
REMARK    2  A    between atoms: N_2  and  C_35 
REMARK    3  A    between atoms: C_4  and  C_5 
REMARK    4  A    between atoms: N_8  and  C_9 
REMARK    5  A    between atoms: C_12  and  N_13 
REMARK       I    between atoms: N_13  and  C_14 
REMARK       I    between atoms: C_14  and  N_15 
REMARK    6  A    between atoms: N_15  and  C_16 
REMARK    7  A    between atoms: C_19  and  O_20 
REMARK    8  A    between atoms: O_20  and  C_21 
REMARK    9  A    between atoms: C_35  and  C_36 
ROOT
HETATM    1  C   UNL     1      42.787  -9.060  11.362  1.00  0.00     0.161 C 
HETATM    2  C   UNL     1      42.707  -9.350   9.867  1.00  0.00     0.179 C 
HETATM    3  C   UNL     1      43.863 -10.310   9.642  1.00  0.00     0.177 C 
HETATM    4  C   UNL     1      44.979  -9.453   9.050  1.00  0.00     0.141 C 
HETATM    5  C   UNL     1      44.359  -8.076   8.833  1.00  0.00     0.196 C 
HETATM    6  O   UNL     1      42.942  -8.195   9.050  1.00  0.00    -0.379 OA
HETATM    7  O   UNL     1      44.265 -10.841  10.918  1.00  0.00    -0.379 OA
HETATM    8  C   UNL     1      43.342 -10.365  11.905  1.00  0.00     0.198 C 
ENDROOT
BRANCH   4   9
HETATM    9  N   UNL     1      45.617 -10.055   7.887  1.00  0.00    -0.334 N 
HETATM   10  C   UNL     1      45.320 -11.125   7.107  1.00  0.00     0.321 C 
HETATM   11  N   UNL     1      44.070 -11.666   7.225  1.00  0.00    -0.309 N 
HETATM   12  O   UNL     1      46.209 -11.501   6.349  1.00  0.00    -0.247 OA
HETATM   13  H   UNL     1      43.370 -11.117   7.695  1.00  0.00     0.170 HD
HETATM   14  H   UNL     1      46.585  -9.793   7.728  1.00  0.00     0.164 HD
BRANCH  11  15
HETATM   15  C   UNL     1      43.579 -12.759   6.468  1.00  0.00     0.036 A 
HETATM   16  C   UNL     1      43.250 -12.670   5.114  1.00  0.00     0.032 A 
HETATM   17  C   UNL     1      42.706 -13.766   4.439  1.00  0.00     0.039 A 
HETATM   18  C   UNL     1      42.488 -14.974   5.102  1.00  0.00     0.076 A 
HETATM   19  C   UNL     1      42.836 -15.081   6.449  1.00  0.00     0.039 A 
HETATM   20  C   UNL     1      43.394 -13.985   7.122  1.00  0.00     0.032 A 
BRANCH  18  21
HETATM   21  O   UNL     1      41.871 -15.943   4.345  1.00  0.00    -0.311 OA
BRANCH  21  22
HETATM   22  C   UNL     1      42.619 -16.968   3.828  1.00  0.00     0.076 A 
HETATM   23  C   UNL     1      43.563 -17.566   4.663  1.00  0.00     0.037 A 
HETATM   24  C   UNL     1      44.283 -18.675   4.214  1.00  0.00     0.003 A 
HETATM   25  C   UNL     1      44.044 -19.188   2.939  1.00  0.00     0.000 A 
HETATM   26  C   UNL     1      43.082 -18.599   2.114  1.00  0.00     0.003 A 
HETATM   27  C   UNL     1      42.360 -17.494   2.563  1.00  0.00     0.037 A 
ENDBRANCH  21  22
ENDBRANCH  18  21
ENDBRANCH  11  15
ENDBRANCH   4   9
BRANCH   1  28
HETATM   28  N   UNL     1      41.549  -8.651  11.976  1.00  0.00    -0.274 N 
HETATM   29  N   UNL     1      40.780  -9.519  12.657  1.00  0.00     0.005 NA
HETATM   30  N   UNL     1      39.766  -8.848  13.181  1.00  0.00    -0.161 NA
HETATM   31  C   UNL     1      39.903  -7.531  12.831  1.00  0.00     0.095 A 
HETATM   32  C   UNL     1      41.038  -7.384  12.065  1.00  0.00     0.139 A 
BRANCH  31  33
HETATM   33  C   UNL     1      38.911  -6.533  13.305  1.00  0.00     0.296 C 
BRANCH  33  34
HETATM   34  N   UNL     1      39.010  -6.237  14.788  1.00  0.00    -0.066 N 
HETATM   35  C   UNL     1      38.101  -5.116  15.195  1.00  0.00     0.270 C 
HETATM   36  H   UNL     1      38.678  -7.092  15.256  1.00  0.00     0.280 HD
BRANCH  34  37
HETATM   37  C   UNL     1      40.442  -6.048  15.239  1.00  0.00     0.273 C 
BRANCH  37  38
HETATM   38  C   UNL     1      40.730  -6.605  16.607  1.00  0.00    -0.033 A 
HETATM   39  C   UNL     1      42.033  -6.582  17.131  1.00  0.00     0.009 A 
HETATM   40  C   UNL     1      42.296  -7.131  18.388  1.00  0.00     0.001 A 
HETATM   41  C   UNL     1      41.267  -7.701  19.134  1.00  0.00     0.000 A 
HETATM   42  C   UNL     1      39.969  -7.720  18.629  1.00  0.00     0.001 A 
HETATM   43  C   UNL     1      39.700  -7.175  17.373  1.00  0.00     0.009 A 
ENDBRANCH  37  38
ENDBRANCH  34  37
ENDBRANCH  33  34
ENDBRANCH  31  33
ENDBRANCH   1  28
TORSDOF 9
ENDMDL
MODEL 9
REMARK VINA RESULT:      -9.1      5.760     10.561
REMARK  9 active torsions:
REMARK  status: ('A' for Active; 'I' for Inactive)
REMARK    1  A    between atoms: N_2  and  C_4 
REMARK    2  A    between atoms: N_2  and  C_35 
REMARK    3  A    between atoms: C_4  and  C_5 
REMARK    4  A    between atoms: N_8  and  C_9 
REMARK    5  A    between atoms: C_12  and  N_13 
REMARK       I    between atoms: N_13  and  C_14 
REMARK       I    between atoms: C_14  and  N_15 
REMARK    6  A    between atoms: N_15  and  C_16 
REMARK    7  A    between atoms: C_19  and  O_20 
REMARK    8  A    between atoms: O_20  and  C_21 
REMARK    9  A    between atoms: C_35  and  C_36 
ROOT
HETATM    1  C   UNL     1      40.248 -13.665   2.449  1.00  0.00     0.161 C 
HETATM    2  C   UNL     1      41.127 -13.850   1.218  1.00  0.00     0.179 C 
HETATM    3  C   UNL     1      41.103 -12.476   0.571  1.00  0.00     0.177 C 
HETATM    4  C   UNL     1      40.098 -12.594  -0.573  1.00  0.00     0.141 C 
HETATM    5  C   UNL     1      39.705 -14.067  -0.612  1.00  0.00     0.196 C 
HETATM    6  O   UNL     1      40.589 -14.781   0.269  1.00  0.00    -0.379 OA
HETATM    7  O   UNL     1      40.639 -11.524   1.546  1.00  0.00    -0.379 OA
HETATM    8  C   UNL     1      40.497 -12.209   2.797  1.00  0.00     0.198 C 
ENDROOT
BRANCH   4   9
HETATM    9  N   UNL     1      40.579 -12.029  -1.827  1.00  0.00    -0.334 N 
HETATM   10  C   UNL     1      41.011 -10.795  -2.191  1.00  0.00     0.321 C 
HETATM   11  N   UNL     1      41.302  -9.907  -1.193  1.00  0.00    -0.309 N 
HETATM   12  O   UNL     1      41.115 -10.596  -3.398  1.00  0.00    -0.247 OA
HETATM   13  H   UNL     1      41.408 -10.274  -0.263  1.00  0.00     0.170 HD
HETATM   14  H   UNL     1      40.357 -12.559  -2.664  1.00  0.00     0.164 HD
BRANCH  11  15
HETATM   15  C   UNL     1      41.797  -8.593  -1.389  1.00  0.00     0.036 A 
HETATM   16  C   UNL     1      43.130  -8.310  -1.692  1.00  0.00     0.032 A 
HETATM   17  C   UNL     1      43.570  -6.989  -1.806  1.00  0.00     0.039 A 
HETATM   18  C   UNL     1      42.685  -5.926  -1.628  1.00  0.00     0.076 A 
HETATM   19  C   UNL     1      41.345  -6.197  -1.349  1.00  0.00     0.039 A 
HETATM   20  C   UNL     1      40.901  -7.524  -1.248  1.00  0.00     0.032 A 
BRANCH  18  21
HETATM   21  O   UNL     1      43.265  -4.679  -1.685  1.00  0.00    -0.311 OA
BRANCH  21  22
HETATM   22  C   UNL     1      44.109  -4.286  -0.680  1.00  0.00     0.076 A 
HETATM   23  C   UNL     1      45.076  -3.328  -0.982  1.00  0.00     0.037 A 
HETATM   24  C   UNL     1      45.897  -2.828   0.030  1.00  0.00     0.003 A 
HETATM   25  C   UNL     1      45.736  -3.277   1.341  1.00  0.00     0.000 A 
HETATM   26  C   UNL     1      44.752  -4.221   1.643  1.00  0.00     0.003 A 
HETATM   27  C   UNL     1      43.929  -4.719   0.634  1.00  0.00     0.037 A 
ENDBRANCH  21  22
ENDBRANCH  18  21
ENDBRANCH  11  15
ENDBRANCH   4   9
BRANCH   1  28
HETATM   28  N   UNL     1      40.509 -14.579   3.534  1.00  0.00    -0.274 N 
HETATM   29  N   UNL     1      40.126 -15.867   3.477  1.00  0.00     0.005 NA
HETATM   30  N   UNL     1      40.577 -16.478   4.561  1.00  0.00    -0.161 NA
HETATM   31  C   UNL     1      41.263 -15.561   5.312  1.00  0.00     0.095 A 
HETATM   32  C   UNL     1      41.235 -14.342   4.670  1.00  0.00     0.139 A 
BRANCH  31  33
HETATM   33  C   UNL     1      41.903 -15.977   6.586  1.00  0.00     0.296 C 
BRANCH  33  34
HETATM   34  N   UNL     1      43.013 -16.993   6.401  1.00  0.00    -0.066 N 
HETATM   35  C   UNL     1      43.973 -16.985   7.553  1.00  0.00     0.270 C 
HETATM   36  H   UNL     1      42.542 -17.909   6.395  1.00  0.00     0.280 HD
BRANCH  34  37
HETATM   37  C   UNL     1      43.687 -16.866   5.052  1.00  0.00     0.273 C 
BRANCH  37  38
HETATM   38  C   UNL     1      43.678 -18.135   4.243  1.00  0.00    -0.033 A 
HETATM   39  C   UNL     1      44.035 -19.361   4.827  1.00  0.00     0.009 A 
HETATM   40  C   UNL     1      44.055 -20.527   4.060  1.00  0.00     0.001 A 
HETATM   41  C   UNL     1      43.716 -20.484   2.709  1.00  0.00     0.000 A 
HETATM   42  C   UNL     1      43.351 -19.275   2.121  1.00  0.00     0.001 A 
HETATM   43  C   UNL     1      43.331 -18.106   2.882  1.00  0.00     0.009 A 
ENDBRANCH  37  38
ENDBRANCH  34  37
ENDBRANCH  33  34
ENDBRANCH  31  33
ENDBRANCH   1  28
TORSDOF 9
ENDMDL
MODEL 10
REMARK VINA RESULT:      -9.0      3.523     12.261
REMARK  9 active torsions:
REMARK  status: ('A' for Active; 'I' for Inactive)
REMARK    1  A    between atoms: N_2  and  C_4 
REMARK    2  A    between atoms: N_2  and  C_35 
REMARK    3  A    between atoms: C_4  and  C_5 
REMARK    4  A    between atoms: N_8  and  C_9 
REMARK    5  A    between atoms: C_12  and  N_13 
REMARK       I    between atoms: N_13  and  C_14 
REMARK       I    between atoms: C_14  and  N_15 
REMARK    6  A    between atoms: N_15  and  C_16 
REMARK    7  A    between atoms: C_19  and  O_20 
REMARK    8  A    between atoms: O_20  and  C_21 
REMARK    9  A    between atoms: C_35  and  C_36 
ROOT
HETATM    1  C   UNL     1      42.548 -12.415   5.657  1.00  0.00     0.161 C 
HETATM    2  C   UNL     1      43.621 -11.369   5.937  1.00  0.00     0.179 C 
HETATM    3  C   UNL     1      44.222 -11.839   7.252  1.00  0.00     0.177 C 
HETATM    4  C   UNL     1      43.587 -10.949   8.317  1.00  0.00     0.141 C 
HETATM    5  C   UNL     1      42.763  -9.922   7.547  1.00  0.00     0.196 C 
HETATM    6  O   UNL     1      43.092 -10.054   6.153  1.00  0.00    -0.379 OA
HETATM    7  O   UNL     1      43.844 -13.212   7.457  1.00  0.00    -0.379 OA
HETATM    8  C   UNL     1      43.152 -13.659   6.285  1.00  0.00     0.198 C 
ENDROOT
BRANCH   4   9
HETATM    9  N   UNL     1      44.548 -10.410   9.271  1.00  0.00    -0.334 N 
HETATM   10  C   UNL     1      44.425  -9.700  10.421  1.00  0.00     0.321 C 
HETATM   11  N   UNL     1      43.186  -9.630  10.992  1.00  0.00    -0.309 N 
HETATM   12  O   UNL     1      45.457  -9.195  10.853  1.00  0.00    -0.247 OA
HETATM   13  H   UNL     1      42.491 -10.284  10.673  1.00  0.00     0.170 HD
HETATM   14  H   UNL     1      45.505 -10.335   8.939  1.00  0.00     0.164 HD
BRANCH  11  15
HETATM   15  C   UNL     1      42.883  -8.964  12.206  1.00  0.00     0.036 A 
HETATM   16  C   UNL     1      43.332  -7.677  12.511  1.00  0.00     0.032 A 
HETATM   17  C   UNL     1      43.056  -7.102  13.754  1.00  0.00     0.039 A 
HETATM   18  C   UNL     1      42.319  -7.797  14.713  1.00  0.00     0.076 A 
HETATM   19  C   UNL     1      41.844  -9.073  14.410  1.00  0.00     0.039 A 
HETATM   20  C   UNL     1      42.110  -9.645  13.157  1.00  0.00     0.032 A 
BRANCH  18  21
HETATM   21  O   UNL     1      42.192  -7.150  15.920  1.00  0.00    -0.311 OA
BRANCH  21  22
HETATM   22  C   UNL     1      41.089  -6.370  16.151  1.00  0.00     0.076 A 
HETATM   23  C   UNL     1      41.271  -5.181  16.858  1.00  0.00     0.037 A 
HETATM   24  C   UNL     1      40.196  -4.309  17.036  1.00  0.00     0.003 A 
HETATM   25  C   UNL     1      38.950  -4.623  16.494  1.00  0.00     0.000 A 
HETATM   26  C   UNL     1      38.777  -5.804  15.769  1.00  0.00     0.003 A 
HETATM   27  C   UNL     1      39.850  -6.675  15.587  1.00  0.00     0.037 A 
ENDBRANCH  21  22
ENDBRANCH  18  21
ENDBRANCH  11  15
ENDBRANCH   4   9
BRANCH   1  28
HETATM   28  N   UNL     1      42.192 -12.574   4.269  1.00  0.00    -0.274 N 
HETATM   29  N   UNL     1      43.128 -12.729   3.316  1.00  0.00     0.005 NA
HETATM   30  N   UNL     1      42.511 -12.943   2.164  1.00  0.00    -0.161 NA
HETATM   31  C   UNL     1      41.162 -12.930   2.397  1.00  0.00     0.095 A 
HETATM   32  C   UNL     1      40.938 -12.701   3.737  1.00  0.00     0.139 A 
BRANCH  31  33
HETATM   33  C   UNL     1      40.216 -13.168   1.278  1.00  0.00     0.296 C 
BRANCH  33  34
HETATM   34  N   UNL     1      40.357 -14.540   0.647  1.00  0.00    -0.066 N 
HETATM   35  C   UNL     1      39.652 -14.621  -0.674  1.00  0.00     0.270 C 
HETATM   36  H   UNL     1      41.366 -14.651   0.468  1.00  0.00     0.280 HD
BRANCH  34  37
HETATM   37  C   UNL     1      39.981 -15.651   1.602  1.00  0.00     0.273 C 
BRANCH  37  38
HETATM   38  C   UNL     1      41.134 -16.173   2.417  1.00  0.00    -0.033 A 
HETATM   39  C   UNL     1      42.326 -16.578   1.796  1.00  0.00     0.009 A 
HETATM   40  C   UNL     1      43.378 -17.092   2.557  1.00  0.00     0.001 A 
HETATM   41  C   UNL     1      43.255 -17.200   3.940  1.00  0.00     0.000 A 
HETATM   42  C   UNL     1      42.081 -16.792   4.569  1.00  0.00     0.001 A 
HETATM   43  C   UNL     1      41.025 -16.281   3.813  1.00  0.00     0.009 A 
ENDBRANCH  37  38
ENDBRANCH  34  37
ENDBRANCH  33  34
ENDBRANCH  31  33
ENDBRANCH   1  28
TORSDOF 9
ENDMDL
