MODEL 1
REMARK VINA RESULT:      -7.6      0.000      0.000
REMARK  5 active torsions:
REMARK  status: ('A' for Active; 'I' for Inactive)
REMARK    1  A    between atoms: C_2  and  C_3 
REMARK       I    between atoms: C_3  and  N_4 
REMARK    2  A    between atoms: N_4  and  C_5 
REMARK    3  A    between atoms: C_5  and  C_6 
REMARK    4  A    between atoms: C_5  and  C_17 
REMARK    5  A    between atoms: C_7  and  O_8 
ROOT
HETATM    1  C   UNL     1      42.686 -13.325   5.749  1.00  0.00     0.154 C 
ENDROOT
BRANCH   1   2
HETATM    2  N   UNL     1      43.911 -12.542   5.663  1.00  0.00    -0.348 N 
HETATM    3  C   UNL     1      44.519 -12.050   6.792  1.00  0.00     0.218 C 
HETATM    4  O   UNL     1      44.062 -12.223   7.920  1.00  0.00    -0.274 OA
HETATM    5  H   UNL     1      44.492 -12.689   4.851  1.00  0.00     0.163 HD
BRANCH   3   6
HETATM    6  C   UNL     1      45.844 -11.352   6.564  1.00  0.00     0.098 C 
HETATM    7  C   UNL     1      46.267 -10.446   7.710  1.00  0.00     0.014 C 
ENDBRANCH   3   6
ENDBRANCH   1   2
BRANCH   1   8
HETATM    8  C   UNL     1      42.816 -14.557   4.862  1.00  0.00     0.005 A 
HETATM    9  C   UNL     1      43.488 -15.715   5.304  1.00  0.00     0.103 A 
HETATM   10  C   UNL     1      43.618 -16.873   4.517  1.00  0.00     0.100 A 
HETATM   11  C   UNL     1      43.066 -16.839   3.219  1.00  0.00    -0.004 A 
HETATM   12  N   UNL     1      44.260 -17.977   4.969  1.00  0.00    -0.257 NA
HETATM   13  C   UNL     1      42.416 -15.687   2.749  1.00  0.00     0.014 A 
HETATM   14  C   UNL     1      43.182 -17.976   2.409  1.00  0.00     0.015 A 
HETATM   15  C   UNL     1      42.297 -14.558   3.558  1.00  0.00     0.013 A 
HETATM   16  C   UNL     1      43.835 -19.105   2.887  1.00  0.00     0.020 A 
HETATM   17  C   UNL     1      44.352 -19.055   4.164  1.00  0.00     0.117 A 
BRANCH   9  18
HETATM   18  O   UNL     1      44.039 -15.734   6.569  1.00  0.00    -0.358 OA
HETATM   19  H   UNL     1      43.823 -14.884   7.013  1.00  0.00     0.218 HD
ENDBRANCH   9  18
ENDBRANCH   1   8
BRANCH   1  20
HETATM   20  C   UNL     1      41.426 -12.501   5.480  1.00  0.00    -0.031 A 
HETATM   21  C   UNL     1      41.551 -11.315   4.731  1.00  0.00     0.009 A 
HETATM   22  C   UNL     1      40.441 -10.516   4.456  1.00  0.00     0.001 A 
HETATM   23  C   UNL     1      39.185 -10.884   4.930  1.00  0.00     0.000 A 
HETATM   24  C   UNL     1      39.040 -12.049   5.678  1.00  0.00     0.001 A 
HETATM   25  C   UNL     1      40.150 -12.854   5.951  1.00  0.00     0.009 A 
ENDBRANCH   1  20
TORSDOF 5
ENDMDL
MODEL 2
REMARK VINA RESULT:      -7.5      2.174      3.300
REMARK  5 active torsions:
REMARK  status: ('A' for Active; 'I' for Inactive)
REMARK    1  A    between atoms: C_2  and  C_3 
REMARK       I    between atoms: C_3  and  N_4 
REMARK    2  A    between atoms: N_4  and  C_5 
REMARK    3  A    between atoms: C_5  and  C_6 
REMARK    4  A    between atoms: C_5  and  C_17 
REMARK    5  A    between atoms: C_7  and  O_8 
ROOT
HETATM    1  C   UNL     1      41.926 -14.522   3.377  1.00  0.00     0.154 C 
ENDROOT
BRANCH   1   2
HETATM    2  N   UNL     1      42.924 -13.527   3.742  1.00  0.00    -0.348 N 
HETATM    3  C   UNL     1      42.798 -12.785   4.892  1.00  0.00     0.218 C 
HETATM    4  O   UNL     1      41.842 -12.905   5.657  1.00  0.00    -0.274 OA
HETATM    5  H   UNL     1      43.853 -13.654   3.373  1.00  0.00     0.163 HD
BRANCH   3   6
HETATM    6  C   UNL     1      43.963 -11.870   5.204  1.00  0.00     0.098 C 
HETATM    7  C   UNL     1      44.618 -12.145   6.549  1.00  0.00     0.014 C 
ENDBRANCH   3   6
ENDBRANCH   1   2
BRANCH   1   8
HETATM    8  C   UNL     1      42.528 -15.914   3.528  1.00  0.00     0.005 A 
HETATM    9  C   UNL     1      42.597 -16.553   4.783  1.00  0.00     0.103 A 
HETATM   10  C   UNL     1      43.136 -17.840   4.959  1.00  0.00     0.100 A 
HETATM   11  C   UNL     1      43.650 -18.488   3.815  1.00  0.00    -0.004 A 
HETATM   12  N   UNL     1      43.181 -18.437   6.174  1.00  0.00    -0.257 NA
HETATM   13  C   UNL     1      43.616 -17.859   2.561  1.00  0.00     0.014 A 
HETATM   14  C   UNL     1      44.198 -19.770   3.958  1.00  0.00     0.015 A 
HETATM   15  C   UNL     1      43.067 -16.585   2.421  1.00  0.00     0.013 A 
HETATM   16  C   UNL     1      44.230 -20.375   5.207  1.00  0.00     0.020 A 
HETATM   17  C   UNL     1      43.713 -19.673   6.276  1.00  0.00     0.117 A 
BRANCH   9  18
HETATM   18  O   UNL     1      42.106 -15.906   5.898  1.00  0.00    -0.358 OA
HETATM   19  H   UNL     1      41.422 -15.263   5.607  1.00  0.00     0.218 HD
ENDBRANCH   9  18
ENDBRANCH   1   8
BRANCH   1  20
HETATM   20  C   UNL     1      41.296 -14.269   2.006  1.00  0.00    -0.031 A 
HETATM   21  C   UNL     1      41.578 -13.051   1.358  1.00  0.00     0.009 A 
HETATM   22  C   UNL     1      41.031 -12.755   0.109  1.00  0.00     0.001 A 
HETATM   23  C   UNL     1      40.186 -13.669  -0.513  1.00  0.00     0.000 A 
HETATM   24  C   UNL     1      39.889 -14.877   0.113  1.00  0.00     0.001 A 
HETATM   25  C   UNL     1      40.440 -15.177   1.363  1.00  0.00     0.009 A 
ENDBRANCH   1  20
TORSDOF 5
ENDMDL
MODEL 3
REMARK VINA RESULT:      -7.5      3.447      6.259
REMARK  5 active torsions:
REMARK  status: ('A' for Active; 'I' for Inactive)
REMARK    1  A    between atoms: C_2  and  C_3 
REMARK       I    between atoms: C_3  and  N_4 
REMARK    2  A    between atoms: N_4  and  C_5 
REMARK    3  A    between atoms: C_5  and  C_6 
REMARK    4  A    between atoms: C_5  and  C_17 
REMARK    5  A    between atoms: C_7  and  O_8 
ROOT
HETATM    1  C   UNL     1      42.143 -15.032   3.516  1.00  0.00     0.154 C 
ENDROOT
BRANCH   1   2
HETATM    2  N   UNL     1      41.260 -14.704   4.626  1.00  0.00    -0.348 N 
HETATM    3  C   UNL     1      41.202 -13.429   5.133  1.00  0.00     0.218 C 
HETATM    4  O   UNL     1      41.894 -12.510   4.697  1.00  0.00    -0.274 OA
HETATM    5  H   UNL     1      40.451 -15.291   4.755  1.00  0.00     0.163 HD
BRANCH   3   6
HETATM    6  C   UNL     1      40.161 -13.205   6.210  1.00  0.00     0.098 C 
HETATM    7  C   UNL     1      39.389 -11.904   6.058  1.00  0.00     0.014 C 
ENDBRANCH   3   6
ENDBRANCH   1   2
BRANCH   1   8
HETATM    8  C   UNL     1      41.375 -14.892   2.207  1.00  0.00     0.005 A 
HETATM    9  C   UNL     1      41.508 -13.746   1.396  1.00  0.00     0.103 A 
HETATM   10  C   UNL     1      40.823 -13.587   0.178  1.00  0.00     0.100 A 
HETATM   11  C   UNL     1      39.949 -14.623  -0.214  1.00  0.00    -0.004 A 
HETATM   12  N   UNL     1      40.976 -12.481  -0.589  1.00  0.00    -0.257 NA
HETATM   13  C   UNL     1      39.782 -15.760   0.592  1.00  0.00     0.014 A 
HETATM   14  C   UNL     1      39.249 -14.492  -1.421  1.00  0.00     0.015 A 
HETATM   15  C   UNL     1      40.482 -15.890   1.790  1.00  0.00     0.013 A 
HETATM   16  C   UNL     1      39.421 -13.357  -2.203  1.00  0.00     0.020 A 
HETATM   17  C   UNL     1      40.289 -12.388  -1.747  1.00  0.00     0.117 A 
BRANCH   9  18
HETATM   18  O   UNL     1      42.353 -12.731   1.794  1.00  0.00    -0.358 OA
HETATM   19  H   UNL     1      41.835 -11.896   1.833  1.00  0.00     0.218 HD
ENDBRANCH   9  18
ENDBRANCH   1   8
BRANCH   1  20
HETATM   20  C   UNL     1      42.840 -16.384   3.679  1.00  0.00    -0.031 A 
HETATM   21  C   UNL     1      43.101 -16.846   4.984  1.00  0.00     0.009 A 
HETATM   22  C   UNL     1      43.738 -18.068   5.202  1.00  0.00     0.001 A 
HETATM   23  C   UNL     1      44.134 -18.848   4.120  1.00  0.00     0.000 A 
HETATM   24  C   UNL     1      43.892 -18.407   2.822  1.00  0.00     0.001 A 
HETATM   25  C   UNL     1      43.249 -17.185   2.600  1.00  0.00     0.009 A 
ENDBRANCH   1  20
TORSDOF 5
ENDMDL
MODEL 4
REMARK VINA RESULT:      -7.5      2.928      4.060
REMARK  5 active torsions:
REMARK  status: ('A' for Active; 'I' for Inactive)
REMARK    1  A    between atoms: C_2  and  C_3 
REMARK       I    between atoms: C_3  and  N_4 
REMARK    2  A    between atoms: N_4  and  C_5 
REMARK    3  A    between atoms: C_5  and  C_6 
REMARK    4  A    between atoms: C_5  and  C_17 
REMARK    5  A    between atoms: C_7  and  O_8 
ROOT
HETATM    1  C   UNL     1      41.197 -13.944   2.262  1.00  0.00     0.154 C 
ENDROOT
BRANCH   1   2
HETATM    2  N   UNL     1      41.991 -12.774   2.611  1.00  0.00    -0.348 N 
HETATM    3  C   UNL     1      41.646 -11.976   3.674  1.00  0.00     0.218 C 
HETATM    4  O   UNL     1      40.654 -12.188   4.369  1.00  0.00    -0.274 OA
HETATM    5  H   UNL     1      42.959 -12.777   2.330  1.00  0.00     0.163 HD
BRANCH   3   6
HETATM    6  C   UNL     1      42.622 -10.861   3.992  1.00  0.00     0.098 C 
HETATM    7  C   UNL     1      43.596 -11.197   5.110  1.00  0.00     0.014 C 
ENDBRANCH   3   6
ENDBRANCH   1   2
BRANCH   1   8
HETATM    8  C   UNL     1      41.978 -15.203   2.617  1.00  0.00     0.005 A 
HETATM    9  C   UNL     1      42.040 -15.680   3.942  1.00  0.00     0.103 A 
HETATM   10  C   UNL     1      42.743 -16.843   4.306  1.00  0.00     0.100 A 
HETATM   11  C   UNL     1      43.429 -17.531   3.282  1.00  0.00    -0.004 A 
HETATM   12  N   UNL     1      42.778 -17.287   5.585  1.00  0.00    -0.257 NA
HETATM   13  C   UNL     1      43.402 -17.058   1.961  1.00  0.00     0.014 A 
HETATM   14  C   UNL     1      44.141 -18.692   3.613  1.00  0.00     0.015 A 
HETATM   15  C   UNL     1      42.690 -15.906   1.634  1.00  0.00     0.013 A 
HETATM   16  C   UNL     1      44.164 -19.141   4.927  1.00  0.00     0.020 A 
HETATM   17  C   UNL     1      43.471 -18.410   5.868  1.00  0.00     0.117 A 
BRANCH   9  18
HETATM   18  O   UNL     1      41.379 -14.993   4.939  1.00  0.00    -0.358 OA
HETATM   19  H   UNL     1      40.433 -14.912   4.683  1.00  0.00     0.218 HD
ENDBRANCH   9  18
ENDBRANCH   1   8
BRANCH   1  20
HETATM   20  C   UNL     1      40.692 -13.919   0.818  1.00  0.00    -0.031 A 
HETATM   21  C   UNL     1      41.016 -12.806   0.018  1.00  0.00     0.009 A 
HETATM   22  C   UNL     1      40.581 -12.719  -1.306  1.00  0.00     0.001 A 
HETATM   23  C   UNL     1      39.809 -13.740  -1.852  1.00  0.00     0.000 A 
HETATM   24  C   UNL     1      39.472 -14.845  -1.076  1.00  0.00     0.001 A 
HETATM   25  C   UNL     1      39.910 -14.937   0.249  1.00  0.00     0.009 A 
ENDBRANCH   1  20
TORSDOF 5
ENDMDL
MODEL 5
REMARK VINA RESULT:      -7.4      1.934      4.298
REMARK  5 active torsions:
REMARK  status: ('A' for Active; 'I' for Inactive)
REMARK    1  A    between atoms: C_2  and  C_3 
REMARK       I    between atoms: C_3  and  N_4 
REMARK    2  A    between atoms: N_4  and  C_5 
REMARK    3  A    between atoms: C_5  and  C_6 
REMARK    4  A    between atoms: C_5  and  C_17 
REMARK    5  A    between atoms: C_7  and  O_8 
ROOT
HETATM    1  C   UNL     1      42.961 -12.234   5.763  1.00  0.00     0.154 C 
ENDROOT
BRANCH   1   2
HETATM    2  N   UNL     1      41.610 -12.069   6.280  1.00  0.00    -0.348 N 
HETATM    3  C   UNL     1      40.590 -11.634   5.470  1.00  0.00     0.218 C 
HETATM    4  O   UNL     1      40.759 -11.347   4.286  1.00  0.00    -0.274 OA
HETATM    5  H   UNL     1      41.358 -12.620   7.086  1.00  0.00     0.163 HD
BRANCH   3   6
HETATM    6  C   UNL     1      39.216 -11.617   6.109  1.00  0.00     0.098 C 
HETATM    7  C   UNL     1      39.112 -10.698   7.316  1.00  0.00     0.014 C 
ENDBRANCH   3   6
ENDBRANCH   1   2
BRANCH   1   8
HETATM    8  C   UNL     1      43.211 -13.709   5.474  1.00  0.00     0.005 A 
HETATM    9  C   UNL     1      42.984 -14.257   4.194  1.00  0.00     0.103 A 
HETATM   10  C   UNL     1      43.211 -15.610   3.888  1.00  0.00     0.100 A 
HETATM   11  C   UNL     1      43.662 -16.443   4.935  1.00  0.00    -0.004 A 
HETATM   12  N   UNL     1      42.996 -16.110   2.648  1.00  0.00    -0.257 NA
HETATM   13  C   UNL     1      43.869 -15.925   6.222  1.00  0.00     0.014 A 
HETATM   14  C   UNL     1      43.896 -17.798   4.662  1.00  0.00     0.015 A 
HETATM   15  C   UNL     1      43.641 -14.576   6.490  1.00  0.00     0.013 A 
HETATM   16  C   UNL     1      43.679 -18.296   3.385  1.00  0.00     0.020 A 
HETATM   17  C   UNL     1      43.233 -17.418   2.419  1.00  0.00     0.117 A 
BRANCH   9  18
HETATM   18  O   UNL     1      42.528 -13.439   3.181  1.00  0.00    -0.358 OA
HETATM   19  H   UNL     1      42.222 -14.007   2.439  1.00  0.00     0.218 HD
ENDBRANCH   9  18
ENDBRANCH   1   8
BRANCH   1  20
HETATM   20  C   UNL     1      44.028 -11.591   6.651  1.00  0.00    -0.031 A 
HETATM   21  C   UNL     1      43.637 -11.093   7.908  1.00  0.00     0.009 A 
HETATM   22  C   UNL     1      44.560 -10.490   8.764  1.00  0.00     0.001 A 
HETATM   23  C   UNL     1      45.891 -10.369   8.375  1.00  0.00     0.000 A 
HETATM   24  C   UNL     1      46.297 -10.849   7.134  1.00  0.00     0.001 A 
HETATM   25  C   UNL     1      45.375 -11.457   6.276  1.00  0.00     0.009 A 
ENDBRANCH   1  20
TORSDOF 5
ENDMDL
MODEL 6
REMARK VINA RESULT:      -7.2      2.719      6.965
REMARK  5 active torsions:
REMARK  status: ('A' for Active; 'I' for Inactive)
REMARK    1  A    between atoms: C_2  and  C_3 
REMARK       I    between atoms: C_3  and  N_4 
REMARK    2  A    between atoms: N_4  and  C_5 
REMARK    3  A    between atoms: C_5  and  C_6 
REMARK    4  A    between atoms: C_5  and  C_17 
REMARK    5  A    between atoms: C_7  and  O_8 
ROOT
HETATM    1  C   UNL     1      41.568 -15.770   3.143  1.00  0.00     0.154 C 
ENDROOT
BRANCH   1   2
HETATM    2  N   UNL     1      41.242 -15.673   1.727  1.00  0.00    -0.348 N 
HETATM    3  C   UNL     1      40.056 -15.119   1.309  1.00  0.00     0.218 C 
HETATM    4  O   UNL     1      39.208 -14.697   2.093  1.00  0.00    -0.274 OA
HETATM    5  H   UNL     1      42.014 -15.656   1.080  1.00  0.00     0.163 HD
BRANCH   3   6
HETATM    6  C   UNL     1      39.898 -14.981  -0.191  1.00  0.00     0.098 C 
HETATM    7  C   UNL     1      40.249 -13.599  -0.721  1.00  0.00     0.014 C 
ENDBRANCH   3   6
ENDBRANCH   1   2
BRANCH   1   8
HETATM    8  C   UNL     1      41.942 -14.389   3.666  1.00  0.00     0.005 A 
HETATM    9  C   UNL     1      41.154 -13.731   4.633  1.00  0.00     0.103 A 
HETATM   10  C   UNL     1      41.473 -12.460   5.146  1.00  0.00     0.100 A 
HETATM   11  C   UNL     1      42.625 -11.826   4.633  1.00  0.00    -0.004 A 
HETATM   12  N   UNL     1      40.706 -11.854   6.083  1.00  0.00    -0.257 NA
HETATM   13  C   UNL     1      43.408 -12.452   3.651  1.00  0.00     0.014 A 
HETATM   14  C   UNL     1      42.968 -10.558   5.122  1.00  0.00     0.015 A 
HETATM   15  C   UNL     1      43.067 -13.715   3.170  1.00  0.00     0.013 A 
HETATM   16  C   UNL     1      42.178  -9.950   6.088  1.00  0.00     0.020 A 
HETATM   17  C   UNL     1      41.066 -10.634   6.533  1.00  0.00     0.117 A 
BRANCH   9  18
HETATM   18  O   UNL     1      40.021 -14.351   5.118  1.00  0.00    -0.358 OA
HETATM   19  H   UNL     1      39.419 -13.660   5.474  1.00  0.00     0.218 HD
ENDBRANCH   9  18
ENDBRANCH   1   8
BRANCH   1  20
HETATM   20  C   UNL     1      42.610 -16.848   3.449  1.00  0.00    -0.031 A 
HETATM   21  C   UNL     1      43.194 -16.866   4.730  1.00  0.00     0.009 A 
HETATM   22  C   UNL     1      44.154 -17.819   5.071  1.00  0.00     0.001 A 
HETATM   23  C   UNL     1      44.554 -18.768   4.135  1.00  0.00     0.000 A 
HETATM   24  C   UNL     1      43.994 -18.764   2.860  1.00  0.00     0.001 A 
HETATM   25  C   UNL     1      43.027 -17.813   2.518  1.00  0.00     0.009 A 
ENDBRANCH   1  20
TORSDOF 5
ENDMDL
MODEL 7
REMARK VINA RESULT:      -7.2     15.805     16.895
REMARK  5 active torsions:
REMARK  status: ('A' for Active; 'I' for Inactive)
REMARK    1  A    between atoms: C_2  and  C_3 
REMARK       I    between atoms: C_3  and  N_4 
REMARK    2  A    between atoms: N_4  and  C_5 
REMARK    3  A    between atoms: C_5  and  C_6 
REMARK    4  A    between atoms: C_5  and  C_17 
REMARK    5  A    between atoms: C_7  and  O_8 
ROOT
HETATM    1  C   UNL     1      45.431 -29.228   0.463  1.00  0.00     0.154 C 
ENDROOT
BRANCH   1   2
HETATM    2  N   UNL     1      46.632 -29.749   1.101  1.00  0.00    -0.348 N 
HETATM    3  C   UNL     1      47.385 -28.966   1.941  1.00  0.00     0.218 C 
HETATM    4  O   UNL     1      47.103 -27.794   2.185  1.00  0.00    -0.274 OA
HETATM    5  H   UNL     1      46.686 -30.748   1.227  1.00  0.00     0.163 HD
BRANCH   3   6
HETATM    6  C   UNL     1      48.541 -29.669   2.622  1.00  0.00     0.098 C 
HETATM    7  C   UNL     1      49.072 -28.938   3.845  1.00  0.00     0.014 C 
ENDBRANCH   3   6
ENDBRANCH   1   2
BRANCH   1   8
HETATM    8  C   UNL     1      44.219 -29.998   0.973  1.00  0.00     0.005 A 
HETATM    9  C   UNL     1      43.621 -29.691   2.213  1.00  0.00     0.103 A 
HETATM   10  C   UNL     1      42.496 -30.373   2.711  1.00  0.00     0.100 A 
HETATM   11  C   UNL     1      41.979 -31.426   1.927  1.00  0.00    -0.004 A 
HETATM   12  N   UNL     1      41.934 -30.051   3.900  1.00  0.00    -0.257 NA
HETATM   13  C   UNL     1      42.575 -31.766   0.703  1.00  0.00     0.014 A 
HETATM   14  C   UNL     1      40.860 -32.127   2.398  1.00  0.00     0.015 A 
HETATM   15  C   UNL     1      43.684 -31.064   0.235  1.00  0.00     0.013 A 
HETATM   16  C   UNL     1      40.287 -31.783   3.615  1.00  0.00     0.020 A 
HETATM   17  C   UNL     1      40.856 -30.745   4.323  1.00  0.00     0.117 A 
BRANCH   9  18
HETATM   18  O   UNL     1      44.143 -28.670   2.980  1.00  0.00    -0.358 OA
HETATM   19  H   UNL     1      45.111 -28.625   2.817  1.00  0.00     0.218 HD
ENDBRANCH   9  18
ENDBRANCH   1   8
BRANCH   1  20
HETATM   20  C   UNL     1      45.532 -29.179  -1.063  1.00  0.00    -0.031 A 
HETATM   21  C   UNL     1      44.900 -28.118  -1.739  1.00  0.00     0.009 A 
HETATM   22  C   UNL     1      44.950 -28.018  -3.130  1.00  0.00     0.001 A 
HETATM   23  C   UNL     1      45.627 -28.981  -3.871  1.00  0.00     0.000 A 
HETATM   24  C   UNL     1      46.254 -30.042  -3.223  1.00  0.00     0.001 A 
HETATM   25  C   UNL     1      46.209 -30.142  -1.829  1.00  0.00     0.009 A 
ENDBRANCH   1  20
TORSDOF 5
ENDMDL
MODEL 8
REMARK VINA RESULT:      -6.9     15.690     17.273
REMARK  5 active torsions:
REMARK  status: ('A' for Active; 'I' for Inactive)
REMARK    1  A    between atoms: C_2  and  C_3 
REMARK       I    between atoms: C_3  and  N_4 
REMARK    2  A    between atoms: N_4  and  C_5 
REMARK    3  A    between atoms: C_5  and  C_6 
REMARK    4  A    between atoms: C_5  and  C_17 
REMARK    5  A    between atoms: C_7  and  O_8 
ROOT
HETATM    1  C   UNL     1      44.487 -29.391   1.677  1.00  0.00     0.154 C 
ENDROOT
BRANCH   1   2
HETATM    2  N   UNL     1      43.449 -30.130   2.382  1.00  0.00    -0.348 N 
HETATM    3  C   UNL     1      42.122 -29.808   2.230  1.00  0.00     0.218 C 
HETATM    4  O   UNL     1      41.742 -28.881   1.516  1.00  0.00    -0.274 OA
HETATM    5  H   UNL     1      43.667 -31.075   2.659  1.00  0.00     0.163 HD
BRANCH   3   6
HETATM    6  C   UNL     1      41.146 -30.729   2.933  1.00  0.00     0.098 C 
HETATM    7  C   UNL     1      40.509 -31.763   2.018  1.00  0.00     0.014 C 
ENDBRANCH   3   6
ENDBRANCH   1   2
BRANCH   1   8
HETATM    8  C   UNL     1      44.547 -29.869   0.231  1.00  0.00     0.005 A 
HETATM    9  C   UNL     1      44.704 -28.962  -0.837  1.00  0.00     0.103 A 
HETATM   10  C   UNL     1      44.773 -29.367  -2.182  1.00  0.00     0.100 A 
HETATM   11  C   UNL     1      44.651 -30.747  -2.449  1.00  0.00    -0.004 A 
HETATM   12  N   UNL     1      44.935 -28.477  -3.190  1.00  0.00    -0.257 NA
HETATM   13  C   UNL     1      44.467 -31.665  -1.403  1.00  0.00     0.014 A 
HETATM   14  C   UNL     1      44.712 -31.182  -3.780  1.00  0.00     0.015 A 
HETATM   15  C   UNL     1      44.411 -31.230  -0.080  1.00  0.00     0.013 A 
HETATM   16  C   UNL     1      44.887 -30.261  -4.804  1.00  0.00     0.020 A 
HETATM   17  C   UNL     1      44.992 -28.930  -4.459  1.00  0.00     0.117 A 
BRANCH   9  18
HETATM   18  O   UNL     1      44.807 -27.613  -0.568  1.00  0.00    -0.358 OA
HETATM   19  H   UNL     1      44.559 -27.116  -1.379  1.00  0.00     0.218 HD
ENDBRANCH   9  18
ENDBRANCH   1   8
BRANCH   1  20
HETATM   20  C   UNL     1      45.839 -29.421   2.393  1.00  0.00    -0.031 A 
HETATM   21  C   UNL     1      46.045 -30.396   3.387  1.00  0.00     0.009 A 
HETATM   22  C   UNL     1      47.253 -30.474   4.082  1.00  0.00     0.001 A 
HETATM   23  C   UNL     1      48.276 -29.574   3.798  1.00  0.00     0.000 A 
HETATM   24  C   UNL     1      48.090 -28.598   2.823  1.00  0.00     0.001 A 
HETATM   25  C   UNL     1      46.882 -28.521   2.123  1.00  0.00     0.009 A 
ENDBRANCH   1  20
TORSDOF 5
ENDMDL
MODEL 9
REMARK VINA RESULT:      -6.9     16.177     18.348
REMARK  5 active torsions:
REMARK  status: ('A' for Active; 'I' for Inactive)
REMARK    1  A    between atoms: C_2  and  C_3 
REMARK       I    between atoms: C_3  and  N_4 
REMARK    2  A    between atoms: N_4  and  C_5 
REMARK    3  A    between atoms: C_5  and  C_6 
REMARK    4  A    between atoms: C_5  and  C_17 
REMARK    5  A    between atoms: C_7  and  O_8 
ROOT
HETATM    1  C   UNL     1      48.833 -29.463   0.144  1.00  0.00     0.154 C 
ENDROOT
BRANCH   1   2
HETATM    2  N   UNL     1      48.270 -29.991   1.379  1.00  0.00    -0.348 N 
HETATM    3  C   UNL     1      47.692 -29.159   2.307  1.00  0.00     0.218 C 
HETATM    4  O   UNL     1      47.633 -27.939   2.159  1.00  0.00    -0.274 OA
HETATM    5  H   UNL     1      47.971 -30.954   1.371  1.00  0.00     0.163 HD
BRANCH   3   6
HETATM    6  C   UNL     1      47.047 -29.854   3.489  1.00  0.00     0.098 C 
HETATM    7  C   UNL     1      48.000 -30.741   4.275  1.00  0.00     0.014 C 
ENDBRANCH   3   6
ENDBRANCH   1   2
BRANCH   1   8
HETATM    8  C   UNL     1      47.716 -29.270  -0.873  1.00  0.00     0.005 A 
HETATM    9  C   UNL     1      46.946 -30.357  -1.335  1.00  0.00     0.103 A 
HETATM   10  C   UNL     1      45.901 -30.216  -2.266  1.00  0.00     0.100 A 
HETATM   11  C   UNL     1      45.650 -28.920  -2.764  1.00  0.00    -0.004 A 
HETATM   12  N   UNL     1      45.168 -31.275  -2.685  1.00  0.00    -0.257 NA
HETATM   13  C   UNL     1      46.422 -27.828  -2.338  1.00  0.00     0.014 A 
HETATM   14  C   UNL     1      44.617 -28.746  -3.696  1.00  0.00     0.015 A 
HETATM   15  C   UNL     1      47.446 -28.002  -1.409  1.00  0.00     0.013 A 
HETATM   16  C   UNL     1      43.868 -29.839  -4.112  1.00  0.00     0.020 A 
HETATM   17  C   UNL     1      44.180 -31.072  -3.581  1.00  0.00     0.117 A 
BRANCH   9  18
HETATM   18  O   UNL     1      47.208 -31.623  -0.853  1.00  0.00    -0.358 OA
HETATM   19  H   UNL     1      46.389 -32.162  -0.938  1.00  0.00     0.218 HD
ENDBRANCH   9  18
ENDBRANCH   1   8
BRANCH   1  20
HETATM   20  C   UNL     1      50.010 -30.288  -0.381  1.00  0.00    -0.031 A 
HETATM   21  C   UNL     1      50.621 -31.209   0.491  1.00  0.00     0.009 A 
HETATM   22  C   UNL     1      51.701 -31.988   0.076  1.00  0.00     0.001 A 
HETATM   23  C   UNL     1      52.196 -31.855  -1.218  1.00  0.00     0.000 A 
HETATM   24  C   UNL     1      51.611 -30.945  -2.095  1.00  0.00     0.001 A 
HETATM   25  C   UNL     1      50.525 -30.167  -1.682  1.00  0.00     0.009 A 
ENDBRANCH   1  20
TORSDOF 5
ENDMDL
MODEL 10
REMARK VINA RESULT:      -6.8     16.876     18.800
REMARK  5 active torsions:
REMARK  status: ('A' for Active; 'I' for Inactive)
REMARK    1  A    between atoms: C_2  and  C_3 
REMARK       I    between atoms: C_3  and  N_4 
REMARK    2  A    between atoms: N_4  and  C_5 
REMARK    3  A    between atoms: C_5  and  C_6 
REMARK    4  A    between atoms: C_5  and  C_17 
REMARK    5  A    between atoms: C_7  and  O_8 
ROOT
HETATM    1  C   UNL     1      49.368 -30.844  -0.087  1.00  0.00     0.154 C 
ENDROOT
BRANCH   1   2
HETATM    2  N   UNL     1      50.667 -30.763  -0.741  1.00  0.00    -0.348 N 
HETATM    3  C   UNL     1      51.168 -31.824  -1.455  1.00  0.00     0.218 C 
HETATM    4  O   UNL     1      50.568 -32.891  -1.566  1.00  0.00    -0.274 OA
HETATM    5  H   UNL     1      51.001 -29.843  -0.984  1.00  0.00     0.163 HD
BRANCH   3   6
HETATM    6  C   UNL     1      52.475 -31.562  -2.175  1.00  0.00     0.098 C 
HETATM    7  C   UNL     1      53.614 -32.466  -1.731  1.00  0.00     0.014 C 
ENDBRANCH   3   6
ENDBRANCH   1   2
BRANCH   1   8
HETATM    8  C   UNL     1      48.351 -30.044  -0.893  1.00  0.00     0.005 A 
HETATM    9  C   UNL     1      47.612 -30.636  -1.938  1.00  0.00     0.103 A 
HETATM   10  C   UNL     1      46.659 -29.933  -2.696  1.00  0.00     0.100 A 
HETATM   11  C   UNL     1      46.472 -28.567  -2.394  1.00  0.00    -0.004 A 
HETATM   12  N   UNL     1      45.954 -30.527  -3.688  1.00  0.00    -0.257 NA
HETATM   13  C   UNL     1      47.216 -27.952  -1.376  1.00  0.00     0.014 A 
HETATM   14  C   UNL     1      45.532 -27.838  -3.135  1.00  0.00     0.015 A 
HETATM   15  C   UNL     1      48.148 -28.680  -0.638  1.00  0.00     0.013 A 
HETATM   16  C   UNL     1      44.809 -28.460  -4.144  1.00  0.00     0.020 A 
HETATM   17  C   UNL     1      45.055 -29.797  -4.380  1.00  0.00     0.117 A 
BRANCH   9  18
HETATM   18  O   UNL     1      47.813 -31.968  -2.237  1.00  0.00    -0.358 OA
HETATM   19  H   UNL     1      48.778 -32.119  -2.345  1.00  0.00     0.218 HD
ENDBRANCH   9  18
ENDBRANCH   1   8
BRANCH   1  20
HETATM   20  C   UNL     1      49.416 -30.465   1.394  1.00  0.00    -0.031 A 
HETATM   21  C   UNL     1      50.676 -30.305   2.001  1.00  0.00     0.009 A 
HETATM   22  C   UNL     1      50.789 -29.966   3.350  1.00  0.00     0.001 A 
HETATM   23  C   UNL     1      49.643 -29.787   4.119  1.00  0.00     0.000 A 
HETATM   24  C   UNL     1      48.387 -29.947   3.540  1.00  0.00     0.001 A 
HETATM   25  C   UNL     1      48.271 -30.282   2.187  1.00  0.00     0.009 A 
ENDBRANCH   1  20
TORSDOF 5
ENDMDL
