MODEL 1
REMARK VINA RESULT:      -8.1      0.000      0.000
REMARK  9 active torsions:
REMARK  status: ('A' for Active; 'I' for Inactive)
REMARK    1  A    between atoms: C_2  and  C_3 
REMARK    2  A    between atoms: C_3  and  C_4 
REMARK    3  A    between atoms: C_4  and  N_5 
REMARK    4  A    between atoms: C_9  and  C_10 
REMARK    5  A    between atoms: C_13  and  C_14 
REMARK    6  A    between atoms: C_14  and  O_15 
REMARK    7  A    between atoms: C_20  and  C_21 
REMARK       I    between atoms: C_21  and  N_22 
REMARK    8  A    between atoms: N_22  and  C_23 
REMARK    9  A    between atoms: C_24  and  O_25 
ROOT
HETATM    1  N   UNL     1      42.259 -12.032   4.264  1.00  0.00    -0.303 N 
HETATM    2  C   UNL     1      43.474 -12.142   3.592  1.00  0.00     0.323 C 
HETATM    3  O   UNL     1      44.480 -11.489   3.863  1.00  0.00    -0.247 OA
HETATM    4  N   UNL     1      43.519 -13.001   2.541  1.00  0.00    -0.330 N 
HETATM    5  C   UNL     1      42.508 -13.973   2.207  1.00  0.00     0.160 C 
HETATM    6  C   UNL     1      41.199 -13.616   2.850  1.00  0.00     0.059 C 
HETATM    7  C   UNL     1      41.129 -12.795   3.920  1.00  0.00     0.026 C 
HETATM    8  C   UNL     1      39.892 -12.678   4.782  1.00  0.00     0.069 C 
HETATM    9  H   UNL     1      44.434 -13.095   2.126  1.00  0.00     0.165 HD
ENDROOT
BRANCH   6  10
HETATM   10  C   UNL     1      40.016 -14.297   2.248  1.00  0.00     0.256 C 
HETATM   11  N   UNL     1      39.337 -13.757   1.195  1.00  0.00    -0.321 N 
HETATM   12  H   UNL     1      38.427 -14.194   1.070  1.00  0.00     0.169 HD
HETATM   13  O   UNL     1      39.618 -15.365   2.712  1.00  0.00    -0.267 OA
BRANCH  11  14
HETATM   14  C   UNL     1      39.557 -12.642   0.365  1.00  0.00     0.068 A 
HETATM   15  C   UNL     1      39.866 -12.914  -0.980  1.00  0.00     0.095 A 
HETATM   16  C   UNL     1      40.034 -11.880  -1.900  1.00  0.00     0.039 A 
HETATM   17  C   UNL     1      39.885 -10.558  -1.483  1.00  0.00     0.003 A 
HETATM   18  C   UNL     1      39.609 -10.277  -0.144  1.00  0.00     0.002 A 
HETATM   19  C   UNL     1      39.459 -11.315   0.782  1.00  0.00     0.032 A 
BRANCH  15  20
HETATM   20  O   UNL     1      40.005 -14.230  -1.356  1.00  0.00    -0.354 OA
HETATM   21  C   UNL     1      39.103 -14.575  -2.408  1.00  0.00     0.210 C 
ENDBRANCH  15  20
ENDBRANCH  11  14
ENDBRANCH   6  10
BRANCH   5  22
HETATM   22  C   UNL     1      42.992 -15.373   2.574  1.00  0.00    -0.031 A 
HETATM   23  C   UNL     1      43.245 -15.735   3.908  1.00  0.00     0.010 A 
HETATM   24  C   UNL     1      43.572 -17.052   4.243  1.00  0.00     0.018 A 
HETATM   25  C   UNL     1      43.663 -18.032   3.249  1.00  0.00     0.039 A 
HETATM   26  C   UNL     1      43.462 -17.672   1.911  1.00  0.00     0.018 A 
HETATM   27  C   UNL     1      43.132 -16.353   1.578  1.00  0.00     0.010 A 
BRANCH  25  28
HETATM   28  C   UNL     1      43.935 -19.436   3.668  1.00  0.00     0.292 C 
HETATM   29  O   UNL     1      43.880 -20.388   2.905  1.00  0.00    -0.259 OA
BRANCH  28  30
HETATM   30  O   UNL     1      44.276 -19.491   4.979  1.00  0.00    -0.323 OA
HETATM   31  C   UNL     1      44.134 -20.786   5.562  1.00  0.00     0.213 C 
ENDBRANCH  28  30
ENDBRANCH  25  28
ENDBRANCH   5  22
BRANCH   1  32
HETATM   32  C   UNL     1      42.149 -10.904   5.198  1.00  0.00     0.133 C 
BRANCH  32  33
HETATM   33  C   UNL     1      42.488 -11.247   6.648  1.00  0.00     0.020 C 
BRANCH  33  34
HETATM   34  C   UNL     1      43.663 -10.386   7.124  1.00  0.00    -0.003 C 
HETATM   35  C   UNL     1      44.916 -11.211   7.360  1.00  0.00     0.005 C 
ENDBRANCH  33  34
ENDBRANCH  32  33
ENDBRANCH   1  32
TORSDOF 9
ENDMDL
MODEL 2
REMARK VINA RESULT:      -8.1      2.442      7.526
REMARK  9 active torsions:
REMARK  status: ('A' for Active; 'I' for Inactive)
REMARK    1  A    between atoms: C_2  and  C_3 
REMARK    2  A    between atoms: C_3  and  C_4 
REMARK    3  A    between atoms: C_4  and  N_5 
REMARK    4  A    between atoms: C_9  and  C_10 
REMARK    5  A    between atoms: C_13  and  C_14 
REMARK    6  A    between atoms: C_14  and  O_15 
REMARK    7  A    between atoms: C_20  and  C_21 
REMARK       I    between atoms: C_21  and  N_22 
REMARK    8  A    between atoms: N_22  and  C_23 
REMARK    9  A    between atoms: C_24  and  O_25 
ROOT
HETATM    1  N   UNL     1      41.357 -12.278   3.355  1.00  0.00    -0.303 N 
HETATM    2  C   UNL     1      42.473 -11.575   2.906  1.00  0.00     0.323 C 
HETATM    3  O   UNL     1      42.460 -10.773   1.974  1.00  0.00    -0.247 OA
HETATM    4  N   UNL     1      43.653 -11.839   3.523  1.00  0.00    -0.330 N 
HETATM    5  C   UNL     1      43.815 -12.594   4.740  1.00  0.00     0.160 C 
HETATM    6  C   UNL     1      42.609 -13.453   4.993  1.00  0.00     0.059 C 
HETATM    7  C   UNL     1      41.413 -13.191   4.423  1.00  0.00     0.026 C 
HETATM    8  C   UNL     1      40.124 -13.820   4.901  1.00  0.00     0.069 C 
HETATM    9  H   UNL     1      44.419 -11.261   3.209  1.00  0.00     0.165 HD
ENDROOT
BRANCH   6  10
HETATM   10  C   UNL     1      42.840 -14.558   5.968  1.00  0.00     0.256 C 
HETATM   11  N   UNL     1      43.064 -15.840   5.559  1.00  0.00    -0.321 N 
HETATM   12  H   UNL     1      42.947 -16.505   6.320  1.00  0.00     0.169 HD
HETATM   13  O   UNL     1      42.812 -14.329   7.177  1.00  0.00    -0.267 OA
BRANCH  11  14
HETATM   14  C   UNL     1      43.263 -16.438   4.301  1.00  0.00     0.068 A 
HETATM   15  C   UNL     1      43.563 -17.813   4.302  1.00  0.00     0.095 A 
HETATM   16  C   UNL     1      43.710 -18.516   3.106  1.00  0.00     0.039 A 
HETATM   17  C   UNL     1      43.549 -17.848   1.893  1.00  0.00     0.003 A 
HETATM   18  C   UNL     1      43.282 -16.479   1.882  1.00  0.00     0.002 A 
HETATM   19  C   UNL     1      43.153 -15.771   3.082  1.00  0.00     0.032 A 
BRANCH  15  20
HETATM   20  O   UNL     1      43.714 -18.438   5.517  1.00  0.00    -0.354 OA
HETATM   21  C   UNL     1      44.005 -19.828   5.362  1.00  0.00     0.210 C 
ENDBRANCH  15  20
ENDBRANCH  11  14
ENDBRANCH   6  10
BRANCH   5  22
HETATM   22  C   UNL     1      44.131 -11.651   5.898  1.00  0.00    -0.031 A 
HETATM   23  C   UNL     1      45.417 -11.587   6.460  1.00  0.00     0.010 A 
HETATM   24  C   UNL     1      45.724 -10.635   7.438  1.00  0.00     0.018 A 
HETATM   25  C   UNL     1      44.748  -9.736   7.881  1.00  0.00     0.039 A 
HETATM   26  C   UNL     1      43.450  -9.825   7.363  1.00  0.00     0.018 A 
HETATM   27  C   UNL     1      43.146 -10.776   6.382  1.00  0.00     0.010 A 
BRANCH  25  28
HETATM   28  C   UNL     1      45.148  -8.691   8.863  1.00  0.00     0.292 C 
HETATM   29  O   UNL     1      45.150  -7.496   8.611  1.00  0.00    -0.259 OA
BRANCH  28  30
HETATM   30  O   UNL     1      45.468  -9.249  10.058  1.00  0.00    -0.323 OA
HETATM   31  C   UNL     1      44.363  -9.379  10.952  1.00  0.00     0.213 C 
ENDBRANCH  28  30
ENDBRANCH  25  28
ENDBRANCH   5  22
BRANCH   1  32
HETATM   32  C   UNL     1      40.167 -12.197   2.498  1.00  0.00     0.133 C 
BRANCH  32  33
HETATM   33  C   UNL     1      40.360 -12.759   1.090  1.00  0.00     0.020 C 
BRANCH  33  34
HETATM   34  C   UNL     1      40.400 -14.290   1.142  1.00  0.00    -0.003 C 
HETATM   35  C   UNL     1      39.836 -14.918  -0.120  1.00  0.00     0.005 C 
ENDBRANCH  33  34
ENDBRANCH  32  33
ENDBRANCH   1  32
TORSDOF 9
ENDMDL
MODEL 3
REMARK VINA RESULT:      -8.0      0.899      1.551
REMARK  9 active torsions:
REMARK  status: ('A' for Active; 'I' for Inactive)
REMARK    1  A    between atoms: C_2  and  C_3 
REMARK    2  A    between atoms: C_3  and  C_4 
REMARK    3  A    between atoms: C_4  and  N_5 
REMARK    4  A    between atoms: C_9  and  C_10 
REMARK    5  A    between atoms: C_13  and  C_14 
REMARK    6  A    between atoms: C_14  and  O_15 
REMARK    7  A    between atoms: C_20  and  C_21 
REMARK       I    between atoms: C_21  and  N_22 
REMARK    8  A    between atoms: N_22  and  C_23 
REMARK    9  A    between atoms: C_24  and  O_25 
ROOT
HETATM    1  N   UNL     1      42.232 -12.117   4.103  1.00  0.00    -0.303 N 
HETATM    2  C   UNL     1      43.469 -12.238   3.474  1.00  0.00     0.323 C 
HETATM    3  O   UNL     1      44.465 -11.580   3.766  1.00  0.00    -0.247 OA
HETATM    4  N   UNL     1      43.548 -13.117   2.441  1.00  0.00    -0.330 N 
HETATM    5  C   UNL     1      42.549 -14.096   2.093  1.00  0.00     0.160 C 
HETATM    6  C   UNL     1      41.219 -13.729   2.686  1.00  0.00     0.059 C 
HETATM    7  C   UNL     1      41.114 -12.887   3.737  1.00  0.00     0.026 C 
HETATM    8  C   UNL     1      39.850 -12.755   4.556  1.00  0.00     0.069 C 
HETATM    9  H   UNL     1      44.477 -13.219   2.058  1.00  0.00     0.165 HD
ENDROOT
BRANCH   6  10
HETATM   10  C   UNL     1      40.057 -14.422   2.059  1.00  0.00     0.256 C 
HETATM   11  N   UNL     1      39.449 -13.933   0.940  1.00  0.00    -0.321 N 
HETATM   12  H   UNL     1      38.538 -14.360   0.789  1.00  0.00     0.169 HD
HETATM   13  O   UNL     1      39.611 -15.454   2.560  1.00  0.00    -0.267 OA
BRANCH  11  14
HETATM   14  C   UNL     1      39.738 -12.872   0.061  1.00  0.00     0.068 A 
HETATM   15  C   UNL     1      39.152 -11.630   0.365  1.00  0.00     0.095 A 
HETATM   16  C   UNL     1      39.429 -10.499  -0.402  1.00  0.00     0.039 A 
HETATM   17  C   UNL     1      40.306 -10.599  -1.481  1.00  0.00     0.003 A 
HETATM   18  C   UNL     1      40.868 -11.834  -1.810  1.00  0.00     0.002 A 
HETATM   19  C   UNL     1      40.574 -12.971  -1.050  1.00  0.00     0.032 A 
BRANCH  15  20
HETATM   20  O   UNL     1      38.292 -11.569   1.437  1.00  0.00    -0.354 OA
HETATM   21  C   UNL     1      37.947 -10.220   1.758  1.00  0.00     0.210 C 
ENDBRANCH  15  20
ENDBRANCH  11  14
ENDBRANCH   6  10
BRANCH   5  22
HETATM   22  C   UNL     1      43.022 -15.489   2.502  1.00  0.00    -0.031 A 
HETATM   23  C   UNL     1      43.217 -15.829   3.852  1.00  0.00     0.010 A 
HETATM   24  C   UNL     1      43.534 -17.140   4.221  1.00  0.00     0.018 A 
HETATM   25  C   UNL     1      43.671 -18.135   3.247  1.00  0.00     0.039 A 
HETATM   26  C   UNL     1      43.527 -17.795   1.896  1.00  0.00     0.018 A 
HETATM   27  C   UNL     1      43.207 -16.483   1.529  1.00  0.00     0.010 A 
BRANCH  25  28
HETATM   28  C   UNL     1      43.929 -19.530   3.698  1.00  0.00     0.292 C 
HETATM   29  O   UNL     1      43.904 -20.495   2.950  1.00  0.00    -0.259 OA
BRANCH  28  30
HETATM   30  O   UNL     1      44.220 -19.563   5.023  1.00  0.00    -0.323 OA
HETATM   31  C   UNL     1      43.949 -20.818   5.646  1.00  0.00     0.213 C 
ENDBRANCH  28  30
ENDBRANCH  25  28
ENDBRANCH   5  22
BRANCH   1  32
HETATM   32  C   UNL     1      42.091 -10.972   5.011  1.00  0.00     0.133 C 
BRANCH  32  33
HETATM   33  C   UNL     1      42.303 -11.304   6.488  1.00  0.00     0.020 C 
BRANCH  33  34
HETATM   34  C   UNL     1      43.563 -10.600   7.003  1.00  0.00    -0.003 C 
HETATM   35  C   UNL     1      44.707 -11.573   7.229  1.00  0.00     0.005 C 
ENDBRANCH  33  34
ENDBRANCH  32  33
ENDBRANCH   1  32
TORSDOF 9
ENDMDL
MODEL 4
REMARK VINA RESULT:      -7.8      2.334      6.295
REMARK  9 active torsions:
REMARK  status: ('A' for Active; 'I' for Inactive)
REMARK    1  A    between atoms: C_2  and  C_3 
REMARK    2  A    between atoms: C_3  and  C_4 
REMARK    3  A    between atoms: C_4  and  N_5 
REMARK    4  A    between atoms: C_9  and  C_10 
REMARK    5  A    between atoms: C_13  and  C_14 
REMARK    6  A    between atoms: C_14  and  O_15 
REMARK    7  A    between atoms: C_20  and  C_21 
REMARK       I    between atoms: C_21  and  N_22 
REMARK    8  A    between atoms: N_22  and  C_23 
REMARK    9  A    between atoms: C_24  and  O_25 
ROOT
HETATM    1  N   UNL     1      41.827 -15.550   3.462  1.00  0.00    -0.303 N 
HETATM    2  C   UNL     1      40.880 -15.434   4.477  1.00  0.00     0.323 C 
HETATM    3  O   UNL     1      40.331 -16.386   5.027  1.00  0.00    -0.247 OA
HETATM    4  N   UNL     1      40.519 -14.176   4.838  1.00  0.00    -0.330 N 
HETATM    5  C   UNL     1      41.188 -12.963   4.439  1.00  0.00     0.160 C 
HETATM    6  C   UNL     1      42.024 -13.198   3.214  1.00  0.00     0.059 C 
HETATM    7  C   UNL     1      42.429 -14.435   2.853  1.00  0.00     0.026 C 
HETATM    8  C   UNL     1      43.524 -14.673   1.837  1.00  0.00     0.069 C 
HETATM    9  H   UNL     1      39.879 -14.140   5.619  1.00  0.00     0.165 HD
ENDROOT
BRANCH   6  10
HETATM   10  C   UNL     1      42.413 -11.953   2.491  1.00  0.00     0.256 C 
HETATM   11  N   UNL     1      41.777 -11.559   1.350  1.00  0.00    -0.321 N 
HETATM   12  H   UNL     1      42.309 -10.854   0.846  1.00  0.00     0.169 HD
HETATM   13  O   UNL     1      43.340 -11.261   2.909  1.00  0.00    -0.267 OA
BRANCH  11  14
HETATM   14  C   UNL     1      40.644 -12.026   0.657  1.00  0.00     0.068 A 
HETATM   15  C   UNL     1      39.451 -11.305   0.850  1.00  0.00     0.095 A 
HETATM   16  C   UNL     1      38.289 -11.643   0.157  1.00  0.00     0.039 A 
HETATM   17  C   UNL     1      38.312 -12.705  -0.745  1.00  0.00     0.003 A 
HETATM   18  C   UNL     1      39.482 -13.446  -0.920  1.00  0.00     0.002 A 
HETATM   19  C   UNL     1      40.642 -13.117  -0.210  1.00  0.00     0.032 A 
BRANCH  15  20
HETATM   20  O   UNL     1      39.466 -10.264   1.748  1.00  0.00    -0.354 OA
HETATM   21  C   UNL     1      38.705 -10.567   2.918  1.00  0.00     0.210 C 
ENDBRANCH  15  20
ENDBRANCH  11  14
ENDBRANCH   6  10
BRANCH   5  22
HETATM   22  C   UNL     1      41.990 -12.403   5.612  1.00  0.00    -0.031 A 
HETATM   23  C   UNL     1      43.049 -13.126   6.187  1.00  0.00     0.010 A 
HETATM   24  C   UNL     1      43.850 -12.553   7.179  1.00  0.00     0.018 A 
HETATM   25  C   UNL     1      43.603 -11.251   7.624  1.00  0.00     0.039 A 
HETATM   26  C   UNL     1      42.519 -10.540   7.092  1.00  0.00     0.018 A 
HETATM   27  C   UNL     1      41.720 -11.113   6.097  1.00  0.00     0.010 A 
BRANCH  25  28
HETATM   28  C   UNL     1      44.535 -10.659   8.623  1.00  0.00     0.292 C 
HETATM   29  O   UNL     1      45.737 -10.875   8.632  1.00  0.00    -0.259 OA
BRANCH  28  30
HETATM   30  O   UNL     1      43.871  -9.839   9.476  1.00  0.00    -0.323 OA
HETATM   31  C   UNL     1      43.624 -10.414  10.758  1.00  0.00     0.213 C 
ENDBRANCH  28  30
ENDBRANCH  25  28
ENDBRANCH   5  22
BRANCH   1  32
HETATM   32  C   UNL     1      41.987 -16.894   2.893  1.00  0.00     0.133 C 
BRANCH  32  33
HETATM   33  C   UNL     1      43.065 -17.743   3.567  1.00  0.00     0.020 C 
BRANCH  33  34
HETATM   34  C   UNL     1      43.861 -18.511   2.507  1.00  0.00    -0.003 C 
HETATM   35  C   UNL     1      43.178 -19.806   2.108  1.00  0.00     0.005 C 
ENDBRANCH  33  34
ENDBRANCH  32  33
ENDBRANCH   1  32
TORSDOF 9
ENDMDL
MODEL 5
REMARK VINA RESULT:      -7.8      8.709     13.019
REMARK  9 active torsions:
REMARK  status: ('A' for Active; 'I' for Inactive)
REMARK    1  A    between atoms: C_2  and  C_3 
REMARK    2  A    between atoms: C_3  and  C_4 
REMARK    3  A    between atoms: C_4  and  N_5 
REMARK    4  A    between atoms: C_9  and  C_10 
REMARK    5  A    between atoms: C_13  and  C_14 
REMARK    6  A    between atoms: C_14  and  O_15 
REMARK    7  A    between atoms: C_20  and  C_21 
REMARK       I    between atoms: C_21  and  N_22 
REMARK    8  A    between atoms: N_22  and  C_23 
REMARK    9  A    between atoms: C_24  and  O_25 
ROOT
HETATM    1  N   UNL     1      43.436  -9.930  10.141  1.00  0.00    -0.303 N 
HETATM    2  C   UNL     1      43.716 -10.702  11.265  1.00  0.00     0.323 C 
HETATM    3  O   UNL     1      44.768 -11.312  11.444  1.00  0.00    -0.247 OA
HETATM    4  N   UNL     1      42.732 -10.812  12.195  1.00  0.00    -0.330 N 
HETATM    5  C   UNL     1      41.527 -10.023  12.240  1.00  0.00     0.160 C 
HETATM    6  C   UNL     1      41.249  -9.406  10.899  1.00  0.00     0.059 C 
HETATM    7  C   UNL     1      42.217  -9.249   9.971  1.00  0.00     0.026 C 
HETATM    8  C   UNL     1      42.056  -8.351   8.765  1.00  0.00     0.069 C 
HETATM    9  H   UNL     1      43.003 -11.327  13.020  1.00  0.00     0.165 HD
ENDROOT
BRANCH   6  10
HETATM   10  C   UNL     1      39.846  -8.931  10.724  1.00  0.00     0.256 C 
HETATM   11  N   UNL     1      39.468  -7.669  11.079  1.00  0.00    -0.321 N 
HETATM   12  H   UNL     1      38.456  -7.583  11.141  1.00  0.00     0.169 HD
HETATM   13  O   UNL     1      38.991  -9.688  10.267  1.00  0.00    -0.267 OA
BRANCH  11  14
HETATM   14  C   UNL     1      40.169  -6.532  11.522  1.00  0.00     0.068 A 
HETATM   15  C   UNL     1      39.677  -5.906  12.682  1.00  0.00     0.095 A 
HETATM   16  C   UNL     1      40.338  -4.814  13.244  1.00  0.00     0.039 A 
HETATM   17  C   UNL     1      41.508  -4.341  12.651  1.00  0.00     0.003 A 
HETATM   18  C   UNL     1      41.986  -4.935  11.483  1.00  0.00     0.002 A 
HETATM   19  C   UNL     1      41.311  -6.019  10.910  1.00  0.00     0.032 A 
BRANCH  15  20
HETATM   20  O   UNL     1      38.520  -6.401  13.240  1.00  0.00    -0.354 OA
HETATM   21  C   UNL     1      38.152  -5.678  14.416  1.00  0.00     0.210 C 
ENDBRANCH  15  20
ENDBRANCH  11  14
ENDBRANCH   6  10
BRANCH   5  22
HETATM   22  C   UNL     1      41.621  -8.994  13.364  1.00  0.00    -0.031 A 
HETATM   23  C   UNL     1      40.663  -8.942  14.391  1.00  0.00     0.010 A 
HETATM   24  C   UNL     1      40.826  -8.076  15.477  1.00  0.00     0.018 A 
HETATM   25  C   UNL     1      41.944  -7.239  15.553  1.00  0.00     0.039 A 
HETATM   26  C   UNL     1      42.879  -7.249  14.510  1.00  0.00     0.018 A 
HETATM   27  C   UNL     1      42.716  -8.118  13.425  1.00  0.00     0.010 A 
BRANCH  25  28
HETATM   28  C   UNL     1      42.110  -6.396  16.769  1.00  0.00     0.292 C 
HETATM   29  O   UNL     1      42.550  -6.821  17.827  1.00  0.00    -0.259 OA
BRANCH  28  30
HETATM   30  O   UNL     1      41.743  -5.114  16.522  1.00  0.00    -0.323 OA
HETATM   31  C   UNL     1      41.724  -4.282  17.682  1.00  0.00     0.213 C 
ENDBRANCH  28  30
ENDBRANCH  25  28
ENDBRANCH   5  22
BRANCH   1  32
HETATM   32  C   UNL     1      44.387 -10.057   9.029  1.00  0.00     0.133 C 
BRANCH  32  33
HETATM   33  C   UNL     1      45.452  -8.962   8.978  1.00  0.00     0.020 C 
BRANCH  33  34
HETATM   34  C   UNL     1      46.526  -9.330   7.949  1.00  0.00    -0.003 C 
HETATM   35  C   UNL     1      46.309 -10.715   7.368  1.00  0.00     0.005 C 
ENDBRANCH  33  34
ENDBRANCH  32  33
ENDBRANCH   1  32
TORSDOF 9
ENDMDL
MODEL 6
REMARK VINA RESULT:      -7.7      2.183      5.739
REMARK  9 active torsions:
REMARK  status: ('A' for Active; 'I' for Inactive)
REMARK    1  A    between atoms: C_2  and  C_3 
REMARK    2  A    between atoms: C_3  and  C_4 
REMARK    3  A    between atoms: C_4  and  N_5 
REMARK    4  A    between atoms: C_9  and  C_10 
REMARK    5  A    between atoms: C_13  and  C_14 
REMARK    6  A    between atoms: C_14  and  O_15 
REMARK    7  A    between atoms: C_20  and  C_21 
REMARK       I    between atoms: C_21  and  N_22 
REMARK    8  A    between atoms: N_22  and  C_23 
REMARK    9  A    between atoms: C_24  and  O_25 
ROOT
HETATM    1  N   UNL     1      40.735 -12.019  -1.485  1.00  0.00    -0.303 N 
HETATM    2  C   UNL     1      40.573 -13.327  -1.936  1.00  0.00     0.323 C 
HETATM    3  O   UNL     1      40.926 -13.731  -3.042  1.00  0.00    -0.247 OA
HETATM    4  N   UNL     1      39.939 -14.189  -1.099  1.00  0.00    -0.330 N 
HETATM    5  C   UNL     1      39.633 -13.942   0.288  1.00  0.00     0.160 C 
HETATM    6  C   UNL     1      39.658 -12.470   0.581  1.00  0.00     0.059 C 
HETATM    7  C   UNL     1      40.313 -11.595  -0.213  1.00  0.00     0.026 C 
HETATM    8  C   UNL     1      40.635 -10.181   0.218  1.00  0.00     0.069 C 
HETATM    9  H   UNL     1      39.901 -15.139  -1.440  1.00  0.00     0.165 HD
ENDROOT
BRANCH   6  10
HETATM   10  C   UNL     1      38.964 -12.086   1.843  1.00  0.00     0.256 C 
HETATM   11  N   UNL     1      39.618 -12.052   3.040  1.00  0.00    -0.321 N 
HETATM   12  H   UNL     1      38.970 -12.027   3.823  1.00  0.00     0.169 HD
HETATM   13  O   UNL     1      37.765 -11.807   1.827  1.00  0.00    -0.267 OA
BRANCH  11  14
HETATM   14  C   UNL     1      40.966 -12.203   3.415  1.00  0.00     0.068 A 
HETATM   15  C   UNL     1      41.230 -13.125   4.445  1.00  0.00     0.095 A 
HETATM   16  C   UNL     1      42.538 -13.399   4.845  1.00  0.00     0.039 A 
HETATM   17  C   UNL     1      43.599 -12.757   4.209  1.00  0.00     0.003 A 
HETATM   18  C   UNL     1      43.346 -11.818   3.208  1.00  0.00     0.002 A 
HETATM   19  C   UNL     1      42.033 -11.530   2.821  1.00  0.00     0.032 A 
BRANCH  15  20
HETATM   20  O   UNL     1      40.158 -13.739   5.049  1.00  0.00    -0.354 OA
HETATM   21  C   UNL     1      40.573 -14.593   6.116  1.00  0.00     0.210 C 
ENDBRANCH  15  20
ENDBRANCH  11  14
ENDBRANCH   6  10
BRANCH   5  22
HETATM   22  C   UNL     1      40.578 -14.745   1.179  1.00  0.00    -0.031 A 
HETATM   23  C   UNL     1      40.089 -15.647   2.140  1.00  0.00     0.010 A 
HETATM   24  C   UNL     1      40.963 -16.463   2.865  1.00  0.00     0.018 A 
HETATM   25  C   UNL     1      42.343 -16.387   2.651  1.00  0.00     0.039 A 
HETATM   26  C   UNL     1      42.844 -15.457   1.730  1.00  0.00     0.018 A 
HETATM   27  C   UNL     1      41.968 -14.643   1.003  1.00  0.00     0.010 A 
BRANCH  25  28
HETATM   28  C   UNL     1      43.223 -17.335   3.389  1.00  0.00     0.292 C 
HETATM   29  O   UNL     1      43.768 -17.061   4.447  1.00  0.00    -0.259 OA
BRANCH  28  30
HETATM   30  O   UNL     1      43.298 -18.526   2.744  1.00  0.00    -0.323 OA
HETATM   31  C   UNL     1      43.949 -19.551   3.494  1.00  0.00     0.213 C 
ENDBRANCH  28  30
ENDBRANCH  25  28
ENDBRANCH   5  22
BRANCH   1  32
HETATM   32  C   UNL     1      41.154 -11.045  -2.501  1.00  0.00     0.133 C 
BRANCH  32  33
HETATM   33  C   UNL     1      40.003 -10.376  -3.250  1.00  0.00     0.020 C 
BRANCH  33  34
HETATM   34  C   UNL     1      40.541  -9.232  -4.117  1.00  0.00    -0.003 C 
HETATM   35  C   UNL     1      40.885  -8.005  -3.292  1.00  0.00     0.005 C 
ENDBRANCH  33  34
ENDBRANCH  32  33
ENDBRANCH   1  32
TORSDOF 9
ENDMDL
MODEL 7
REMARK VINA RESULT:      -7.6      2.050      6.970
REMARK  9 active torsions:
REMARK  status: ('A' for Active; 'I' for Inactive)
REMARK    1  A    between atoms: C_2  and  C_3 
REMARK    2  A    between atoms: C_3  and  C_4 
REMARK    3  A    between atoms: C_4  and  N_5 
REMARK    4  A    between atoms: C_9  and  C_10 
REMARK    5  A    between atoms: C_13  and  C_14 
REMARK    6  A    between atoms: C_14  and  O_15 
REMARK    7  A    between atoms: C_20  and  C_21 
REMARK       I    between atoms: C_21  and  N_22 
REMARK    8  A    between atoms: N_22  and  C_23 
REMARK    9  A    between atoms: C_24  and  O_25 
ROOT
HETATM    1  N   UNL     1      42.400 -16.336   3.115  1.00  0.00    -0.303 N 
HETATM    2  C   UNL     1      43.173 -15.939   2.026  1.00  0.00     0.323 C 
HETATM    3  O   UNL     1      44.048 -16.629   1.507  1.00  0.00    -0.247 OA
HETATM    4  N   UNL     1      42.961 -14.687   1.546  1.00  0.00    -0.330 N 
HETATM    5  C   UNL     1      41.861 -13.826   1.904  1.00  0.00     0.160 C 
HETATM    6  C   UNL     1      41.247 -14.263   3.202  1.00  0.00     0.059 C 
HETATM    7  C   UNL     1      41.410 -15.515   3.683  1.00  0.00     0.026 C 
HETATM    8  C   UNL     1      40.555 -16.083   4.793  1.00  0.00     0.069 C 
HETATM    9  H   UNL     1      43.496 -14.467   0.719  1.00  0.00     0.165 HD
ENDROOT
BRANCH   6  10
HETATM   10  C   UNL     1      40.401 -13.226   3.859  1.00  0.00     0.256 C 
HETATM   11  N   UNL     1      40.859 -12.489   4.912  1.00  0.00    -0.321 N 
HETATM   12  H   UNL     1      40.100 -12.022   5.403  1.00  0.00     0.169 HD
HETATM   13  O   UNL     1      39.252 -13.027   3.465  1.00  0.00    -0.267 OA
BRANCH  11  14
HETATM   14  C   UNL     1      42.110 -12.371   5.545  1.00  0.00     0.068 A 
HETATM   15  C   UNL     1      42.842 -11.201   5.270  1.00  0.00     0.095 A 
HETATM   16  C   UNL     1      44.062 -10.954   5.900  1.00  0.00     0.039 A 
HETATM   17  C   UNL     1      44.559 -11.876   6.820  1.00  0.00     0.003 A 
HETATM   18  C   UNL     1      43.855 -13.054   7.075  1.00  0.00     0.002 A 
HETATM   19  C   UNL     1      42.641 -13.309   6.429  1.00  0.00     0.032 A 
BRANCH  15  20
HETATM   20  O   UNL     1      42.321 -10.314   4.357  1.00  0.00    -0.354 OA
HETATM   21  C   UNL     1      41.700  -9.201   5.001  1.00  0.00     0.210 C 
ENDBRANCH  15  20
ENDBRANCH  11  14
ENDBRANCH   6  10
BRANCH   5  22
HETATM   22  C   UNL     1      40.855 -13.766   0.756  1.00  0.00    -0.031 A 
HETATM   23  C   UNL     1      40.594 -12.565   0.073  1.00  0.00     0.010 A 
HETATM   24  C   UNL     1      39.762 -12.548  -1.050  1.00  0.00     0.018 A 
HETATM   25  C   UNL     1      39.167 -13.728  -1.508  1.00  0.00     0.039 A 
HETATM   26  C   UNL     1      39.381 -14.921  -0.804  1.00  0.00     0.018 A 
HETATM   27  C   UNL     1      40.217 -14.937   0.318  1.00  0.00     0.010 A 
BRANCH  25  28
HETATM   28  C   UNL     1      38.356 -13.670  -2.755  1.00  0.00     0.292 C 
HETATM   29  O   UNL     1      38.788 -13.985  -3.854  1.00  0.00    -0.259 OA
BRANCH  28  30
HETATM   30  O   UNL     1      37.091 -13.259  -2.490  1.00  0.00    -0.323 OA
HETATM   31  C   UNL     1      36.821 -11.916  -2.891  1.00  0.00     0.213 C 
ENDBRANCH  28  30
ENDBRANCH  25  28
ENDBRANCH   5  22
BRANCH   1  32
HETATM   32  C   UNL     1      42.838 -17.563   3.792  1.00  0.00     0.133 C 
BRANCH  32  33
HETATM   33  C   UNL     1      43.961 -17.359   4.808  1.00  0.00     0.020 C 
BRANCH  33  34
HETATM   34  C   UNL     1      43.538 -17.921   6.170  1.00  0.00    -0.003 C 
HETATM   35  C   UNL     1      43.543 -16.856   7.252  1.00  0.00     0.005 C 
ENDBRANCH  33  34
ENDBRANCH  32  33
ENDBRANCH   1  32
TORSDOF 9
ENDMDL
MODEL 8
REMARK VINA RESULT:      -7.6      1.921      6.829
REMARK  9 active torsions:
REMARK  status: ('A' for Active; 'I' for Inactive)
REMARK    1  A    between atoms: C_2  and  C_3 
REMARK    2  A    between atoms: C_3  and  C_4 
REMARK    3  A    between atoms: C_4  and  N_5 
REMARK    4  A    between atoms: C_9  and  C_10 
REMARK    5  A    between atoms: C_13  and  C_14 
REMARK    6  A    between atoms: C_14  and  O_15 
REMARK    7  A    between atoms: C_20  and  C_21 
REMARK       I    between atoms: C_21  and  N_22 
REMARK    8  A    between atoms: N_22  and  C_23 
REMARK    9  A    between atoms: C_24  and  O_25 
ROOT
HETATM    1  N   UNL     1      41.256 -12.636   4.976  1.00  0.00    -0.303 N 
HETATM    2  C   UNL     1      39.963 -13.148   4.901  1.00  0.00     0.323 C 
HETATM    3  O   UNL     1      39.014 -12.739   5.567  1.00  0.00    -0.247 OA
HETATM    4  N   UNL     1      39.767 -14.199   4.064  1.00  0.00    -0.330 N 
HETATM    5  C   UNL     1      40.707 -14.676   3.080  1.00  0.00     0.160 C 
HETATM    6  C   UNL     1      42.095 -14.201   3.401  1.00  0.00     0.059 C 
HETATM    7  C   UNL     1      42.318 -13.134   4.200  1.00  0.00     0.026 C 
HETATM    8  C   UNL     1      43.657 -12.436   4.278  1.00  0.00     0.069 C 
HETATM    9  H   UNL     1      38.804 -14.495   3.994  1.00  0.00     0.165 HD
ENDROOT
BRANCH   6  10
HETATM   10  C   UNL     1      43.176 -14.960   2.710  1.00  0.00     0.256 C 
HETATM   11  N   UNL     1      43.767 -16.048   3.283  1.00  0.00    -0.321 N 
HETATM   12  H   UNL     1      44.638 -16.293   2.819  1.00  0.00     0.169 HD
HETATM   13  O   UNL     1      43.571 -14.600   1.601  1.00  0.00    -0.267 OA
BRANCH  11  14
HETATM   14  C   UNL     1      43.514 -16.788   4.454  1.00  0.00     0.068 A 
HETATM   15  C   UNL     1      43.906 -18.139   4.437  1.00  0.00     0.095 A 
HETATM   16  C   UNL     1      43.763 -18.941   5.570  1.00  0.00     0.039 A 
HETATM   17  C   UNL     1      43.232 -18.393   6.736  1.00  0.00     0.003 A 
HETATM   18  C   UNL     1      42.812 -17.063   6.753  1.00  0.00     0.002 A 
HETATM   19  C   UNL     1      42.939 -16.264   5.611  1.00  0.00     0.032 A 
BRANCH  15  20
HETATM   20  O   UNL     1      44.426 -18.644   3.269  1.00  0.00    -0.354 OA
HETATM   21  C   UNL     1      43.579 -19.647   2.706  1.00  0.00     0.210 C 
ENDBRANCH  15  20
ENDBRANCH  11  14
ENDBRANCH   6  10
BRANCH   5  22
HETATM   22  C   UNL     1      40.245 -14.273   1.682  1.00  0.00    -0.031 A 
HETATM   23  C   UNL     1      40.078 -12.924   1.326  1.00  0.00     0.010 A 
HETATM   24  C   UNL     1      39.771 -12.564   0.010  1.00  0.00     0.018 A 
HETATM   25  C   UNL     1      39.615 -13.545  -0.973  1.00  0.00     0.039 A 
HETATM   26  C   UNL     1      39.730 -14.895  -0.618  1.00  0.00     0.018 A 
HETATM   27  C   UNL     1      40.041 -15.254   0.698  1.00  0.00     0.010 A 
BRANCH  25  28
HETATM   28  C   UNL     1      39.369 -13.105  -2.375  1.00  0.00     0.292 C 
HETATM   29  O   UNL     1      40.101 -13.393  -3.309  1.00  0.00    -0.259 OA
BRANCH  28  30
HETATM   30  O   UNL     1      38.222 -12.385  -2.460  1.00  0.00    -0.323 OA
HETATM   31  C   UNL     1      37.053 -13.179  -2.659  1.00  0.00     0.213 C 
ENDBRANCH  28  30
ENDBRANCH  25  28
ENDBRANCH   5  22
BRANCH   1  32
HETATM   32  C   UNL     1      41.509 -11.706   6.084  1.00  0.00     0.133 C 
BRANCH  32  33
HETATM   33  C   UNL     1      41.159 -10.249   5.780  1.00  0.00     0.020 C 
BRANCH  33  34
HETATM   34  C   UNL     1      42.118  -9.317   6.529  1.00  0.00    -0.003 C 
HETATM   35  C   UNL     1      43.023 -10.077   7.483  1.00  0.00     0.005 C 
ENDBRANCH  33  34
ENDBRANCH  32  33
ENDBRANCH   1  32
TORSDOF 9
ENDMDL
MODEL 9
REMARK VINA RESULT:      -7.3      2.389      6.973
REMARK  9 active torsions:
REMARK  status: ('A' for Active; 'I' for Inactive)
REMARK    1  A    between atoms: C_2  and  C_3 
REMARK    2  A    between atoms: C_3  and  C_4 
REMARK    3  A    between atoms: C_4  and  N_5 
REMARK    4  A    between atoms: C_9  and  C_10 
REMARK    5  A    between atoms: C_13  and  C_14 
REMARK    6  A    between atoms: C_14  and  O_15 
REMARK    7  A    between atoms: C_20  and  C_21 
REMARK       I    between atoms: C_21  and  N_22 
REMARK    8  A    between atoms: N_22  and  C_23 
REMARK    9  A    between atoms: C_24  and  O_25 
ROOT
HETATM    1  N   UNL     1      40.767 -11.548   2.861  1.00  0.00    -0.303 N 
HETATM    2  C   UNL     1      42.117 -11.443   2.530  1.00  0.00     0.323 C 
HETATM    3  O   UNL     1      42.549 -10.812   1.568  1.00  0.00    -0.247 OA
HETATM    4  N   UNL     1      42.994 -12.126   3.310  1.00  0.00    -0.330 N 
HETATM    5  C   UNL     1      42.686 -12.751   4.572  1.00  0.00     0.160 C 
HETATM    6  C   UNL     1      41.208 -12.977   4.704  1.00  0.00     0.059 C 
HETATM    7  C   UNL     1      40.311 -12.283   3.968  1.00  0.00     0.026 C 
HETATM    8  C   UNL     1      38.836 -12.244   4.301  1.00  0.00     0.069 C 
HETATM    9  H   UNL     1      43.963 -11.969   3.072  1.00  0.00     0.165 HD
ENDROOT
BRANCH   6  10
HETATM   10  C   UNL     1      40.832 -13.969   5.752  1.00  0.00     0.256 C 
HETATM   11  N   UNL     1      41.142 -15.292   5.631  1.00  0.00    -0.321 N 
HETATM   12  H   UNL     1      40.607 -15.865   6.279  1.00  0.00     0.169 HD
HETATM   13  O   UNL     1      40.209 -13.606   6.750  1.00  0.00    -0.267 OA
BRANCH  11  14
HETATM   14  C   UNL     1      41.910 -16.030   4.711  1.00  0.00     0.068 A 
HETATM   15  C   UNL     1      41.300 -16.320   3.477  1.00  0.00     0.095 A 
HETATM   16  C   UNL     1      41.998 -16.986   2.470  1.00  0.00     0.039 A 
HETATM   17  C   UNL     1      43.323 -17.363   2.687  1.00  0.00     0.003 A 
HETATM   18  C   UNL     1      43.926 -17.107   3.919  1.00  0.00     0.002 A 
HETATM   19  C   UNL     1      43.219 -16.455   4.935  1.00  0.00     0.032 A 
BRANCH  15  20
HETATM   20  O   UNL     1      39.992 -15.933   3.298  1.00  0.00    -0.354 OA
HETATM   21  C   UNL     1      39.739 -15.541   1.948  1.00  0.00     0.210 C 
ENDBRANCH  15  20
ENDBRANCH  11  14
ENDBRANCH   6  10
BRANCH   5  22
HETATM   22  C   UNL     1      43.270 -11.925   5.716  1.00  0.00    -0.031 A 
HETATM   23  C   UNL     1      44.494 -12.266   6.315  1.00  0.00     0.010 A 
HETATM   24  C   UNL     1      45.075 -11.435   7.278  1.00  0.00     0.018 A 
HETATM   25  C   UNL     1      44.439 -10.253   7.668  1.00  0.00     0.039 A 
HETATM   26  C   UNL     1      43.195  -9.929   7.113  1.00  0.00     0.018 A 
HETATM   27  C   UNL     1      42.616 -10.760   6.147  1.00  0.00     0.010 A 
BRANCH  25  28
HETATM   28  C   UNL     1      45.139  -9.364   8.637  1.00  0.00     0.292 C 
HETATM   29  O   UNL     1      45.425  -8.200   8.397  1.00  0.00    -0.259 OA
BRANCH  28  30
HETATM   30  O   UNL     1      45.373 -10.012   9.805  1.00  0.00    -0.323 OA
HETATM   31  C   UNL     1      44.251 -10.042  10.687  1.00  0.00     0.213 C 
ENDBRANCH  28  30
ENDBRANCH  25  28
ENDBRANCH   5  22
BRANCH   1  32
HETATM   32  C   UNL     1      39.825 -11.048   1.851  1.00  0.00     0.133 C 
BRANCH  32  33
HETATM   33  C   UNL     1      39.469 -12.058   0.761  1.00  0.00     0.020 C 
BRANCH  33  34
HETATM   34  C   UNL     1      38.516 -11.416  -0.252  1.00  0.00    -0.003 C 
HETATM   35  C   UNL     1      38.063 -12.402  -1.313  1.00  0.00     0.005 C 
ENDBRANCH  33  34
ENDBRANCH  32  33
ENDBRANCH   1  32
TORSDOF 9
ENDMDL
MODEL 10
REMARK VINA RESULT:      -7.0      2.621      5.262
REMARK  9 active torsions:
REMARK  status: ('A' for Active; 'I' for Inactive)
REMARK    1  A    between atoms: C_2  and  C_3 
REMARK    2  A    between atoms: C_3  and  C_4 
REMARK    3  A    between atoms: C_4  and  N_5 
REMARK    4  A    between atoms: C_9  and  C_10 
REMARK    5  A    between atoms: C_13  and  C_14 
REMARK    6  A    between atoms: C_14  and  O_15 
REMARK    7  A    between atoms: C_20  and  C_21 
REMARK       I    between atoms: C_21  and  N_22 
REMARK    8  A    between atoms: N_22  and  C_23 
REMARK    9  A    between atoms: C_24  and  O_25 
ROOT
HETATM    1  N   UNL     1      40.810 -12.444  -0.914  1.00  0.00    -0.303 N 
HETATM    2  C   UNL     1      40.278 -13.699  -1.200  1.00  0.00     0.323 C 
HETATM    3  O   UNL     1      40.193 -14.177  -2.330  1.00  0.00    -0.247 OA
HETATM    4  N   UNL     1      39.787 -14.411  -0.153  1.00  0.00    -0.330 N 
HETATM    5  C   UNL     1      39.975 -14.093   1.241  1.00  0.00     0.160 C 
HETATM    6  C   UNL     1      40.360 -12.652   1.408  1.00  0.00     0.059 C 
HETATM    7  C   UNL     1      40.887 -11.932   0.393  1.00  0.00     0.026 C 
HETATM    8  C   UNL     1      41.581 -10.605   0.607  1.00  0.00     0.069 C 
HETATM    9  H   UNL     1      39.471 -15.338  -0.398  1.00  0.00     0.165 HD
ENDROOT
BRANCH   6  10
HETATM   10  C   UNL     1      40.173 -12.125   2.790  1.00  0.00     0.256 C 
HETATM   11  N   UNL     1      39.241 -11.169   3.072  1.00  0.00    -0.321 N 
HETATM   12  H   UNL     1      39.407 -10.737   3.979  1.00  0.00     0.169 HD
HETATM   13  O   UNL     1      40.880 -12.538   3.709  1.00  0.00    -0.267 OA
BRANCH  11  14
HETATM   14  C   UNL     1      38.219 -10.556   2.324  1.00  0.00     0.068 A 
HETATM   15  C   UNL     1      38.154  -9.152   2.386  1.00  0.00     0.095 A 
HETATM   16  C   UNL     1      37.222  -8.443   1.627  1.00  0.00     0.039 A 
HETATM   17  C   UNL     1      36.348  -9.136   0.791  1.00  0.00     0.003 A 
HETATM   18  C   UNL     1      36.385 -10.530   0.746  1.00  0.00     0.002 A 
HETATM   19  C   UNL     1      37.308 -11.241   1.521  1.00  0.00     0.032 A 
BRANCH  15  20
HETATM   20  O   UNL     1      39.031  -8.503   3.222  1.00  0.00    -0.354 OA
HETATM   21  C   UNL     1      39.869  -7.596   2.504  1.00  0.00     0.210 C 
ENDBRANCH  15  20
ENDBRANCH  11  14
ENDBRANCH   6  10
BRANCH   5  22
HETATM   22  C   UNL     1      40.984 -15.057   1.861  1.00  0.00    -0.031 A 
HETATM   23  C   UNL     1      40.646 -15.863   2.961  1.00  0.00     0.010 A 
HETATM   24  C   UNL     1      41.537 -16.827   3.443  1.00  0.00     0.018 A 
HETATM   25  C   UNL     1      42.789 -16.996   2.841  1.00  0.00     0.039 A 
HETATM   26  C   UNL     1      43.154 -16.164   1.776  1.00  0.00     0.018 A 
HETATM   27  C   UNL     1      42.259 -15.203   1.292  1.00  0.00     0.010 A 
BRANCH  25  28
HETATM   28  C   UNL     1      43.667 -18.090   3.341  1.00  0.00     0.292 C 
HETATM   29  O   UNL     1      44.201 -18.911   2.610  1.00  0.00    -0.259 OA
BRANCH  28  30
HETATM   30  O   UNL     1      43.809 -18.018   4.688  1.00  0.00    -0.323 OA
HETATM   31  C   UNL     1      43.971 -19.286   5.323  1.00  0.00     0.213 C 
ENDBRANCH  28  30
ENDBRANCH  25  28
ENDBRANCH   5  22
BRANCH   1  32
HETATM   32  C   UNL     1      41.067 -11.583  -2.075  1.00  0.00     0.133 C 
BRANCH  32  33
HETATM   33  C   UNL     1      40.062 -10.446  -2.254  1.00  0.00     0.020 C 
BRANCH  33  34
HETATM   34  C   UNL     1      38.968 -10.869  -3.240  1.00  0.00    -0.003 C 
HETATM   35  C   UNL     1      37.722 -11.366  -2.529  1.00  0.00     0.005 C 
ENDBRANCH  33  34
ENDBRANCH  32  33
ENDBRANCH   1  32
TORSDOF 9
ENDMDL
