MODEL 1
REMARK VINA RESULT:      -8.4      0.000      0.000
REMARK  7 active torsions:
REMARK  status: ('A' for Active; 'I' for Inactive)
REMARK    1  A    between atoms: CG_4  and  CB_5 
REMARK    2  A    between atoms: CB_5  and  CA_6 
REMARK    3  A    between atoms: CA_6  and  N_7 
REMARK    4  A    between atoms: CA_6  and  C_8 
REMARK       I    between atoms: N_7  and  C_14 
REMARK    5  A    between atoms: C_8  and  O_9 
REMARK       I    between atoms: C_14  and  N_15 
REMARK    6  A    between atoms: N_15  and  C_16 
REMARK    7  A    between atoms: C_22  and  C_23 
ROOT
ATOM      1  N   PHE A   1      42.713 -14.512   2.464  1.00  0.00    -0.336 N 
ATOM      2  H   PHE A   1      42.813 -14.342   1.469  1.00  0.00     0.164 HD
HETATM    3  C   UNK A   0      42.820 -13.356   3.179  1.00  0.00     0.321 C 
HETATM    4  N   UNK A   0      42.562 -13.456   4.517  1.00  0.00    -0.309 N 
HETATM    5  O   UNK A   0      43.139 -12.342   2.569  1.00  0.00    -0.247 OA
HETATM    6  H   UNK A   0      42.036 -14.262   4.811  1.00  0.00     0.170 HD
ENDROOT
BRANCH   1   7
ATOM      7  CA  PHE A   1      42.381 -15.869   2.897  1.00  0.00     0.113 C 
BRANCH   7   8
ATOM      8  CB  PHE A   1      43.162 -16.941   2.100  1.00  0.00     0.065 C 
BRANCH   8   9
ATOM      9  CG  PHE A   1      43.469 -18.224   2.839  1.00  0.00    -0.056 A 
ATOM     10  CD1 PHE A   1      43.364 -19.460   2.184  1.00  0.00     0.007 A 
ATOM     11  CE1 PHE A   1      43.632 -20.649   2.864  1.00  0.00     0.001 A 
ATOM     12  CZ  PHE A   1      44.018 -20.616   4.201  1.00  0.00     0.000 A 
ATOM     13  CE2 PHE A   1      44.142 -19.394   4.858  1.00  0.00     0.001 A 
ATOM     14  CD2 PHE A   1      43.872 -18.203   4.181  1.00  0.00     0.007 A 
ENDBRANCH   8   9
ENDBRANCH   7   8
BRANCH   7  15
ATOM     15  C   PHE A   1      40.858 -16.088   2.899  1.00  0.00     0.189 C 
BRANCH  15  16
ATOM     16  O   PHE A   1      40.262 -15.527   4.065  1.00  0.00    -0.399 OA
ATOM     17  H   PHE A   1      40.752 -15.859   4.836  1.00  0.00     0.209 HD
ENDBRANCH  15  16
ENDBRANCH   7  15
ENDBRANCH   1   7
BRANCH   4  18
HETATM   18  C   UNK A   0      42.791 -12.475   5.507  1.00  0.00     0.038 A 
HETATM   19  C   UNK A   0      43.893 -12.497   6.372  1.00  0.00     0.063 A 
HETATM   20  C   UNK A   0      44.007 -11.503   7.356  1.00  0.00     0.087 A 
HETATM   21  C   UNK A   0      43.033 -10.516   7.448  1.00  0.00     0.063 A 
HETATM   22  N   UNK A   0      44.971 -11.326   8.321  1.00  0.00    -0.228 NA
HETATM   23  N   UNK A   0      43.442  -9.729   8.493  1.00  0.00    -0.338 N 
HETATM   24  C   UNK A   0      41.926 -10.455   6.603  1.00  0.00     0.034 A 
HETATM   25  H   UNK A   0      42.969  -8.908   8.846  1.00  0.00     0.167 HD
HETATM   26  C   UNK A   0      44.607 -10.252   8.999  1.00  0.00     0.170 A 
HETATM   27  C   UNK A   0      41.825 -11.463   5.634  1.00  0.00     0.032 A 
BRANCH  26  28
HETATM   28  C   UNK A   0      45.286  -9.624  10.160  1.00  0.00     0.422 C 
HETATM   29  F   UNK A   0      44.394  -8.925  10.917  1.00  0.00    -0.206 F 
HETATM   30  F   UNK A   0      45.798 -10.577  10.988  1.00  0.00    -0.206 F 
ENDBRANCH  26  28
ENDBRANCH   4  18
TORSDOF 7
ENDMDL
MODEL 2
REMARK VINA RESULT:      -8.4      1.249      1.752
REMARK  7 active torsions:
REMARK  status: ('A' for Active; 'I' for Inactive)
REMARK    1  A    between atoms: CG_4  and  CB_5 
REMARK    2  A    between atoms: CB_5  and  CA_6 
REMARK    3  A    between atoms: CA_6  and  N_7 
REMARK    4  A    between atoms: CA_6  and  C_8 
REMARK       I    between atoms: N_7  and  C_14 
REMARK    5  A    between atoms: C_8  and  O_9 
REMARK       I    between atoms: C_14  and  N_15 
REMARK    6  A    between atoms: N_15  and  C_16 
REMARK    7  A    between atoms: C_22  and  C_23 
ROOT
ATOM      1  N   PHE A   1      41.098 -16.240   3.782  1.00  0.00    -0.336 N 
ATOM      2  H   PHE A   1      40.447 -16.953   4.093  1.00  0.00     0.164 HD
HETATM    3  C   UNK A   0      41.336 -15.323   4.762  1.00  0.00     0.321 C 
HETATM    4  N   UNK A   0      42.305 -14.398   4.490  1.00  0.00    -0.309 N 
HETATM    5  O   UNK A   0      40.667 -15.402   5.785  1.00  0.00    -0.247 OA
HETATM    6  H   UNK A   0      42.955 -14.634   3.759  1.00  0.00     0.170 HD
ENDROOT
BRANCH   1   7
ATOM      7  CA  PHE A   1      41.700 -16.394   2.458  1.00  0.00     0.113 C 
BRANCH   7   8
ATOM      8  CB  PHE A   1      43.194 -16.789   2.541  1.00  0.00     0.065 C 
BRANCH   8   9
ATOM      9  CG  PHE A   1      43.483 -18.186   3.042  1.00  0.00    -0.056 A 
ATOM     10  CD1 PHE A   1      43.294 -19.293   2.201  1.00  0.00     0.007 A 
ATOM     11  CE1 PHE A   1      43.545 -20.586   2.660  1.00  0.00     0.001 A 
ATOM     12  CZ  PHE A   1      43.999 -20.787   3.962  1.00  0.00     0.000 A 
ATOM     13  CE2 PHE A   1      44.206 -19.695   4.801  1.00  0.00     0.001 A 
ATOM     14  CD2 PHE A   1      43.953 -18.401   4.344  1.00  0.00     0.007 A 
ENDBRANCH   8   9
ENDBRANCH   7   8
BRANCH   7  15
ATOM     15  C   PHE A   1      41.436 -15.153   1.587  1.00  0.00     0.189 C 
BRANCH  15  16
ATOM     16  O   PHE A   1      42.649 -14.469   1.290  1.00  0.00    -0.399 OA
ATOM     17  H   PHE A   1      42.794 -14.527   0.330  1.00  0.00     0.209 HD
ENDBRANCH  15  16
ENDBRANCH   7  15
ENDBRANCH   1   7
BRANCH   4  18
HETATM   18  C   UNK A   0      42.608 -13.235   5.232  1.00  0.00     0.038 A 
HETATM   19  C   UNK A   0      43.610 -13.186   6.211  1.00  0.00     0.063 A 
HETATM   20  C   UNK A   0      43.803 -11.995   6.928  1.00  0.00     0.087 A 
HETATM   21  C   UNK A   0      43.006 -10.892   6.650  1.00  0.00     0.063 A 
HETATM   22  N   UNK A   0      44.695 -11.710   7.936  1.00  0.00    -0.228 NA
HETATM   23  N   UNK A   0      43.449  -9.924   7.515  1.00  0.00    -0.338 N 
HETATM   24  C   UNK A   0      42.005 -10.898   5.682  1.00  0.00     0.034 A 
HETATM   25  H   UNK A   0      43.092  -8.982   7.594  1.00  0.00     0.167 HD
HETATM   26  C   UNK A   0      44.459 -10.457   8.279  1.00  0.00     0.170 A 
HETATM   27  C   UNK A   0      41.820 -12.100   4.983  1.00  0.00     0.032 A 
BRANCH  26  28
HETATM   28  C   UNK A   0      45.129  -9.649   9.329  1.00  0.00     0.422 C 
HETATM   29  F   UNK A   0      45.549 -10.445  10.353  1.00  0.00    -0.206 F 
HETATM   30  F   UNK A   0      46.258  -9.065   8.837  1.00  0.00    -0.206 F 
ENDBRANCH  26  28
ENDBRANCH   4  18
TORSDOF 7
ENDMDL
MODEL 3
REMARK VINA RESULT:      -8.3      5.605      7.367
REMARK  7 active torsions:
REMARK  status: ('A' for Active; 'I' for Inactive)
REMARK    1  A    between atoms: CG_4  and  CB_5 
REMARK    2  A    between atoms: CB_5  and  CA_6 
REMARK    3  A    between atoms: CA_6  and  N_7 
REMARK    4  A    between atoms: CA_6  and  C_8 
REMARK       I    between atoms: N_7  and  C_14 
REMARK    5  A    between atoms: C_8  and  O_9 
REMARK       I    between atoms: C_14  and  N_15 
REMARK    6  A    between atoms: N_15  and  C_16 
REMARK    7  A    between atoms: C_22  and  C_23 
ROOT
ATOM      1  N   PHE A   1      41.979 -16.658   6.868  1.00  0.00    -0.336 N 
ATOM      2  H   PHE A   1      41.528 -16.886   7.748  1.00  0.00     0.164 HD
HETATM    3  C   UNK A   0      41.153 -15.936   6.060  1.00  0.00     0.321 C 
HETATM    4  N   UNK A   0      41.712 -15.460   4.907  1.00  0.00    -0.309 N 
HETATM    5  O   UNK A   0      39.994 -15.781   6.428  1.00  0.00    -0.247 OA
HETATM    6  H   UNK A   0      42.718 -15.411   4.886  1.00  0.00     0.170 HD
ENDROOT
BRANCH   1   7
ATOM      7  CA  PHE A   1      43.383 -17.034   6.700  1.00  0.00     0.113 C 
BRANCH   7   8
ATOM      8  CB  PHE A   1      43.561 -18.563   6.546  1.00  0.00     0.065 C 
BRANCH   8   9
ATOM      9  CG  PHE A   1      43.660 -19.079   5.128  1.00  0.00    -0.056 A 
ATOM     10  CD1 PHE A   1      43.821 -20.452   4.885  1.00  0.00     0.007 A 
ATOM     11  CE1 PHE A   1      43.927 -20.934   3.579  1.00  0.00     0.001 A 
ATOM     12  CZ  PHE A   1      43.864 -20.052   2.504  1.00  0.00     0.000 A 
ATOM     13  CE2 PHE A   1      43.687 -18.690   2.732  1.00  0.00     0.001 A 
ATOM     14  CD2 PHE A   1      43.583 -18.205   4.036  1.00  0.00     0.007 A 
ENDBRANCH   8   9
ENDBRANCH   7   8
BRANCH   7  15
ATOM     15  C   PHE A   1      44.253 -16.418   7.810  1.00  0.00     0.189 C 
BRANCH  15  16
ATOM     16  O   PHE A   1      43.458 -16.022   8.922  1.00  0.00    -0.399 OA
ATOM     17  H   PHE A   1      43.979 -16.180   9.728  1.00  0.00     0.209 HD
ENDBRANCH  15  16
ENDBRANCH   7  15
ENDBRANCH   1   7
BRANCH   4  18
HETATM   18  C   UNK A   0      41.044 -14.864   3.815  1.00  0.00     0.038 A 
HETATM   19  C   UNK A   0      40.937 -15.468   2.556  1.00  0.00     0.063 A 
HETATM   20  C   UNK A   0      40.294 -14.774   1.519  1.00  0.00     0.087 A 
HETATM   21  C   UNK A   0      39.771 -13.510   1.764  1.00  0.00     0.063 A 
HETATM   22  N   UNK A   0      40.085 -15.142   0.211  1.00  0.00    -0.228 NA
HETATM   23  N   UNK A   0      39.229 -13.126   0.564  1.00  0.00    -0.338 N 
HETATM   24  C   UNK A   0      39.850 -12.877   3.003  1.00  0.00     0.034 A 
HETATM   25  H   UNK A   0      38.760 -12.253   0.370  1.00  0.00     0.167 HD
HETATM   26  C   UNK A   0      39.445 -14.130  -0.348  1.00  0.00     0.170 A 
HETATM   27  C   UNK A   0      40.506 -13.583   4.022  1.00  0.00     0.032 A 
BRANCH  26  28
HETATM   28  C   UNK A   0      38.988 -13.996  -1.755  1.00  0.00     0.422 C 
HETATM   29  F   UNK A   0      38.775 -15.222  -2.310  1.00  0.00    -0.206 F 
HETATM   30  F   UNK A   0      37.785 -13.359  -1.808  1.00  0.00    -0.206 F 
ENDBRANCH  26  28
ENDBRANCH   4  18
TORSDOF 7
ENDMDL
MODEL 4
REMARK VINA RESULT:      -8.2      4.319      8.964
REMARK  7 active torsions:
REMARK  status: ('A' for Active; 'I' for Inactive)
REMARK    1  A    between atoms: CG_4  and  CB_5 
REMARK    2  A    between atoms: CB_5  and  CA_6 
REMARK    3  A    between atoms: CA_6  and  N_7 
REMARK    4  A    between atoms: CA_6  and  C_8 
REMARK       I    between atoms: N_7  and  C_14 
REMARK    5  A    between atoms: C_8  and  O_9 
REMARK       I    between atoms: C_14  and  N_15 
REMARK    6  A    between atoms: N_15  and  C_16 
REMARK    7  A    between atoms: C_22  and  C_23 
ROOT
ATOM      1  N   PHE A   1      41.425 -12.035   6.362  1.00  0.00    -0.336 N 
ATOM      2  H   PHE A   1      40.490 -11.816   6.690  1.00  0.00     0.164 HD
HETATM    3  C   UNK A   0      41.534 -13.350   6.018  1.00  0.00     0.321 C 
HETATM    4  N   UNK A   0      42.714 -13.717   5.434  1.00  0.00    -0.309 N 
HETATM    5  O   UNK A   0      40.580 -14.080   6.263  1.00  0.00    -0.247 OA
HETATM    6  H   UNK A   0      43.265 -12.975   5.036  1.00  0.00     0.170 HD
ENDROOT
BRANCH   1   7
ATOM      7  CA  PHE A   1      42.380 -10.935   6.229  1.00  0.00     0.113 C 
BRANCH   7   8
ATOM      8  CB  PHE A   1      42.205  -9.875   7.342  1.00  0.00     0.065 C 
BRANCH   8   9
ATOM      9  CG  PHE A   1      43.300  -9.821   8.384  1.00  0.00    -0.056 A 
ATOM     10  CD1 PHE A   1      44.613 -10.187   8.049  1.00  0.00     0.007 A 
ATOM     11  CE1 PHE A   1      45.626 -10.153   9.009  1.00  0.00     0.001 A 
ATOM     12  CZ  PHE A   1      45.341  -9.743  10.308  1.00  0.00     0.000 A 
ATOM     13  CE2 PHE A   1      44.045  -9.361  10.648  1.00  0.00     0.001 A 
ATOM     14  CD2 PHE A   1      43.030  -9.397   9.691  1.00  0.00     0.007 A 
ENDBRANCH   8   9
ENDBRANCH   7   8
BRANCH   7  15
ATOM     15  C   PHE A   1      42.347 -10.350   4.806  1.00  0.00     0.189 C 
BRANCH  15  16
ATOM     16  O   PHE A   1      43.398 -10.884   4.009  1.00  0.00    -0.399 OA
ATOM     17  H   PHE A   1      43.354 -10.456   3.137  1.00  0.00     0.209 HD
ENDBRANCH  15  16
ENDBRANCH   7  15
ENDBRANCH   1   7
BRANCH   4  18
HETATM   18  C   UNK A   0      43.163 -15.029   5.167  1.00  0.00     0.038 A 
HETATM   19  C   UNK A   0      42.881 -15.711   3.975  1.00  0.00     0.063 A 
HETATM   20  C   UNK A   0      43.332 -17.032   3.824  1.00  0.00     0.087 A 
HETATM   21  C   UNK A   0      44.052 -17.632   4.850  1.00  0.00     0.063 A 
HETATM   22  N   UNK A   0      43.166 -17.903   2.772  1.00  0.00    -0.228 NA
HETATM   23  N   UNK A   0      44.326 -18.891   4.384  1.00  0.00    -0.338 N 
HETATM   24  C   UNK A   0      44.358 -16.986   6.046  1.00  0.00     0.034 A 
HETATM   25  H   UNK A   0      44.838 -19.613   4.872  1.00  0.00     0.167 HD
HETATM   26  C   UNK A   0      43.770 -19.020   3.134  1.00  0.00     0.170 A 
HETATM   27  C   UNK A   0      43.889 -15.671   6.183  1.00  0.00     0.032 A 
BRANCH  26  28
HETATM   28  C   UNK A   0      43.882 -20.292   2.376  1.00  0.00     0.422 C 
HETATM   29  F   UNK A   0      43.979 -21.352   3.227  1.00  0.00    -0.206 F 
HETATM   30  F   UNK A   0      42.753 -20.515   1.646  1.00  0.00    -0.206 F 
ENDBRANCH  26  28
ENDBRANCH   4  18
TORSDOF 7
ENDMDL
MODEL 5
REMARK VINA RESULT:      -7.7      5.625      8.005
REMARK  7 active torsions:
REMARK  status: ('A' for Active; 'I' for Inactive)
REMARK    1  A    between atoms: CG_4  and  CB_5 
REMARK    2  A    between atoms: CB_5  and  CA_6 
REMARK    3  A    between atoms: CA_6  and  N_7 
REMARK    4  A    between atoms: CA_6  and  C_8 
REMARK       I    between atoms: N_7  and  C_14 
REMARK    5  A    between atoms: C_8  and  O_9 
REMARK       I    between atoms: C_14  and  N_15 
REMARK    6  A    between atoms: N_15  and  C_16 
REMARK    7  A    between atoms: C_22  and  C_23 
ROOT
ATOM      1  N   PHE A   1      41.459 -14.020   5.720  1.00  0.00    -0.336 N 
ATOM      2  H   PHE A   1      40.939 -13.792   6.560  1.00  0.00     0.164 HD
HETATM    3  C   UNK A   0      40.852 -13.517   4.608  1.00  0.00     0.321 C 
HETATM    4  N   UNK A   0      41.544 -13.651   3.437  1.00  0.00    -0.309 N 
HETATM    5  O   UNK A   0      39.750 -12.999   4.750  1.00  0.00    -0.247 OA
HETATM    6  H   UNK A   0      42.533 -13.820   3.521  1.00  0.00     0.170 HD
ENDROOT
BRANCH   1   7
ATOM      7  CA  PHE A   1      42.741 -14.709   5.872  1.00  0.00     0.113 C 
BRANCH   7   8
ATOM      8  CB  PHE A   1      42.564 -16.239   6.025  1.00  0.00     0.065 C 
BRANCH   8   9
ATOM      9  CG  PHE A   1      42.990 -17.077   4.840  1.00  0.00    -0.056 A 
ATOM     10  CD1 PHE A   1      43.917 -18.117   5.007  1.00  0.00     0.007 A 
ATOM     11  CE1 PHE A   1      44.325 -18.885   3.916  1.00  0.00     0.001 A 
ATOM     12  CZ  PHE A   1      43.804 -18.630   2.650  1.00  0.00     0.000 A 
ATOM     13  CE2 PHE A   1      42.871 -17.611   2.475  1.00  0.00     0.001 A 
ATOM     14  CD2 PHE A   1      42.463 -16.840   3.564  1.00  0.00     0.007 A 
ENDBRANCH   8   9
ENDBRANCH   7   8
BRANCH   7  15
ATOM     15  C   PHE A   1      43.578 -14.069   6.993  1.00  0.00     0.189 C 
BRANCH  15  16
ATOM     16  O   PHE A   1      43.199 -14.576   8.268  1.00  0.00    -0.399 OA
ATOM     17  H   PHE A   1      42.308 -14.240   8.466  1.00  0.00     0.209 HD
ENDBRANCH  15  16
ENDBRANCH   7  15
ENDBRANCH   1   7
BRANCH   4  18
HETATM   18  C   UNK A   0      41.070 -13.403   2.130  1.00  0.00     0.038 A 
HETATM   19  C   UNK A   0      40.401 -14.364   1.360  1.00  0.00     0.063 A 
HETATM   20  C   UNK A   0      40.010 -14.036   0.052  1.00  0.00     0.087 A 
HETATM   21  C   UNK A   0      40.286 -12.770  -0.448  1.00  0.00     0.063 A 
HETATM   22  N   UNK A   0      39.368 -14.803  -0.893  1.00  0.00    -0.228 NA
HETATM   23  N   UNK A   0      39.784 -12.789  -1.723  1.00  0.00    -0.338 N 
HETATM   24  C   UNK A   0      40.943 -11.785   0.288  1.00  0.00     0.034 A 
HETATM   25  H   UNK A   0      39.809 -12.029  -2.389  1.00  0.00     0.167 HD
HETATM   26  C   UNK A   0      39.247 -14.032  -1.958  1.00  0.00     0.170 A 
HETATM   27  C   UNK A   0      41.335 -12.136   1.588  1.00  0.00     0.032 A 
BRANCH  26  28
HETATM   28  C   UNK A   0      38.641 -14.366  -3.271  1.00  0.00     0.422 C 
HETATM   29  F   UNK A   0      38.403 -15.705  -3.364  1.00  0.00    -0.206 F 
HETATM   30  F   UNK A   0      37.423 -13.770  -3.402  1.00  0.00    -0.206 F 
ENDBRANCH  26  28
ENDBRANCH   4  18
TORSDOF 7
ENDMDL
MODEL 6
REMARK VINA RESULT:      -7.7      5.113      8.188
REMARK  7 active torsions:
REMARK  status: ('A' for Active; 'I' for Inactive)
REMARK    1  A    between atoms: CG_4  and  CB_5 
REMARK    2  A    between atoms: CB_5  and  CA_6 
REMARK    3  A    between atoms: CA_6  and  N_7 
REMARK    4  A    between atoms: CA_6  and  C_8 
REMARK       I    between atoms: N_7  and  C_14 
REMARK    5  A    between atoms: C_8  and  O_9 
REMARK       I    between atoms: C_14  and  N_15 
REMARK    6  A    between atoms: N_15  and  C_16 
REMARK    7  A    between atoms: C_22  and  C_23 
ROOT
ATOM      1  N   PHE A   1      42.491 -10.777   2.447  1.00  0.00    -0.336 N 
ATOM      2  H   PHE A   1      43.067  -9.961   2.624  1.00  0.00     0.164 HD
HETATM    3  C   UNK A   0      43.034 -11.898   2.999  1.00  0.00     0.321 C 
HETATM    4  N   UNK A   0      42.267 -13.027   2.935  1.00  0.00    -0.309 N 
HETATM    5  O   UNK A   0      44.151 -11.800   3.494  1.00  0.00    -0.247 OA
HETATM    6  H   UNK A   0      41.282 -12.889   2.775  1.00  0.00     0.170 HD
ENDROOT
BRANCH   1   7
ATOM      7  CA  PHE A   1      41.210 -10.577   1.768  1.00  0.00     0.113 C 
BRANCH   7   8
ATOM      8  CB  PHE A   1      41.387 -10.358   0.246  1.00  0.00     0.065 C 
BRANCH   8   9
ATOM      9  CG  PHE A   1      41.020 -11.529  -0.639  1.00  0.00    -0.056 A 
ATOM     10  CD1 PHE A   1      40.454 -12.686  -0.082  1.00  0.00     0.007 A 
ATOM     11  CE1 PHE A   1      40.126 -13.775  -0.891  1.00  0.00     0.001 A 
ATOM     12  CZ  PHE A   1      40.350 -13.716  -2.264  1.00  0.00     0.000 A 
ATOM     13  CE2 PHE A   1      40.896 -12.567  -2.830  1.00  0.00     0.001 A 
ATOM     14  CD2 PHE A   1      41.227 -11.477  -2.023  1.00  0.00     0.007 A 
ENDBRANCH   8   9
ENDBRANCH   7   8
BRANCH   7  15
ATOM     15  C   PHE A   1      40.388  -9.475   2.459  1.00  0.00     0.189 C 
BRANCH  15  16
ATOM     16  O   PHE A   1      41.235  -8.453   2.976  1.00  0.00    -0.399 OA
ATOM     17  H   PHE A   1      41.083  -8.401   3.935  1.00  0.00     0.209 HD
ENDBRANCH  15  16
ENDBRANCH   7  15
ENDBRANCH   1   7
BRANCH   4  18
HETATM   18  C   UNK A   0      42.661 -14.347   3.244  1.00  0.00     0.038 A 
HETATM   19  C   UNK A   0      42.758 -15.365   2.286  1.00  0.00     0.063 A 
HETATM   20  C   UNK A   0      43.113 -16.659   2.700  1.00  0.00     0.087 A 
HETATM   21  C   UNK A   0      43.366 -16.902   4.045  1.00  0.00     0.063 A 
HETATM   22  N   UNK A   0      43.251 -17.812   1.963  1.00  0.00    -0.228 NA
HETATM   23  N   UNK A   0      43.673 -18.237   4.098  1.00  0.00    -0.338 N 
HETATM   24  C   UNK A   0      43.287 -15.916   5.026  1.00  0.00     0.034 A 
HETATM   25  H   UNK A   0      43.912 -18.764   4.926  1.00  0.00     0.167 HD
HETATM   26  C   UNK A   0      43.585 -18.752   2.828  1.00  0.00     0.170 A 
HETATM   27  C   UNK A   0      42.921 -14.633   4.594  1.00  0.00     0.032 A 
BRANCH  26  28
HETATM   28  C   UNK A   0      43.842 -20.191   2.568  1.00  0.00     0.422 C 
HETATM   29  F   UNK A   0      43.483 -20.946   3.644  1.00  0.00    -0.206 F 
HETATM   30  F   UNK A   0      43.071 -20.637   1.537  1.00  0.00    -0.206 F 
ENDBRANCH  26  28
ENDBRANCH   4  18
TORSDOF 7
ENDMDL
MODEL 7
REMARK VINA RESULT:      -7.6      4.850      7.799
REMARK  7 active torsions:
REMARK  status: ('A' for Active; 'I' for Inactive)
REMARK    1  A    between atoms: CG_4  and  CB_5 
REMARK    2  A    between atoms: CB_5  and  CA_6 
REMARK    3  A    between atoms: CA_6  and  N_7 
REMARK    4  A    between atoms: CA_6  and  C_8 
REMARK       I    between atoms: N_7  and  C_14 
REMARK    5  A    between atoms: C_8  and  O_9 
REMARK       I    between atoms: C_14  and  N_15 
REMARK    6  A    between atoms: N_15  and  C_16 
REMARK    7  A    between atoms: C_22  and  C_23 
ROOT
ATOM      1  N   PHE A   1      42.355 -11.050   2.393  1.00  0.00    -0.336 N 
ATOM      2  H   PHE A   1      42.915 -10.256   2.685  1.00  0.00     0.164 HD
HETATM    3  C   UNK A   0      42.888 -12.223   2.839  1.00  0.00     0.321 C 
HETATM    4  N   UNK A   0      42.136 -13.342   2.617  1.00  0.00    -0.309 N 
HETATM    5  O   UNK A   0      43.982 -12.175   3.389  1.00  0.00    -0.247 OA
HETATM    6  H   UNK A   0      41.157 -13.193   2.432  1.00  0.00     0.170 HD
ENDROOT
BRANCH   1   7
ATOM      7  CA  PHE A   1      41.102 -10.783   1.687  1.00  0.00     0.113 C 
BRANCH   7   8
ATOM      8  CB  PHE A   1      41.324 -10.565   0.172  1.00  0.00     0.065 C 
BRANCH   8   9
ATOM      9  CG  PHE A   1      40.936 -11.719  -0.727  1.00  0.00    -0.056 A 
ATOM     10  CD1 PHE A   1      41.227 -11.675  -2.099  1.00  0.00     0.007 A 
ATOM     11  CE1 PHE A   1      40.860 -12.729  -2.936  1.00  0.00     0.001 A 
ATOM     12  CZ  PHE A   1      40.208 -13.842  -2.411  1.00  0.00     0.000 A 
ATOM     13  CE2 PHE A   1      39.929 -13.905  -1.048  1.00  0.00     0.001 A 
ATOM     14  CD2 PHE A   1      40.294 -12.850  -0.209  1.00  0.00     0.007 A 
ENDBRANCH   8   9
ENDBRANCH   7   8
BRANCH   7  15
ATOM     15  C   PHE A   1      40.321  -9.645   2.367  1.00  0.00     0.189 C 
BRANCH  15  16
ATOM     16  O   PHE A   1      41.079  -8.440   2.379  1.00  0.00    -0.399 OA
ATOM     17  H   PHE A   1      41.723  -8.503   3.104  1.00  0.00     0.209 HD
ENDBRANCH  15  16
ENDBRANCH   7  15
ENDBRANCH   1   7
BRANCH   4  18
HETATM   18  C   UNK A   0      42.531 -14.686   2.792  1.00  0.00     0.038 A 
HETATM   19  C   UNK A   0      42.631 -15.302   4.047  1.00  0.00     0.063 A 
HETATM   20  C   UNK A   0      43.080 -16.630   4.121  1.00  0.00     0.087 A 
HETATM   21  C   UNK A   0      43.407 -17.307   2.953  1.00  0.00     0.063 A 
HETATM   22  N   UNK A   0      43.279 -17.431   5.221  1.00  0.00    -0.228 NA
HETATM   23  N   UNK A   0      43.802 -18.549   3.378  1.00  0.00    -0.338 N 
HETATM   24  C   UNK A   0      43.316 -16.734   1.686  1.00  0.00     0.034 A 
HETATM   25  H   UNK A   0      44.114 -19.312   2.793  1.00  0.00     0.167 HD
HETATM   26  C   UNK A   0      43.720 -18.583   4.749  1.00  0.00     0.170 A 
HETATM   27  C   UNK A   0      42.876 -15.403   1.635  1.00  0.00     0.032 A 
BRANCH  26  28
HETATM   28  C   UNK A   0      44.106 -19.800   5.507  1.00  0.00     0.422 C 
HETATM   29  F   UNK A   0      43.147 -20.121   6.421  1.00  0.00    -0.206 F 
HETATM   30  F   UNK A   0      44.190 -20.876   4.676  1.00  0.00    -0.206 F 
ENDBRANCH  26  28
ENDBRANCH   4  18
TORSDOF 7
ENDMDL
MODEL 8
REMARK VINA RESULT:      -7.5      5.290      7.596
REMARK  7 active torsions:
REMARK  status: ('A' for Active; 'I' for Inactive)
REMARK    1  A    between atoms: CG_4  and  CB_5 
REMARK    2  A    between atoms: CB_5  and  CA_6 
REMARK    3  A    between atoms: CA_6  and  N_7 
REMARK    4  A    between atoms: CA_6  and  C_8 
REMARK       I    between atoms: N_7  and  C_14 
REMARK    5  A    between atoms: C_8  and  O_9 
REMARK       I    between atoms: C_14  and  N_15 
REMARK    6  A    between atoms: N_15  and  C_16 
REMARK    7  A    between atoms: C_22  and  C_23 
ROOT
ATOM      1  N   PHE A   1      41.356 -14.029   5.636  1.00  0.00    -0.336 N 
ATOM      2  H   PHE A   1      40.862 -13.619   6.421  1.00  0.00     0.164 HD
HETATM    3  C   UNK A   0      40.853 -13.587   4.448  1.00  0.00     0.321 C 
HETATM    4  N   UNK A   0      41.539 -13.973   3.330  1.00  0.00    -0.309 N 
HETATM    5  O   UNK A   0      39.842 -12.896   4.484  1.00  0.00    -0.247 OA
HETATM    6  H   UNK A   0      42.488 -14.277   3.471  1.00  0.00     0.170 HD
ENDROOT
BRANCH   1   7
ATOM      7  CA  PHE A   1      42.513 -14.877   5.922  1.00  0.00     0.113 C 
BRANCH   7   8
ATOM      8  CB  PHE A   1      42.151 -16.381   5.898  1.00  0.00     0.065 C 
BRANCH   8   9
ATOM      9  CG  PHE A   1      42.867 -17.219   4.862  1.00  0.00    -0.056 A 
ATOM     10  CD1 PHE A   1      42.497 -17.141   3.511  1.00  0.00     0.007 A 
ATOM     11  CE1 PHE A   1      43.144 -17.921   2.551  1.00  0.00     0.001 A 
ATOM     12  CZ  PHE A   1      44.174 -18.779   2.929  1.00  0.00     0.000 A 
ATOM     13  CE2 PHE A   1      44.562 -18.852   4.265  1.00  0.00     0.001 A 
ATOM     14  CD2 PHE A   1      43.914 -18.075   5.227  1.00  0.00     0.007 A 
ENDBRANCH   8   9
ENDBRANCH   7   8
BRANCH   7  15
ATOM     15  C   PHE A   1      43.215 -14.430   7.216  1.00  0.00     0.189 C 
BRANCH  15  16
ATOM     16  O   PHE A   1      43.206 -13.012   7.339  1.00  0.00    -0.399 OA
ATOM     17  H   PHE A   1      42.707 -12.788   8.143  1.00  0.00     0.209 HD
ENDBRANCH  15  16
ENDBRANCH   7  15
ENDBRANCH   1   7
BRANCH   4  18
HETATM   18  C   UNK A   0      41.132 -13.827   1.986  1.00  0.00     0.038 A 
HETATM   19  C   UNK A   0      41.324 -12.652   1.247  1.00  0.00     0.063 A 
HETATM   20  C   UNK A   0      40.840 -12.589  -0.069  1.00  0.00     0.087 A 
HETATM   21  C   UNK A   0      40.191 -13.690  -0.614  1.00  0.00     0.063 A 
HETATM   22  N   UNK A   0      40.887 -11.555  -0.975  1.00  0.00    -0.228 NA
HETATM   23  N   UNK A   0      39.854 -13.295  -1.882  1.00  0.00    -0.338 N 
HETATM   24  C   UNK A   0      39.986 -14.878   0.085  1.00  0.00     0.034 A 
HETATM   25  H   UNK A   0      39.364 -13.847  -2.572  1.00  0.00     0.167 HD
HETATM   26  C   UNK A   0      40.281 -12.001  -2.060  1.00  0.00     0.170 A 
HETATM   27  C   UNK A   0      40.467 -14.917   1.402  1.00  0.00     0.032 A 
BRANCH  26  28
HETATM   28  C   UNK A   0      40.039 -11.286  -3.339  1.00  0.00     0.422 C 
HETATM   29  F   UNK A   0      38.949 -10.475  -3.236  1.00  0.00    -0.206 F 
HETATM   30  F   UNK A   0      41.082 -10.458  -3.629  1.00  0.00    -0.206 F 
ENDBRANCH  26  28
ENDBRANCH   4  18
TORSDOF 7
ENDMDL
MODEL 9
REMARK VINA RESULT:      -7.3      4.441      9.678
REMARK  7 active torsions:
REMARK  status: ('A' for Active; 'I' for Inactive)
REMARK    1  A    between atoms: CG_4  and  CB_5 
REMARK    2  A    between atoms: CB_5  and  CA_6 
REMARK    3  A    between atoms: CA_6  and  N_7 
REMARK    4  A    between atoms: CA_6  and  C_8 
REMARK       I    between atoms: N_7  and  C_14 
REMARK    5  A    between atoms: C_8  and  O_9 
REMARK       I    between atoms: C_14  and  N_15 
REMARK    6  A    between atoms: N_15  and  C_16 
REMARK    7  A    between atoms: C_22  and  C_23 
ROOT
ATOM      1  N   PHE A   1      44.780  -9.929   9.231  1.00  0.00    -0.336 N 
ATOM      2  H   PHE A   1      45.715  -9.698   9.547  1.00  0.00     0.164 HD
HETATM    3  C   UNK A   0      44.806 -10.892   8.267  1.00  0.00     0.321 C 
HETATM    4  N   UNK A   0      43.589 -11.372   7.870  1.00  0.00    -0.309 N 
HETATM    5  O   UNK A   0      45.902 -11.237   7.840  1.00  0.00    -0.247 OA
HETATM    6  H   UNK A   0      42.820 -11.216   8.502  1.00  0.00     0.170 HD
ENDROOT
BRANCH   1   7
ATOM      7  CA  PHE A   1      43.650  -9.296   9.912  1.00  0.00     0.113 C 
BRANCH   7   8
ATOM      8  CB  PHE A   1      43.189 -10.105  11.147  1.00  0.00     0.065 C 
BRANCH   8   9
ATOM      9  CG  PHE A   1      42.817  -9.295  12.369  1.00  0.00    -0.056 A 
ATOM     10  CD1 PHE A   1      43.512  -8.115  12.673  1.00  0.00     0.007 A 
ATOM     11  CE1 PHE A   1      43.184  -7.370  13.807  1.00  0.00     0.001 A 
ATOM     12  CZ  PHE A   1      42.152  -7.790  14.642  1.00  0.00     0.000 A 
ATOM     13  CE2 PHE A   1      41.444  -8.951  14.341  1.00  0.00     0.001 A 
ATOM     14  CD2 PHE A   1      41.772  -9.699  13.210  1.00  0.00     0.007 A 
ENDBRANCH   8   9
ENDBRANCH   7   8
BRANCH   7  15
ATOM     15  C   PHE A   1      42.517  -8.982   8.920  1.00  0.00     0.189 C 
BRANCH  15  16
ATOM     16  O   PHE A   1      41.380  -9.803   9.166  1.00  0.00    -0.399 OA
ATOM     17  H   PHE A   1      41.559 -10.321   9.970  1.00  0.00     0.209 HD
ENDBRANCH  15  16
ENDBRANCH   7  15
ENDBRANCH   1   7
BRANCH   4  18
HETATM   18  C   UNK A   0      43.319 -12.213   6.768  1.00  0.00     0.038 A 
HETATM   19  C   UNK A   0      43.399 -13.610   6.828  1.00  0.00     0.063 A 
HETATM   20  C   UNK A   0      43.159 -14.357   5.664  1.00  0.00     0.087 A 
HETATM   21  C   UNK A   0      42.841 -13.699   4.482  1.00  0.00     0.063 A 
HETATM   22  N   UNK A   0      43.198 -15.718   5.469  1.00  0.00    -0.228 NA
HETATM   23  N   UNK A   0      42.678 -14.705   3.565  1.00  0.00    -0.338 N 
HETATM   24  C   UNK A   0      42.745 -12.313   4.382  1.00  0.00     0.034 A 
HETATM   25  H   UNK A   0      42.441 -14.594   2.589  1.00  0.00     0.167 HD
HETATM   26  C   UNK A   0      42.909 -15.905   4.193  1.00  0.00     0.170 A 
HETATM   27  C   UNK A   0      42.999 -11.584   5.554  1.00  0.00     0.032 A 
BRANCH  26  28
HETATM   28  C   UNK A   0      42.828 -17.186   3.447  1.00  0.00     0.422 C 
HETATM   29  F   UNK A   0      41.672 -17.251   2.729  1.00  0.00    -0.206 F 
HETATM   30  F   UNK A   0      43.831 -17.270   2.529  1.00  0.00    -0.206 F 
ENDBRANCH  26  28
ENDBRANCH   4  18
TORSDOF 7
ENDMDL
MODEL 10
REMARK VINA RESULT:      -7.3      4.384      9.430
REMARK  7 active torsions:
REMARK  status: ('A' for Active; 'I' for Inactive)
REMARK    1  A    between atoms: CG_4  and  CB_5 
REMARK    2  A    between atoms: CB_5  and  CA_6 
REMARK    3  A    between atoms: CA_6  and  N_7 
REMARK    4  A    between atoms: CA_6  and  C_8 
REMARK       I    between atoms: N_7  and  C_14 
REMARK    5  A    between atoms: C_8  and  O_9 
REMARK       I    between atoms: C_14  and  N_15 
REMARK    6  A    between atoms: N_15  and  C_16 
REMARK    7  A    between atoms: C_22  and  C_23 
ROOT
ATOM      1  N   PHE A   1      43.055  -9.908   7.492  1.00  0.00    -0.336 N 
ATOM      2  H   PHE A   1      42.963  -9.039   6.975  1.00  0.00     0.164 HD
HETATM    3  C   UNK A   0      42.995 -10.987   6.661  1.00  0.00     0.321 C 
HETATM    4  N   UNK A   0      43.245 -12.200   7.240  1.00  0.00    -0.309 N 
HETATM    5  O   UNK A   0      42.720 -10.782   5.485  1.00  0.00    -0.247 OA
HETATM    6  H   UNK A   0      43.736 -12.182   8.119  1.00  0.00     0.170 HD
ENDROOT
BRANCH   1   7
ATOM      7  CA  PHE A   1      43.327  -9.827   8.927  1.00  0.00     0.113 C 
BRANCH   7   8
ATOM      8  CB  PHE A   1      42.486  -8.727   9.617  1.00  0.00     0.065 C 
BRANCH   8   9
ATOM      9  CG  PHE A   1      42.407  -8.801  11.125  1.00  0.00    -0.056 A 
ATOM     10  CD1 PHE A   1      43.162  -7.922  11.917  1.00  0.00     0.007 A 
ATOM     11  CE1 PHE A   1      43.105  -7.994  13.309  1.00  0.00     0.001 A 
ATOM     12  CZ  PHE A   1      42.287  -8.937  13.926  1.00  0.00     0.000 A 
ATOM     13  CE2 PHE A   1      41.520  -9.804  13.151  1.00  0.00     0.001 A 
ATOM     14  CD2 PHE A   1      41.577  -9.736  11.758  1.00  0.00     0.007 A 
ENDBRANCH   8   9
ENDBRANCH   7   8
BRANCH   7  15
ATOM     15  C   PHE A   1      44.838  -9.707   9.193  1.00  0.00     0.189 C 
BRANCH  15  16
ATOM     16  O   PHE A   1      45.469 -10.982   9.136  1.00  0.00    -0.399 OA
ATOM     17  H   PHE A   1      46.307 -10.919   9.626  1.00  0.00     0.209 HD
ENDBRANCH  15  16
ENDBRANCH   7  15
ENDBRANCH   1   7
BRANCH   4  18
HETATM   18  C   UNK A   0      43.056 -13.476   6.666  1.00  0.00     0.038 A 
HETATM   19  C   UNK A   0      44.053 -14.461   6.635  1.00  0.00     0.063 A 
HETATM   20  C   UNK A   0      43.783 -15.682   5.998  1.00  0.00     0.087 A 
HETATM   21  C   UNK A   0      42.537 -15.893   5.421  1.00  0.00     0.063 A 
HETATM   22  N   UNK A   0      44.593 -16.780   5.821  1.00  0.00    -0.228 NA
HETATM   23  N   UNK A   0      42.613 -17.157   4.896  1.00  0.00    -0.338 N 
HETATM   24  C   UNK A   0      41.518 -14.943   5.437  1.00  0.00     0.034 A 
HETATM   25  H   UNK A   0      41.882 -17.644   4.397  1.00  0.00     0.167 HD
HETATM   26  C   UNK A   0      43.868 -17.656   5.149  1.00  0.00     0.170 A 
HETATM   27  C   UNK A   0      41.811 -13.725   6.068  1.00  0.00     0.032 A 
BRANCH  26  28
HETATM   28  C   UNK A   0      44.262 -19.008   4.679  1.00  0.00     0.422 C 
HETATM   29  F   UNK A   0      43.931 -19.953   5.604  1.00  0.00    -0.206 F 
HETATM   30  F   UNK A   0      43.572 -19.344   3.554  1.00  0.00    -0.206 F 
ENDBRANCH  26  28
ENDBRANCH   4  18
TORSDOF 7
ENDMDL
