MODEL 1
REMARK VINA RESULT:      -7.5      0.000      0.000
REMARK  5 active torsions:
REMARK  status: ('A' for Active; 'I' for Inactive)
REMARK    1  A    between atoms: O_2  and  C_3 
REMARK    2  A    between atoms: C_4  and  C_5 
REMARK    3  A    between atoms: C_5  and  N_6 
REMARK    4  A    between atoms: N_6  and  N_7 
REMARK    5  A    between atoms: N_7  and  C_8 
ROOT
HETATM    1  C   UNL     1      41.961 -14.734   3.639  1.00  0.00     0.169 C 
HETATM    2  S   UNL     1      41.603 -13.447   2.573  1.00  0.00    -0.009 SA
HETATM    3  C   UNL     1      42.596 -12.172   3.212  1.00  0.00     0.229 C 
HETATM    4  O   UNL     1      42.869 -11.206   2.515  1.00  0.00    -0.279 OA
HETATM    5  C   UNL     1      43.067 -12.244   4.601  1.00  0.00     0.048 A 
HETATM    6  C   UNL     1      43.041 -13.450   5.306  1.00  0.00     0.049 A 
HETATM    7  C   UNL     1      43.577 -11.079   5.198  1.00  0.00     0.018 A 
HETATM    8  C   UNL     1      44.047 -11.111   6.509  1.00  0.00     0.001 A 
HETATM    9  C   UNL     1      44.021 -12.304   7.223  1.00  0.00     0.002 A 
HETATM   10  C   UNL     1      43.529 -13.465   6.622  1.00  0.00     0.030 A 
HETATM   11  N   UNL     1      42.583 -14.618   4.792  1.00  0.00    -0.335 N 
HETATM   12  H   UNL     1      42.671 -15.485   5.315  1.00  0.00     0.168 HD
ENDROOT
BRANCH   1  13
HETATM   13  N   UNL     1      41.536 -15.937   3.274  1.00  0.00    -0.257 N 
HETATM   14  H   UNL     1      40.811 -16.315   3.889  1.00  0.00     0.191 HD
BRANCH  13  15
HETATM   15  N   UNL     1      42.000 -16.659   2.147  1.00  0.00    -0.184 NA
BRANCH  15  16
HETATM   16  C   UNL     1      43.218 -17.075   2.316  1.00  0.00     0.153 C 
BRANCH  16  17
HETATM   17  C   UNL     1      43.514 -18.373   2.952  1.00  0.00     0.016 A 
HETATM   18  C   UNL     1      43.909 -18.406   4.300  1.00  0.00     0.080 A 
HETATM   19  C   UNL     1      44.157 -19.646   4.895  1.00  0.00     0.037 A 
HETATM   20  C   UNL     1      44.022 -20.826   4.156  1.00  0.00     0.003 A 
HETATM   21  C   UNL     1      43.639 -20.781   2.816  1.00  0.00     0.001 A 
HETATM   22  C   UNL     1      43.386 -19.553   2.209  1.00  0.00     0.016 A 
BRANCH  18  23
HETATM   23  O   UNL     1      44.035 -17.198   4.933  1.00  0.00    -0.355 OA
HETATM   24  C   UNL     1      44.024 -17.208   6.358  1.00  0.00     0.210 C 
ENDBRANCH  18  23
ENDBRANCH  16  17
ENDBRANCH  15  16
ENDBRANCH  13  15
ENDBRANCH   1  13
TORSDOF 5
ENDMDL
MODEL 2
REMARK VINA RESULT:      -7.3      3.247      4.858
REMARK  5 active torsions:
REMARK  status: ('A' for Active; 'I' for Inactive)
REMARK    1  A    between atoms: O_2  and  C_3 
REMARK    2  A    between atoms: C_4  and  C_5 
REMARK    3  A    between atoms: C_5  and  N_6 
REMARK    4  A    between atoms: N_6  and  N_7 
REMARK    5  A    between atoms: N_7  and  C_8 
ROOT
HETATM    1  C   UNL     1      40.235 -13.828   2.159  1.00  0.00     0.169 C 
HETATM    2  S   UNL     1      41.295 -12.491   2.239  1.00  0.00    -0.009 SA
HETATM    3  C   UNL     1      41.138 -11.819   0.643  1.00  0.00     0.229 C 
HETATM    4  O   UNL     1      41.477 -10.664   0.434  1.00  0.00    -0.279 OA
HETATM    5  C   UNL     1      40.636 -12.658  -0.452  1.00  0.00     0.048 A 
HETATM    6  C   UNL     1      39.958 -13.851  -0.191  1.00  0.00     0.049 A 
HETATM    7  C   UNL     1      40.823 -12.219  -1.774  1.00  0.00     0.018 A 
HETATM    8  C   UNL     1      40.349 -12.980  -2.839  1.00  0.00     0.001 A 
HETATM    9  C   UNL     1      39.678 -14.172  -2.592  1.00  0.00     0.002 A 
HETATM   10  C   UNL     1      39.479 -14.599  -1.277  1.00  0.00     0.030 A 
HETATM   11  N   UNL     1      39.723 -14.330   1.056  1.00  0.00    -0.335 N 
HETATM   12  H   UNL     1      39.145 -15.156   1.194  1.00  0.00     0.168 HD
ENDROOT
BRANCH   1  13
HETATM   13  N   UNL     1      39.944 -14.421   3.311  1.00  0.00    -0.257 N 
HETATM   14  H   UNL     1      39.357 -13.850   3.923  1.00  0.00     0.191 HD
BRANCH  13  15
HETATM   15  N   UNL     1      40.369 -15.717   3.690  1.00  0.00    -0.184 NA
BRANCH  15  16
HETATM   16  C   UNL     1      41.625 -15.729   4.022  1.00  0.00     0.153 C 
BRANCH  16  17
HETATM   17  C   UNL     1      42.502 -16.872   3.703  1.00  0.00     0.016 A 
HETATM   18  C   UNL     1      43.490 -17.261   4.624  1.00  0.00     0.080 A 
HETATM   19  C   UNL     1      44.292 -18.364   4.318  1.00  0.00     0.037 A 
HETATM   20  C   UNL     1      44.116 -19.057   3.115  1.00  0.00     0.003 A 
HETATM   21  C   UNL     1      43.140 -18.656   2.205  1.00  0.00     0.001 A 
HETATM   22  C   UNL     1      42.331 -17.559   2.495  1.00  0.00     0.016 A 
BRANCH  18  23
HETATM   23  O   UNL     1      43.599 -16.508   5.763  1.00  0.00    -0.355 OA
HETATM   24  C   UNL     1      43.421 -17.181   7.006  1.00  0.00     0.210 C 
ENDBRANCH  18  23
ENDBRANCH  16  17
ENDBRANCH  15  16
ENDBRANCH  13  15
ENDBRANCH   1  13
TORSDOF 5
ENDMDL
MODEL 3
REMARK VINA RESULT:      -7.2      2.377      7.406
REMARK  5 active torsions:
REMARK  status: ('A' for Active; 'I' for Inactive)
REMARK    1  A    between atoms: O_2  and  C_3 
REMARK    2  A    between atoms: C_4  and  C_5 
REMARK    3  A    between atoms: C_5  and  N_6 
REMARK    4  A    between atoms: N_6  and  N_7 
REMARK    5  A    between atoms: N_7  and  C_8 
ROOT
HETATM    1  C   UNL     1      42.505 -14.400   5.676  1.00  0.00     0.169 C 
HETATM    2  S   UNL     1      41.448 -13.769   4.491  1.00  0.00    -0.009 SA
HETATM    3  C   UNL     1      41.204 -15.149   3.463  1.00  0.00     0.229 C 
HETATM    4  O   UNL     1      40.243 -15.183   2.708  1.00  0.00    -0.279 OA
HETATM    5  C   UNL     1      42.177 -16.249   3.479  1.00  0.00     0.048 A 
HETATM    6  C   UNL     1      43.089 -16.385   4.529  1.00  0.00     0.049 A 
HETATM    7  C   UNL     1      42.152 -17.182   2.430  1.00  0.00     0.018 A 
HETATM    8  C   UNL     1      43.050 -18.247   2.417  1.00  0.00     0.001 A 
HETATM    9  C   UNL     1      43.965 -18.391   3.454  1.00  0.00     0.002 A 
HETATM   10  C   UNL     1      43.978 -17.470   4.504  1.00  0.00     0.030 A 
HETATM   11  N   UNL     1      43.161 -15.537   5.585  1.00  0.00    -0.335 N 
HETATM   12  H   UNL     1      43.779 -15.734   6.367  1.00  0.00     0.168 HD
ENDROOT
BRANCH   1  13
HETATM   13  N   UNL     1      42.697 -13.651   6.755  1.00  0.00    -0.257 N 
HETATM   14  H   UNL     1      41.827 -13.344   7.195  1.00  0.00     0.191 HD
BRANCH  13  15
HETATM   15  N   UNL     1      43.961 -13.299   7.288  1.00  0.00    -0.184 NA
BRANCH  15  16
HETATM   16  C   UNL     1      44.489 -12.302   6.645  1.00  0.00     0.153 C 
BRANCH  16  17
HETATM   17  C   UNL     1      44.704 -10.991   7.286  1.00  0.00     0.016 A 
HETATM   18  C   UNL     1      43.606 -10.142   7.506  1.00  0.00     0.080 A 
HETATM   19  C   UNL     1      43.824  -8.916   8.141  1.00  0.00     0.037 A 
HETATM   20  C   UNL     1      45.112  -8.544   8.540  1.00  0.00     0.003 A 
HETATM   21  C   UNL     1      46.196  -9.390   8.309  1.00  0.00     0.001 A 
HETATM   22  C   UNL     1      45.995 -10.616   7.678  1.00  0.00     0.016 A 
BRANCH  18  23
HETATM   23  O   UNL     1      42.389 -10.585   7.060  1.00  0.00    -0.355 OA
HETATM   24  C   UNL     1      41.745  -9.810   6.052  1.00  0.00     0.210 C 
ENDBRANCH  18  23
ENDBRANCH  16  17
ENDBRANCH  15  16
ENDBRANCH  13  15
ENDBRANCH   1  13
TORSDOF 5
ENDMDL
MODEL 4
REMARK VINA RESULT:      -7.2      3.784      5.274
REMARK  5 active torsions:
REMARK  status: ('A' for Active; 'I' for Inactive)
REMARK    1  A    between atoms: O_2  and  C_3 
REMARK    2  A    between atoms: C_4  and  C_5 
REMARK    3  A    between atoms: C_5  and  N_6 
REMARK    4  A    between atoms: N_6  and  N_7 
REMARK    5  A    between atoms: N_7  and  C_8 
ROOT
HETATM    1  C   UNL     1      41.319 -13.986   0.850  1.00  0.00     0.169 C 
HETATM    2  S   UNL     1      40.984 -12.402   1.396  1.00  0.00    -0.009 SA
HETATM    3  C   UNL     1      39.464 -12.074   0.619  1.00  0.00     0.229 C 
HETATM    4  O   UNL     1      38.746 -11.180   1.040  1.00  0.00    -0.279 OA
HETATM    5  C   UNL     1      39.071 -12.850  -0.565  1.00  0.00     0.048 A 
HETATM    6  C   UNL     1      39.701 -14.058  -0.874  1.00  0.00     0.049 A 
HETATM    7  C   UNL     1      38.024 -12.366  -1.366  1.00  0.00     0.018 A 
HETATM    8  C   UNL     1      37.613 -13.080  -2.490  1.00  0.00     0.001 A 
HETATM    9  C   UNL     1      38.236 -14.281  -2.810  1.00  0.00     0.002 A 
HETATM   10  C   UNL     1      39.267 -14.768  -2.003  1.00  0.00     0.030 A 
HETATM   11  N   UNL     1      40.705 -14.598  -0.139  1.00  0.00    -0.335 N 
HETATM   12  H   UNL     1      41.066 -15.523  -0.355  1.00  0.00     0.168 HD
ENDROOT
BRANCH   1  13
HETATM   13  N   UNL     1      42.310 -14.624   1.462  1.00  0.00    -0.257 N 
HETATM   14  H   UNL     1      43.027 -13.997   1.835  1.00  0.00     0.191 HD
BRANCH  13  15
HETATM   15  N   UNL     1      42.400 -16.028   1.621  1.00  0.00    -0.184 NA
BRANCH  15  16
HETATM   16  C   UNL     1      43.164 -16.348   2.621  1.00  0.00     0.153 C 
BRANCH  16  17
HETATM   17  C   UNL     1      43.433 -17.754   2.975  1.00  0.00     0.016 A 
HETATM   18  C   UNL     1      43.996 -18.055   4.227  1.00  0.00     0.080 A 
HETATM   19  C   UNL     1      44.216 -19.395   4.558  1.00  0.00     0.037 A 
HETATM   20  C   UNL     1      43.889 -20.411   3.653  1.00  0.00     0.003 A 
HETATM   21  C   UNL     1      43.340 -20.100   2.410  1.00  0.00     0.001 A 
HETATM   22  C   UNL     1      43.113 -18.770   2.066  1.00  0.00     0.016 A 
BRANCH  18  23
HETATM   23  O   UNL     1      44.301 -16.991   5.035  1.00  0.00    -0.355 OA
HETATM   24  C   UNL     1      43.764 -17.003   6.355  1.00  0.00     0.210 C 
ENDBRANCH  18  23
ENDBRANCH  16  17
ENDBRANCH  15  16
ENDBRANCH  13  15
ENDBRANCH   1  13
TORSDOF 5
ENDMDL
MODEL 5
REMARK VINA RESULT:      -7.1      2.112      6.496
REMARK  5 active torsions:
REMARK  status: ('A' for Active; 'I' for Inactive)
REMARK    1  A    between atoms: O_2  and  C_3 
REMARK    2  A    between atoms: C_4  and  C_5 
REMARK    3  A    between atoms: C_5  and  N_6 
REMARK    4  A    between atoms: N_6  and  N_7 
REMARK    5  A    between atoms: N_7  and  C_8 
ROOT
HETATM    1  C   UNL     1      40.957 -15.624   5.546  1.00  0.00     0.169 C 
HETATM    2  S   UNL     1      41.873 -16.047   6.925  1.00  0.00    -0.009 SA
HETATM    3  C   UNL     1      43.279 -16.774   6.207  1.00  0.00     0.229 C 
HETATM    4  O   UNL     1      44.306 -16.886   6.859  1.00  0.00    -0.279 OA
HETATM    5  C   UNL     1      43.211 -17.286   4.832  1.00  0.00     0.048 A 
HETATM    6  C   UNL     1      42.180 -16.899   3.972  1.00  0.00     0.049 A 
HETATM    7  C   UNL     1      44.224 -18.151   4.387  1.00  0.00     0.018 A 
HETATM    8  C   UNL     1      44.202 -18.646   3.085  1.00  0.00     0.001 A 
HETATM    9  C   UNL     1      43.179 -18.272   2.222  1.00  0.00     0.002 A 
HETATM   10  C   UNL     1      42.181 -17.400   2.661  1.00  0.00     0.030 A 
HETATM   11  N   UNL     1      41.179 -16.054   4.322  1.00  0.00    -0.335 N 
HETATM   12  H   UNL     1      40.506 -15.732   3.632  1.00  0.00     0.168 HD
ENDROOT
BRANCH   1  13
HETATM   13  N   UNL     1      39.917 -14.825   5.750  1.00  0.00    -0.257 N 
HETATM   14  H   UNL     1      39.031 -15.224   5.435  1.00  0.00     0.191 HD
BRANCH  13  15
HETATM   15  N   UNL     1      39.980 -13.545   6.354  1.00  0.00    -0.184 NA
BRANCH  15  16
HETATM   16  C   UNL     1      40.103 -12.605   5.468  1.00  0.00     0.153 C 
BRANCH  16  17
HETATM   17  C   UNL     1      41.404 -12.287   4.848  1.00  0.00     0.016 A 
HETATM   18  C   UNL     1      41.650 -12.679   3.521  1.00  0.00     0.080 A 
HETATM   19  C   UNL     1      42.877 -12.344   2.941  1.00  0.00     0.037 A 
HETATM   20  C   UNL     1      43.838 -11.640   3.674  1.00  0.00     0.003 A 
HETATM   21  C   UNL     1      43.587 -11.264   4.992  1.00  0.00     0.001 A 
HETATM   22  C   UNL     1      42.369 -11.589   5.585  1.00  0.00     0.016 A 
BRANCH  18  23
HETATM   23  O   UNL     1      40.656 -13.383   2.894  1.00  0.00    -0.355 OA
HETATM   24  C   UNL     1      40.847 -13.686   1.515  1.00  0.00     0.210 C 
ENDBRANCH  18  23
ENDBRANCH  16  17
ENDBRANCH  15  16
ENDBRANCH  13  15
ENDBRANCH   1  13
TORSDOF 5
ENDMDL
MODEL 6
REMARK VINA RESULT:      -7.1      4.002      7.502
REMARK  5 active torsions:
REMARK  status: ('A' for Active; 'I' for Inactive)
REMARK    1  A    between atoms: O_2  and  C_3 
REMARK    2  A    between atoms: C_4  and  C_5 
REMARK    3  A    between atoms: C_5  and  N_6 
REMARK    4  A    between atoms: N_6  and  N_7 
REMARK    5  A    between atoms: N_7  and  C_8 
ROOT
HETATM    1  C   UNL     1      42.545 -16.061   2.136  1.00  0.00     0.169 C 
HETATM    2  S   UNL     1      42.637 -15.364   3.693  1.00  0.00    -0.009 SA
HETATM    3  C   UNL     1      43.552 -16.559   4.563  1.00  0.00     0.229 C 
HETATM    4  O   UNL     1      44.111 -16.256   5.607  1.00  0.00    -0.279 OA
HETATM    5  C   UNL     1      43.615 -17.936   4.057  1.00  0.00     0.048 A 
HETATM    6  C   UNL     1      43.264 -18.233   2.738  1.00  0.00     0.049 A 
HETATM    7  C   UNL     1      44.068 -18.947   4.920  1.00  0.00     0.018 A 
HETATM    8  C   UNL     1      44.155 -20.264   4.473  1.00  0.00     0.001 A 
HETATM    9  C   UNL     1      43.803 -20.573   3.163  1.00  0.00     0.002 A 
HETATM   10  C   UNL     1      43.368 -19.563   2.302  1.00  0.00     0.030 A 
HETATM   11  N   UNL     1      42.837 -17.309   1.841  1.00  0.00    -0.335 N 
HETATM   12  H   UNL     1      42.683 -17.562   0.869  1.00  0.00     0.168 HD
ENDROOT
BRANCH   1  13
HETATM   13  N   UNL     1      42.106 -15.273   1.162  1.00  0.00    -0.257 N 
HETATM   14  H   UNL     1      42.856 -14.805   0.650  1.00  0.00     0.191 HD
BRANCH  13  15
HETATM   15  N   UNL     1      40.745 -15.082   0.820  1.00  0.00    -0.184 NA
BRANCH  15  16
HETATM   16  C   UNL     1      40.564 -13.960   0.191  1.00  0.00     0.153 C 
BRANCH  16  17
HETATM   17  C   UNL     1      39.530 -13.812  -0.851  1.00  0.00     0.016 A 
HETATM   18  C   UNL     1      38.743 -12.648  -0.881  1.00  0.00     0.080 A 
HETATM   19  C   UNL     1      37.788 -12.512  -1.892  1.00  0.00     0.037 A 
HETATM   20  C   UNL     1      37.619 -13.520  -2.847  1.00  0.00     0.003 A 
HETATM   21  C   UNL     1      38.398 -14.675  -2.802  1.00  0.00     0.001 A 
HETATM   22  C   UNL     1      39.355 -14.826  -1.801  1.00  0.00     0.016 A 
BRANCH  18  23
HETATM   23  O   UNL     1      38.969 -11.729   0.109  1.00  0.00    -0.355 OA
HETATM   24  C   UNL     1      38.350 -10.453  -0.037  1.00  0.00     0.210 C 
ENDBRANCH  18  23
ENDBRANCH  16  17
ENDBRANCH  15  16
ENDBRANCH  13  15
ENDBRANCH   1  13
TORSDOF 5
ENDMDL
MODEL 7
REMARK VINA RESULT:      -7.0      3.114      6.492
REMARK  5 active torsions:
REMARK  status: ('A' for Active; 'I' for Inactive)
REMARK    1  A    between atoms: O_2  and  C_3 
REMARK    2  A    between atoms: C_4  and  C_5 
REMARK    3  A    between atoms: C_5  and  N_6 
REMARK    4  A    between atoms: N_6  and  N_7 
REMARK    5  A    between atoms: N_7  and  C_8 
ROOT
HETATM    1  C   UNL     1      42.607 -14.355   3.937  1.00  0.00     0.169 C 
HETATM    2  S   UNL     1      42.940 -14.489   5.607  1.00  0.00    -0.009 SA
HETATM    3  C   UNL     1      43.832 -15.979   5.672  1.00  0.00     0.229 C 
HETATM    4  O   UNL     1      44.531 -16.228   6.643  1.00  0.00    -0.279 OA
HETATM    5  C   UNL     1      43.708 -16.949   4.576  1.00  0.00     0.048 A 
HETATM    6  C   UNL     1      43.183 -16.570   3.338  1.00  0.00     0.049 A 
HETATM    7  C   UNL     1      44.159 -18.262   4.789  1.00  0.00     0.018 A 
HETATM    8  C   UNL     1      44.071 -19.207   3.768  1.00  0.00     0.001 A 
HETATM    9  C   UNL     1      43.546 -18.843   2.533  1.00  0.00     0.002 A 
HETATM   10  C   UNL     1      43.113 -17.533   2.320  1.00  0.00     0.030 A 
HETATM   11  N   UNL     1      42.746 -15.318   3.052  1.00  0.00    -0.335 N 
HETATM   12  H   UNL     1      42.459 -15.072   2.108  1.00  0.00     0.168 HD
ENDROOT
BRANCH   1  13
HETATM   13  N   UNL     1      42.136 -13.186   3.521  1.00  0.00    -0.257 N 
HETATM   14  H   UNL     1      41.553 -12.714   4.215  1.00  0.00     0.191 HD
BRANCH  13  15
HETATM   15  N   UNL     1      42.399 -12.604   2.257  1.00  0.00    -0.184 NA
BRANCH  15  16
HETATM   16  C   UNL     1      41.309 -12.182   1.690  1.00  0.00     0.153 C 
BRANCH  16  17
HETATM   17  C   UNL     1      40.845 -12.723   0.399  1.00  0.00     0.016 A 
HETATM   18  C   UNL     1      40.157 -13.948   0.372  1.00  0.00     0.080 A 
HETATM   19  C   UNL     1      39.699 -14.432  -0.858  1.00  0.00     0.037 A 
HETATM   20  C   UNL     1      39.932 -13.711  -2.034  1.00  0.00     0.003 A 
HETATM   21  C   UNL     1      40.624 -12.502  -1.996  1.00  0.00     0.001 A 
HETATM   22  C   UNL     1      41.086 -12.005  -0.779  1.00  0.00     0.016 A 
BRANCH  18  23
HETATM   23  O   UNL     1      39.997 -14.590   1.571  1.00  0.00    -0.355 OA
HETATM   24  C   UNL     1      39.818 -16.003   1.532  1.00  0.00     0.210 C 
ENDBRANCH  18  23
ENDBRANCH  16  17
ENDBRANCH  15  16
ENDBRANCH  13  15
ENDBRANCH   1  13
TORSDOF 5
ENDMDL
MODEL 8
REMARK VINA RESULT:      -6.9      3.375      5.249
REMARK  5 active torsions:
REMARK  status: ('A' for Active; 'I' for Inactive)
REMARK    1  A    between atoms: O_2  and  C_3 
REMARK    2  A    between atoms: C_4  and  C_5 
REMARK    3  A    between atoms: C_5  and  N_6 
REMARK    4  A    between atoms: N_6  and  N_7 
REMARK    5  A    between atoms: N_7  and  C_8 
ROOT
HETATM    1  C   UNL     1      40.120 -13.496   2.263  1.00  0.00     0.169 C 
HETATM    2  S   UNL     1      41.204 -12.176   2.307  1.00  0.00    -0.009 SA
HETATM    3  C   UNL     1      41.140 -11.611   0.665  1.00  0.00     0.229 C 
HETATM    4  O   UNL     1      41.515 -10.479   0.396  1.00  0.00    -0.279 OA
HETATM    5  C   UNL     1      40.674 -12.512  -0.397  1.00  0.00     0.048 A 
HETATM    6  C   UNL     1      39.959 -13.672  -0.091  1.00  0.00     0.049 A 
HETATM    7  C   UNL     1      40.936 -12.166  -1.733  1.00  0.00     0.018 A 
HETATM    8  C   UNL     1      40.497 -12.988  -2.769  1.00  0.00     0.001 A 
HETATM    9  C   UNL     1      39.789 -14.149  -2.476  1.00  0.00     0.002 A 
HETATM   10  C   UNL     1      39.517 -14.482  -1.148  1.00  0.00     0.030 A 
HETATM   11  N   UNL     1      39.652 -14.062   1.171  1.00  0.00    -0.335 N 
HETATM   12  H   UNL     1      39.051 -14.865   1.335  1.00  0.00     0.168 HD
ENDROOT
BRANCH   1  13
HETATM   13  N   UNL     1      39.761 -14.004   3.435  1.00  0.00    -0.257 N 
HETATM   14  H   UNL     1      38.749 -14.006   3.583  1.00  0.00     0.191 HD
BRANCH  13  15
HETATM   15  N   UNL     1      40.652 -14.517   4.409  1.00  0.00    -0.184 NA
BRANCH  15  16
HETATM   16  C   UNL     1      40.641 -15.816   4.429  1.00  0.00     0.153 C 
BRANCH  16  17
HETATM   17  C   UNL     1      41.874 -16.600   4.628  1.00  0.00     0.016 A 
HETATM   18  C   UNL     1      42.612 -17.021   3.508  1.00  0.00     0.080 A 
HETATM   19  C   UNL     1      43.794 -17.738   3.716  1.00  0.00     0.037 A 
HETATM   20  C   UNL     1      44.223 -18.034   5.014  1.00  0.00     0.003 A 
HETATM   21  C   UNL     1      43.479 -17.621   6.117  1.00  0.00     0.001 A 
HETATM   22  C   UNL     1      42.299 -16.904   5.927  1.00  0.00     0.016 A 
BRANCH  18  23
HETATM   23  O   UNL     1      42.099 -16.701   2.279  1.00  0.00    -0.355 OA
HETATM   24  C   UNL     1      42.886 -15.850   1.449  1.00  0.00     0.210 C 
ENDBRANCH  18  23
ENDBRANCH  16  17
ENDBRANCH  15  16
ENDBRANCH  13  15
ENDBRANCH   1  13
TORSDOF 5
ENDMDL
MODEL 9
REMARK VINA RESULT:      -6.8     14.299     15.860
REMARK  5 active torsions:
REMARK  status: ('A' for Active; 'I' for Inactive)
REMARK    1  A    between atoms: O_2  and  C_3 
REMARK    2  A    between atoms: C_4  and  C_5 
REMARK    3  A    between atoms: C_5  and  N_6 
REMARK    4  A    between atoms: N_6  and  N_7 
REMARK    5  A    between atoms: N_7  and  C_8 
ROOT
HETATM    1  C   UNL     1      44.500 -29.248   0.766  1.00  0.00     0.169 C 
HETATM    2  S   UNL     1      43.663 -30.724   0.568  1.00  0.00    -0.009 SA
HETATM    3  C   UNL     1      43.949 -31.071  -1.111  1.00  0.00     0.229 C 
HETATM    4  O   UNL     1      43.800 -32.209  -1.531  1.00  0.00    -0.279 OA
HETATM    5  C   UNL     1      44.331 -29.985  -2.023  1.00  0.00     0.048 A 
HETATM    6  C   UNL     1      44.808 -28.768  -1.530  1.00  0.00     0.049 A 
HETATM    7  C   UNL     1      44.237 -30.207  -3.407  1.00  0.00     0.018 A 
HETATM    8  C   UNL     1      44.603 -29.206  -4.304  1.00  0.00     0.001 A 
HETATM    9  C   UNL     1      45.074 -27.988  -3.825  1.00  0.00     0.002 A 
HETATM   10  C   UNL     1      45.182 -27.776  -2.449  1.00  0.00     0.030 A 
HETATM   11  N   UNL     1      44.945 -28.486  -0.210  1.00  0.00    -0.335 N 
HETATM   12  H   UNL     1      45.383 -27.621   0.093  1.00  0.00     0.168 HD
ENDROOT
BRANCH   1  13
HETATM   13  N   UNL     1      44.675 -28.831   2.014  1.00  0.00    -0.257 N 
HETATM   14  H   UNL     1      43.927 -28.217   2.345  1.00  0.00     0.191 HD
BRANCH  13  15
HETATM   15  N   UNL     1      45.764 -29.187   2.847  1.00  0.00    -0.184 NA
BRANCH  15  16
HETATM   16  C   UNL     1      46.846 -28.551   2.515  1.00  0.00     0.153 C 
BRANCH  16  17
HETATM   17  C   UNL     1      48.169 -29.201   2.544  1.00  0.00     0.016 A 
HETATM   18  C   UNL     1      48.698 -29.743   1.360  1.00  0.00     0.080 A 
HETATM   19  C   UNL     1      49.966 -30.330   1.400  1.00  0.00     0.037 A 
HETATM   20  C   UNL     1      50.686 -30.380   2.599  1.00  0.00     0.003 A 
HETATM   21  C   UNL     1      50.148 -29.848   3.769  1.00  0.00     0.001 A 
HETATM   22  C   UNL     1      48.886 -29.259   3.746  1.00  0.00     0.016 A 
BRANCH  18  23
HETATM   23  O   UNL     1      47.909 -29.665   0.243  1.00  0.00    -0.355 OA
HETATM   24  C   UNL     1      48.527 -29.205  -0.956  1.00  0.00     0.210 C 
ENDBRANCH  18  23
ENDBRANCH  16  17
ENDBRANCH  15  16
ENDBRANCH  13  15
ENDBRANCH   1  13
TORSDOF 5
ENDMDL
MODEL 10
REMARK VINA RESULT:      -6.7      2.963      7.858
REMARK  5 active torsions:
REMARK  status: ('A' for Active; 'I' for Inactive)
REMARK    1  A    between atoms: O_2  and  C_3 
REMARK    2  A    between atoms: C_4  and  C_5 
REMARK    3  A    between atoms: C_5  and  N_6 
REMARK    4  A    between atoms: N_6  and  N_7 
REMARK    5  A    between atoms: N_7  and  C_8 
ROOT
HETATM    1  C   UNL     1      42.542 -14.087   6.008  1.00  0.00     0.169 C 
HETATM    2  S   UNL     1      42.327 -15.457   7.005  1.00  0.00    -0.009 SA
HETATM    3  C   UNL     1      42.953 -16.729   5.999  1.00  0.00     0.229 C 
HETATM    4  O   UNL     1      43.282 -17.794   6.499  1.00  0.00    -0.279 OA
HETATM    5  C   UNL     1      43.045 -16.528   4.547  1.00  0.00     0.048 A 
HETATM    6  C   UNL     1      42.979 -15.247   3.994  1.00  0.00     0.049 A 
HETATM    7  C   UNL     1      43.233 -17.652   3.726  1.00  0.00     0.018 A 
HETATM    8  C   UNL     1      43.339 -17.501   2.345  1.00  0.00     0.001 A 
HETATM    9  C   UNL     1      43.270 -16.231   1.781  1.00  0.00     0.002 A 
HETATM   10  C   UNL     1      43.099 -15.114   2.602  1.00  0.00     0.030 A 
HETATM   11  N   UNL     1      42.818 -14.115   4.722  1.00  0.00    -0.335 N 
HETATM   12  H   UNL     1      42.870 -13.201   4.279  1.00  0.00     0.168 HD
ENDROOT
BRANCH   1  13
HETATM   13  N   UNL     1      42.378 -12.903   6.588  1.00  0.00    -0.257 N 
HETATM   14  H   UNL     1      41.840 -12.948   7.455  1.00  0.00     0.191 HD
BRANCH  13  15
HETATM   15  N   UNL     1      42.891 -11.678   6.098  1.00  0.00    -0.184 NA
BRANCH  15  16
HETATM   16  C   UNL     1      42.641 -10.696   6.911  1.00  0.00     0.153 C 
BRANCH  16  17
HETATM   17  C   UNL     1      43.580 -10.315   7.982  1.00  0.00     0.016 A 
HETATM   18  C   UNL     1      43.098  -9.635   9.113  1.00  0.00     0.080 A 
HETATM   19  C   UNL     1      43.998  -9.307  10.131  1.00  0.00     0.037 A 
HETATM   20  C   UNL     1      45.351  -9.645  10.016  1.00  0.00     0.003 A 
HETATM   21  C   UNL     1      45.820 -10.310   8.885  1.00  0.00     0.001 A 
HETATM   22  C   UNL     1      44.936 -10.645   7.862  1.00  0.00     0.016 A 
BRANCH  18  23
HETATM   23  O   UNL     1      41.763  -9.330   9.123  1.00  0.00    -0.355 OA
HETATM   24  C   UNL     1      41.110  -9.317  10.390  1.00  0.00     0.210 C 
ENDBRANCH  18  23
ENDBRANCH  16  17
ENDBRANCH  15  16
ENDBRANCH  13  15
ENDBRANCH   1  13
TORSDOF 5
ENDMDL
