MODEL 1
REMARK VINA RESULT:      -8.0      0.000      0.000
REMARK  3 active torsions:
REMARK  status: ('A' for Active; 'I' for Inactive)
REMARK    1  A    between atoms: C_6  and  N_7 
REMARK       I    between atoms: N_7  and  C_8 
REMARK    2  A    between atoms: C_8  and  C_9 
REMARK    3  A    between atoms: C_9  and  C_10 
ROOT
HETATM    1  C   UNL     1      42.128 -15.919   5.240  1.00  0.00     0.286 C 
HETATM    2  N   UNL     1      42.985 -16.480   4.105  1.00  0.00    -0.056 N 
HETATM    3  H   UNL     1      42.529 -16.184   3.217  1.00  0.00     0.278 HD
HETATM    4  H   UNL     1      43.917 -16.048   4.110  1.00  0.00     0.278 HD
HETATM    5  C   UNL     1      43.068 -17.973   4.199  1.00  0.00     0.209 C 
HETATM    6  C   UNL     1      43.744 -18.335   5.542  1.00  0.00     0.115 C 
HETATM    7  N   UNL     1      43.097 -17.692   6.684  1.00  0.00    -0.353 N 
HETATM    8  C   UNL     1      42.619 -16.398   6.623  1.00  0.00     0.249 C 
HETATM    9  O   UNL     1      42.525 -15.724   7.640  1.00  0.00    -0.271 OA
HETATM   10  C   UNL     1      43.847 -18.542   3.022  1.00  0.00     0.035 C 
HETATM   11  C   UNL     1      43.948 -20.063   3.155  1.00  0.00     0.002 C 
HETATM   12  C   UNL     1      44.529 -20.493   4.504  1.00  0.00     0.002 C 
HETATM   13  C   UNL     1      43.804 -19.855   5.693  1.00  0.00     0.027 C 
HETATM   14  H   UNL     1      43.427 -17.939   7.616  1.00  0.00     0.163 HD
ENDROOT
BRANCH   1  15
HETATM   15  C   UNL     1      42.030 -14.392   5.160  1.00  0.00     0.146 C 
BRANCH  15  16
HETATM   16  C   UNL     1      40.587 -13.972   5.264  1.00  0.00     0.224 C 
HETATM   17  N   UNL     1      39.799 -13.784   4.175  1.00  0.00    -0.327 N 
HETATM   18  H   UNL     1      38.909 -13.358   4.420  1.00  0.00     0.169 HD
HETATM   19  O   UNL     1      40.109 -13.777   6.391  1.00  0.00    -0.273 OA
BRANCH  17  20
HETATM   20  C   UNL     1      39.982 -14.025   2.799  1.00  0.00     0.036 A 
HETATM   21  C   UNL     1      40.344 -13.062   1.857  1.00  0.00     0.053 A 
HETATM   22  C   UNL     1      40.499 -13.419   0.513  1.00  0.00     0.036 A 
HETATM   23  C   UNL     1      40.308 -14.732   0.093  1.00  0.00     0.024 A 
HETATM   24 CL   UNL     1      40.948 -12.215  -0.634  1.00  0.00    -0.084 Cl
HETATM   25  C   UNL     1      39.974 -15.704   1.030  1.00  0.00     0.004 A 
HETATM   26  C   UNL     1      39.824 -15.354   2.375  1.00  0.00     0.029 A 
ENDBRANCH  17  20
ENDBRANCH  15  16
ENDBRANCH   1  15
TORSDOF 3
ENDMDL
MODEL 2
REMARK VINA RESULT:      -7.9      3.249      6.594
REMARK  3 active torsions:
REMARK  status: ('A' for Active; 'I' for Inactive)
REMARK    1  A    between atoms: C_6  and  N_7 
REMARK       I    between atoms: N_7  and  C_8 
REMARK    2  A    between atoms: C_8  and  C_9 
REMARK    3  A    between atoms: C_9  and  C_10 
ROOT
HETATM    1  C   UNL     1      40.049 -13.272   2.143  1.00  0.00     0.286 C 
HETATM    2  N   UNL     1      40.691 -12.585   0.938  1.00  0.00    -0.056 N 
HETATM    3  H   UNL     1      40.692 -11.564   1.147  1.00  0.00     0.278 HD
HETATM    4  H   UNL     1      41.676 -12.862   0.848  1.00  0.00     0.278 HD
HETATM    5  C   UNL     1      39.917 -12.882  -0.310  1.00  0.00     0.209 C 
HETATM    6  C   UNL     1      39.952 -14.409  -0.547  1.00  0.00     0.115 C 
HETATM    7  N   UNL     1      39.521 -15.166   0.626  1.00  0.00    -0.353 N 
HETATM    8  C   UNL     1      39.861 -14.786   1.910  1.00  0.00     0.249 C 
HETATM    9  O   UNL     1      39.921 -15.617   2.807  1.00  0.00    -0.271 OA
HETATM   10  C   UNL     1      40.503 -12.128  -1.496  1.00  0.00     0.035 C 
HETATM   11  C   UNL     1      39.718 -12.472  -2.765  1.00  0.00     0.002 C 
HETATM   12  C   UNL     1      39.638 -13.980  -3.011  1.00  0.00     0.002 C 
HETATM   13  C   UNL     1      39.131 -14.754  -1.790  1.00  0.00     0.027 C 
HETATM   14  H   UNL     1      39.436 -16.178   0.532  1.00  0.00     0.163 HD
ENDROOT
BRANCH   1  15
HETATM   15  C   UNL     1      40.827 -12.978   3.430  1.00  0.00     0.146 C 
BRANCH  15  16
HETATM   16  C   UNL     1      42.250 -12.618   3.089  1.00  0.00     0.224 C 
HETATM   17  N   UNL     1      43.248 -13.537   3.052  1.00  0.00    -0.327 N 
HETATM   18  H   UNL     1      44.161 -13.100   2.956  1.00  0.00     0.169 HD
HETATM   19  O   UNL     1      42.516 -11.431   2.850  1.00  0.00    -0.273 OA
BRANCH  17  20
HETATM   20  C   UNL     1      43.269 -14.941   3.151  1.00  0.00     0.036 A 
HETATM   21  C   UNL     1      43.237 -15.662   4.345  1.00  0.00     0.053 A 
HETATM   22  C   UNL     1      43.261 -17.060   4.322  1.00  0.00     0.036 A 
HETATM   23  C   UNL     1      43.308 -17.757   3.118  1.00  0.00     0.024 A 
HETATM   24 CL   UNL     1      43.218 -17.931   5.807  1.00  0.00    -0.084 Cl
HETATM   25  C   UNL     1      43.314 -17.047   1.921  1.00  0.00     0.004 A 
HETATM   26  C   UNL     1      43.283 -15.650   1.939  1.00  0.00     0.029 A 
ENDBRANCH  17  20
ENDBRANCH  15  16
ENDBRANCH   1  15
TORSDOF 3
ENDMDL
MODEL 3
REMARK VINA RESULT:      -7.8      3.577      6.472
REMARK  3 active torsions:
REMARK  status: ('A' for Active; 'I' for Inactive)
REMARK    1  A    between atoms: C_6  and  N_7 
REMARK       I    between atoms: N_7  and  C_8 
REMARK    2  A    between atoms: C_8  and  C_9 
REMARK    3  A    between atoms: C_9  and  C_10 
ROOT
HETATM    1  C   UNL     1      41.802 -13.587   5.751  1.00  0.00     0.286 C 
HETATM    2  N   UNL     1      43.256 -13.138   5.614  1.00  0.00    -0.056 N 
HETATM    3  H   UNL     1      43.834 -14.004   5.604  1.00  0.00     0.278 HD
HETATM    4  H   UNL     1      43.408 -12.679   4.707  1.00  0.00     0.278 HD
HETATM    5  C   UNL     1      43.639 -12.244   6.755  1.00  0.00     0.209 C 
HETATM    6  C   UNL     1      42.737 -10.990   6.709  1.00  0.00     0.115 C 
HETATM    7  N   UNL     1      41.316 -11.326   6.655  1.00  0.00    -0.353 N 
HETATM    8  C   UNL     1      40.842 -12.390   5.912  1.00  0.00     0.249 C 
HETATM    9  O   UNL     1      39.692 -12.389   5.492  1.00  0.00    -0.271 OA
HETATM   10  C   UNL     1      45.111 -11.865   6.668  1.00  0.00     0.035 C 
HETATM   11  C   UNL     1      45.472 -10.928   7.823  1.00  0.00     0.002 C 
HETATM   12  C   UNL     1      44.555  -9.704   7.889  1.00  0.00     0.002 C 
HETATM   13  C   UNL     1      43.069 -10.076   7.888  1.00  0.00     0.027 C 
HETATM   14  H   UNL     1      40.646 -10.560   6.703  1.00  0.00     0.163 HD
ENDROOT
BRANCH   1  15
HETATM   15  C   UNL     1      41.393 -14.503   4.593  1.00  0.00     0.146 C 
BRANCH  15  16
HETATM   16  C   UNL     1      42.301 -14.265   3.415  1.00  0.00     0.224 C 
HETATM   17  N   UNL     1      43.194 -15.191   2.979  1.00  0.00    -0.327 N 
HETATM   18  H   UNL     1      43.824 -14.810   2.279  1.00  0.00     0.169 HD
HETATM   19  O   UNL     1      42.238 -13.172   2.833  1.00  0.00    -0.273 OA
BRANCH  17  20
HETATM   20  C   UNL     1      43.434 -16.535   3.325  1.00  0.00     0.036 A 
HETATM   21  C   UNL     1      43.329 -17.619   2.454  1.00  0.00     0.053 A 
HETATM   22  C   UNL     1      43.593 -18.915   2.910  1.00  0.00     0.036 A 
HETATM   23  C   UNL     1      43.973 -19.147   4.229  1.00  0.00     0.024 A 
HETATM   24 CL   UNL     1      43.460 -20.239   1.817  1.00  0.00    -0.084 Cl
HETATM   25  C   UNL     1      44.107 -18.069   5.098  1.00  0.00     0.004 A 
HETATM   26  C   UNL     1      43.850 -16.773   4.645  1.00  0.00     0.029 A 
ENDBRANCH  17  20
ENDBRANCH  15  16
ENDBRANCH   1  15
TORSDOF 3
ENDMDL
MODEL 4
REMARK VINA RESULT:      -7.8      2.603      3.512
REMARK  3 active torsions:
REMARK  status: ('A' for Active; 'I' for Inactive)
REMARK    1  A    between atoms: C_6  and  N_7 
REMARK       I    between atoms: N_7  and  C_8 
REMARK    2  A    between atoms: C_8  and  C_9 
REMARK    3  A    between atoms: C_9  and  C_10 
ROOT
HETATM    1  C   UNL     1      40.491 -15.171   2.837  1.00  0.00     0.286 C 
HETATM    2  N   UNL     1      41.648 -15.881   2.135  1.00  0.00    -0.056 N 
HETATM    3  H   UNL     1      41.270 -16.242   1.234  1.00  0.00     0.278 HD
HETATM    4  H   UNL     1      42.387 -15.210   1.890  1.00  0.00     0.278 HD
HETATM    5  C   UNL     1      42.175 -16.996   2.987  1.00  0.00     0.209 C 
HETATM    6  C   UNL     1      42.708 -16.386   4.303  1.00  0.00     0.115 C 
HETATM    7  N   UNL     1      41.721 -15.534   4.964  1.00  0.00    -0.353 N 
HETATM    8  C   UNL     1      40.881 -14.699   4.254  1.00  0.00     0.249 C 
HETATM    9  O   UNL     1      40.421 -13.692   4.777  1.00  0.00    -0.271 OA
HETATM   10  C   UNL     1      43.269 -17.760   2.254  1.00  0.00     0.035 C 
HETATM   11  C   UNL     1      43.815 -18.871   3.154  1.00  0.00     0.002 C 
HETATM   12  C   UNL     1      44.279 -18.345   4.513  1.00  0.00     0.002 C 
HETATM   13  C   UNL     1      43.213 -17.501   5.218  1.00  0.00     0.027 C 
HETATM   14  H   UNL     1      41.959 -15.155   5.880  1.00  0.00     0.163 HD
ENDROOT
BRANCH   1  15
HETATM   15  C   UNL     1      39.938 -14.028   1.980  1.00  0.00     0.146 C 
BRANCH  15  16
HETATM   16  C   UNL     1      41.047 -13.439   1.146  1.00  0.00     0.224 C 
HETATM   17  N   UNL     1      40.943 -13.270  -0.196  1.00  0.00    -0.327 N 
HETATM   18  H   UNL     1      41.831 -13.005  -0.615  1.00  0.00     0.169 HD
HETATM   19  O   UNL     1      42.100 -13.113   1.713  1.00  0.00    -0.273 OA
BRANCH  17  20
HETATM   20  C   UNL     1      39.879 -13.418  -1.106  1.00  0.00     0.036 A 
HETATM   21  C   UNL     1      38.940 -12.433  -1.411  1.00  0.00     0.053 A 
HETATM   22  C   UNL     1      37.923 -12.693  -2.335  1.00  0.00     0.036 A 
HETATM   23  C   UNL     1      37.833 -13.927  -2.973  1.00  0.00     0.024 A 
HETATM   24 CL   UNL     1      36.775 -11.463  -2.698  1.00  0.00    -0.084 Cl
HETATM   25  C   UNL     1      38.781 -14.907  -2.696  1.00  0.00     0.004 A 
HETATM   26  C   UNL     1      39.802 -14.649  -1.778  1.00  0.00     0.029 A 
ENDBRANCH  17  20
ENDBRANCH  15  16
ENDBRANCH   1  15
TORSDOF 3
ENDMDL
MODEL 5
REMARK VINA RESULT:      -7.7      1.608      2.218
REMARK  3 active torsions:
REMARK  status: ('A' for Active; 'I' for Inactive)
REMARK    1  A    between atoms: C_6  and  N_7 
REMARK       I    between atoms: N_7  and  C_8 
REMARK    2  A    between atoms: C_8  and  C_9 
REMARK    3  A    between atoms: C_9  and  C_10 
ROOT
HETATM    1  C   UNL     1      43.490 -15.742   4.272  1.00  0.00     0.286 C 
HETATM    2  N   UNL     1      43.020 -16.892   5.162  1.00  0.00    -0.056 N 
HETATM    3  H   UNL     1      43.205 -16.601   6.144  1.00  0.00     0.278 HD
HETATM    4  H   UNL     1      42.004 -17.017   5.084  1.00  0.00     0.278 HD
HETATM    5  C   UNL     1      43.758 -18.152   4.824  1.00  0.00     0.209 C 
HETATM    6  C   UNL     1      43.444 -18.516   3.354  1.00  0.00     0.115 C 
HETATM    7  N   UNL     1      43.693 -17.404   2.439  1.00  0.00    -0.353 N 
HETATM    8  C   UNL     1      43.396 -16.098   2.773  1.00  0.00     0.249 C 
HETATM    9  O   UNL     1      43.159 -15.273   1.901  1.00  0.00    -0.271 OA
HETATM   10  C   UNL     1      43.355 -19.279   5.766  1.00  0.00     0.035 C 
HETATM   11  C   UNL     1      44.095 -20.563   5.382  1.00  0.00     0.002 C 
HETATM   12  C   UNL     1      43.897 -20.932   3.910  1.00  0.00     0.002 C 
HETATM   13  C   UNL     1      44.217 -19.773   2.960  1.00  0.00     0.027 C 
HETATM   14  H   UNL     1      43.589 -17.580   1.440  1.00  0.00     0.163 HD
ENDROOT
BRANCH   1  15
HETATM   15  C   UNL     1      42.748 -14.443   4.605  1.00  0.00     0.146 C 
BRANCH  15  16
HETATM   16  C   UNL     1      41.344 -14.764   5.052  1.00  0.00     0.224 C 
HETATM   17  N   UNL     1      40.277 -14.700   4.215  1.00  0.00    -0.327 N 
HETATM   18  H   UNL     1      39.398 -14.799   4.715  1.00  0.00     0.169 HD
HETATM   19  O   UNL     1      41.161 -15.085   6.235  1.00  0.00    -0.273 OA
BRANCH  17  20
HETATM   20  C   UNL     1      40.152 -14.493   2.828  1.00  0.00     0.036 A 
HETATM   21  C   UNL     1      40.258 -13.259   2.187  1.00  0.00     0.053 A 
HETATM   22  C   UNL     1      40.116 -13.174   0.798  1.00  0.00     0.036 A 
HETATM   23  C   UNL     1      39.878 -14.311   0.031  1.00  0.00     0.024 A 
HETATM   24 CL   UNL     1      40.253 -11.641   0.027  1.00  0.00    -0.084 Cl
HETATM   25  C   UNL     1      39.797 -15.550   0.658  1.00  0.00     0.004 A 
HETATM   26  C   UNL     1      39.945 -15.641   2.045  1.00  0.00     0.029 A 
ENDBRANCH  17  20
ENDBRANCH  15  16
ENDBRANCH   1  15
TORSDOF 3
ENDMDL
MODEL 6
REMARK VINA RESULT:      -7.6      2.792      6.371
REMARK  3 active torsions:
REMARK  status: ('A' for Active; 'I' for Inactive)
REMARK    1  A    between atoms: C_6  and  N_7 
REMARK       I    between atoms: N_7  and  C_8 
REMARK    2  A    between atoms: C_8  and  C_9 
REMARK    3  A    between atoms: C_9  and  C_10 
ROOT
HETATM    1  C   UNL     1      39.931 -13.666   2.624  1.00  0.00     0.286 C 
HETATM    2  N   UNL     1      40.659 -12.854   1.553  1.00  0.00    -0.056 N 
HETATM    3  H   UNL     1      40.601 -11.857   1.848  1.00  0.00     0.278 HD
HETATM    4  H   UNL     1      41.657 -13.094   1.535  1.00  0.00     0.278 HD
HETATM    5  C   UNL     1      40.018 -13.059   0.213  1.00  0.00     0.209 C 
HETATM    6  C   UNL     1      40.133 -14.557  -0.152  1.00  0.00     0.115 C 
HETATM    7  N   UNL     1      39.622 -15.430   0.903  1.00  0.00    -0.353 N 
HETATM    8  C   UNL     1      39.823 -15.158   2.242  1.00  0.00     0.249 C 
HETATM    9  O   UNL     1      39.828 -16.063   3.065  1.00  0.00    -0.271 OA
HETATM   10  C   UNL     1      40.686 -12.185  -0.839  1.00  0.00     0.035 C 
HETATM   11  C   UNL     1      40.039 -12.435  -2.204  1.00  0.00     0.002 C 
HETATM   12  C   UNL     1      40.040 -13.916  -2.587  1.00  0.00     0.002 C 
HETATM   13  C   UNL     1      39.449 -14.812  -1.494  1.00  0.00     0.027 C 
HETATM   14  H   UNL     1      39.584 -16.430   0.714  1.00  0.00     0.163 HD
ENDROOT
BRANCH   1  15
HETATM   15  C   UNL     1      40.571 -13.467   4.002  1.00  0.00     0.146 C 
BRANCH  15  16
HETATM   16  C   UNL     1      41.990 -12.989   3.835  1.00  0.00     0.224 C 
HETATM   17  N   UNL     1      43.061 -13.811   3.978  1.00  0.00    -0.327 N 
HETATM   18  H   UNL     1      43.936 -13.294   3.983  1.00  0.00     0.169 HD
HETATM   19  O   UNL     1      42.182 -11.793   3.573  1.00  0.00    -0.273 OA
BRANCH  17  20
HETATM   20  C   UNL     1      43.191 -15.202   4.151  1.00  0.00     0.036 A 
HETATM   21  C   UNL     1      43.156 -16.145   3.125  1.00  0.00     0.053 A 
HETATM   22  C   UNL     1      43.298 -17.506   3.416  1.00  0.00     0.036 A 
HETATM   23  C   UNL     1      43.486 -17.944   4.724  1.00  0.00     0.024 A 
HETATM   24 CL   UNL     1      43.253 -18.654   2.133  1.00  0.00    -0.084 Cl
HETATM   25  C   UNL     1      43.549 -17.008   5.751  1.00  0.00     0.004 A 
HETATM   26  C   UNL     1      43.415 -15.647   5.464  1.00  0.00     0.029 A 
ENDBRANCH  17  20
ENDBRANCH  15  16
ENDBRANCH   1  15
TORSDOF 3
ENDMDL
MODEL 7
REMARK VINA RESULT:      -7.6      2.509      3.306
REMARK  3 active torsions:
REMARK  status: ('A' for Active; 'I' for Inactive)
REMARK    1  A    between atoms: C_6  and  N_7 
REMARK       I    between atoms: N_7  and  C_8 
REMARK    2  A    between atoms: C_8  and  C_9 
REMARK    3  A    between atoms: C_9  and  C_10 
ROOT
HETATM    1  C   UNL     1      41.998 -16.164   2.476  1.00  0.00     0.286 C 
HETATM    2  N   UNL     1      42.597 -17.435   1.874  1.00  0.00    -0.056 N 
HETATM    3  H   UNL     1      41.897 -17.797   1.192  1.00  0.00     0.278 HD
HETATM    4  H   UNL     1      43.441 -17.214   1.332  1.00  0.00     0.278 HD
HETATM    5  C   UNL     1      42.878 -18.442   2.947  1.00  0.00     0.209 C 
HETATM    6  C   UNL     1      43.912 -17.833   3.922  1.00  0.00     0.115 C 
HETATM    7  N   UNL     1      43.507 -16.519   4.417  1.00  0.00    -0.353 N 
HETATM    8  C   UNL     1      42.879 -15.592   3.607  1.00  0.00     0.249 C 
HETATM    9  O   UNL     1      42.968 -14.396   3.850  1.00  0.00    -0.271 OA
HETATM   10  C   UNL     1      43.392 -19.741   2.342  1.00  0.00     0.035 C 
HETATM   11  C   UNL     1      43.703 -20.743   3.457  1.00  0.00     0.002 C 
HETATM   12  C   UNL     1      44.656 -20.169   4.508  1.00  0.00     0.002 C 
HETATM   13  C   UNL     1      44.188 -18.818   5.058  1.00  0.00     0.027 C 
HETATM   14  H   UNL     1      44.090 -16.079   5.127  1.00  0.00     0.163 HD
ENDROOT
BRANCH   1  15
HETATM   15  C   UNL     1      41.703 -15.122   1.392  1.00  0.00     0.146 C 
BRANCH  15  16
HETATM   16  C   UNL     1      40.259 -15.224   0.973  1.00  0.00     0.224 C 
HETATM   17  N   UNL     1      39.702 -14.393   0.055  1.00  0.00    -0.327 N 
HETATM   18  H   UNL     1      38.693 -14.504   0.006  1.00  0.00     0.169 HD
HETATM   19  O   UNL     1      39.552 -16.094   1.502  1.00  0.00    -0.273 OA
BRANCH  17  20
HETATM   20  C   UNL     1      40.233 -13.407  -0.799  1.00  0.00     0.036 A 
HETATM   21  C   UNL     1      40.726 -12.169  -0.386  1.00  0.00     0.053 A 
HETATM   22  C   UNL     1      41.232 -11.266  -1.326  1.00  0.00     0.036 A 
HETATM   23  C   UNL     1      41.264 -11.584  -2.681  1.00  0.00     0.024 A 
HETATM   24 CL   UNL     1      41.837  -9.744  -0.795  1.00  0.00    -0.084 Cl
HETATM   25  C   UNL     1      40.800 -12.826  -3.099  1.00  0.00     0.004 A 
HETATM   26  C   UNL     1      40.299 -13.735  -2.162  1.00  0.00     0.029 A 
ENDBRANCH  17  20
ENDBRANCH  15  16
ENDBRANCH   1  15
TORSDOF 3
ENDMDL
MODEL 8
REMARK VINA RESULT:      -7.5      3.835      5.535
REMARK  3 active torsions:
REMARK  status: ('A' for Active; 'I' for Inactive)
REMARK    1  A    between atoms: C_6  and  N_7 
REMARK       I    between atoms: N_7  and  C_8 
REMARK    2  A    between atoms: C_8  and  C_9 
REMARK    3  A    between atoms: C_9  and  C_10 
ROOT
HETATM    1  C   UNL     1      42.718 -14.082   3.683  1.00  0.00     0.286 C 
HETATM    2  N   UNL     1      43.095 -15.179   4.679  1.00  0.00    -0.056 N 
HETATM    3  H   UNL     1      43.820 -14.772   5.305  1.00  0.00     0.278 HD
HETATM    4  H   UNL     1      42.293 -15.412   5.278  1.00  0.00     0.278 HD
HETATM    5  C   UNL     1      43.615 -16.385   3.959  1.00  0.00     0.209 C 
HETATM    6  C   UNL     1      42.491 -16.925   3.046  1.00  0.00     0.115 C 
HETATM    7  N   UNL     1      41.937 -15.892   2.173  1.00  0.00    -0.353 N 
HETATM    8  C   UNL     1      41.740 -14.595   2.604  1.00  0.00     0.249 C 
HETATM    9  O   UNL     1      40.886 -13.890   2.083  1.00  0.00    -0.271 OA
HETATM   10  C   UNL     1      44.073 -17.446   4.951  1.00  0.00     0.035 C 
HETATM   11  C   UNL     1      44.569 -18.681   4.195  1.00  0.00     0.002 C 
HETATM   12  C   UNL     1      43.532 -19.214   3.205  1.00  0.00     0.002 C 
HETATM   13  C   UNL     1      43.003 -18.131   2.259  1.00  0.00     0.027 C 
HETATM   14  H   UNL     1      41.246 -16.177   1.480  1.00  0.00     0.163 HD
ENDROOT
BRANCH   1  15
HETATM   15  C   UNL     1      42.185 -12.838   4.402  1.00  0.00     0.146 C 
BRANCH  15  16
HETATM   16  C   UNL     1      41.785 -13.201   5.809  1.00  0.00     0.224 C 
HETATM   17  N   UNL     1      42.475 -12.775   6.898  1.00  0.00    -0.327 N 
HETATM   18  H   UNL     1      42.161 -13.234   7.749  1.00  0.00     0.169 HD
HETATM   19  O   UNL     1      40.796 -13.929   5.972  1.00  0.00    -0.273 OA
BRANCH  17  20
HETATM   20  C   UNL     1      43.540 -11.870   7.071  1.00  0.00     0.036 A 
HETATM   21  C   UNL     1      43.445 -10.631   7.704  1.00  0.00     0.053 A 
HETATM   22  C   UNL     1      44.573  -9.812   7.819  1.00  0.00     0.036 A 
HETATM   23  C   UNL     1      45.807 -10.217   7.318  1.00  0.00     0.024 A 
HETATM   24 CL   UNL     1      44.434  -8.287   8.606  1.00  0.00    -0.084 Cl
HETATM   25  C   UNL     1      45.918 -11.463   6.708  1.00  0.00     0.004 A 
HETATM   26  C   UNL     1      44.794 -12.287   6.597  1.00  0.00     0.029 A 
ENDBRANCH  17  20
ENDBRANCH  15  16
ENDBRANCH   1  15
TORSDOF 3
ENDMDL
MODEL 9
REMARK VINA RESULT:      -7.5      3.113      7.050
REMARK  3 active torsions:
REMARK  status: ('A' for Active; 'I' for Inactive)
REMARK    1  A    between atoms: C_6  and  N_7 
REMARK       I    between atoms: N_7  and  C_8 
REMARK    2  A    between atoms: C_8  and  C_9 
REMARK    3  A    between atoms: C_9  and  C_10 
ROOT
HETATM    1  C   UNL     1      41.789 -13.369   1.220  1.00  0.00     0.286 C 
HETATM    2  N   UNL     1      40.712 -14.288   0.644  1.00  0.00    -0.056 N 
HETATM    3  H   UNL     1      41.120 -15.246   0.626  1.00  0.00     0.278 HD
HETATM    4  H   UNL     1      39.900 -14.331   1.273  1.00  0.00     0.278 HD
HETATM    5  C   UNL     1      40.320 -13.841  -0.731  1.00  0.00     0.209 C 
HETATM    6  C   UNL     1      39.734 -12.414  -0.626  1.00  0.00     0.115 C 
HETATM    7  N   UNL     1      40.626 -11.495   0.078  1.00  0.00    -0.353 N 
HETATM    8  C   UNL     1      41.362 -11.886   1.180  1.00  0.00     0.249 C 
HETATM    9  O   UNL     1      41.710 -11.064   2.016  1.00  0.00    -0.271 OA
HETATM   10  C   UNL     1      39.312 -14.804  -1.342  1.00  0.00     0.035 C 
HETATM   11  C   UNL     1      38.901 -14.311  -2.732  1.00  0.00     0.002 C 
HETATM   12  C   UNL     1      38.394 -12.868  -2.712  1.00  0.00     0.002 C 
HETATM   13  C   UNL     1      39.366 -11.907  -2.020  1.00  0.00     0.027 C 
HETATM   14  H   UNL     1      40.356 -10.514   0.123  1.00  0.00     0.163 HD
ENDROOT
BRANCH   1  15
HETATM   15  C   UNL     1      42.203 -13.812   2.627  1.00  0.00     0.146 C 
BRANCH  15  16
HETATM   16  C   UNL     1      41.057 -14.536   3.287  1.00  0.00     0.224 C 
HETATM   17  N   UNL     1      41.131 -15.840   3.657  1.00  0.00    -0.327 N 
HETATM   18  H   UNL     1      40.226 -16.204   3.944  1.00  0.00     0.169 HD
HETATM   19  O   UNL     1      40.002 -13.915   3.482  1.00  0.00    -0.273 OA
BRANCH  17  20
HETATM   20  C   UNL     1      42.184 -16.774   3.689  1.00  0.00     0.036 A 
HETATM   21  C   UNL     1      42.391 -17.782   2.747  1.00  0.00     0.053 A 
HETATM   22  C   UNL     1      43.476 -18.655   2.879  1.00  0.00     0.036 A 
HETATM   23  C   UNL     1      44.370 -18.532   3.939  1.00  0.00     0.024 A 
HETATM   24 CL   UNL     1      43.715 -19.891   1.705  1.00  0.00    -0.084 Cl
HETATM   25  C   UNL     1      44.187 -17.513   4.869  1.00  0.00     0.004 A 
HETATM   26  C   UNL     1      43.108 -16.634   4.737  1.00  0.00     0.029 A 
ENDBRANCH  17  20
ENDBRANCH  15  16
ENDBRANCH   1  15
TORSDOF 3
ENDMDL
MODEL 10
REMARK VINA RESULT:      -7.4      3.826      5.231
REMARK  3 active torsions:
REMARK  status: ('A' for Active; 'I' for Inactive)
REMARK    1  A    between atoms: C_6  and  N_7 
REMARK       I    between atoms: N_7  and  C_8 
REMARK    2  A    between atoms: C_8  and  C_9 
REMARK    3  A    between atoms: C_9  and  C_10 
ROOT
HETATM    1  C   UNL     1      41.849 -14.564   5.126  1.00  0.00     0.286 C 
HETATM    2  N   UNL     1      42.124 -15.059   3.706  1.00  0.00    -0.056 N 
HETATM    3  H   UNL     1      41.255 -14.884   3.159  1.00  0.00     0.278 HD
HETATM    4  H   UNL     1      42.861 -14.497   3.264  1.00  0.00     0.278 HD
HETATM    5  C   UNL     1      42.472 -16.516   3.717  1.00  0.00     0.209 C 
HETATM    6  C   UNL     1      43.760 -16.698   4.551  1.00  0.00     0.115 C 
HETATM    7  N   UNL     1      43.658 -16.091   5.877  1.00  0.00    -0.353 N 
HETATM    8  C   UNL     1      43.016 -14.885   6.083  1.00  0.00     0.249 C 
HETATM    9  O   UNL     1      43.324 -14.174   7.031  1.00  0.00    -0.271 OA
HETATM   10  C   UNL     1      42.660 -17.033   2.297  1.00  0.00     0.035 C 
HETATM   11  C   UNL     1      43.047 -18.514   2.333  1.00  0.00     0.002 C 
HETATM   12  C   UNL     1      44.267 -18.776   3.218  1.00  0.00     0.002 C 
HETATM   13  C   UNL     1      44.121 -18.182   4.623  1.00  0.00     0.027 C 
HETATM   14  H   UNL     1      44.432 -16.233   6.524  1.00  0.00     0.163 HD
ENDROOT
BRANCH   1  15
HETATM   15  C   UNL     1      41.490 -13.074   5.135  1.00  0.00     0.146 C 
BRANCH  15  16
HETATM   16  C   UNL     1      42.367 -12.337   4.156  1.00  0.00     0.224 C 
HETATM   17  N   UNL     1      43.335 -11.470   4.550  1.00  0.00    -0.327 N 
HETATM   18  H   UNL     1      43.722 -10.953   3.765  1.00  0.00     0.169 HD
HETATM   19  O   UNL     1      42.183 -12.521   2.944  1.00  0.00    -0.273 OA
BRANCH  17  20
HETATM   20  C   UNL     1      43.872 -11.131   5.807  1.00  0.00     0.036 A 
HETATM   21  C   UNL     1      43.148 -10.590   6.869  1.00  0.00     0.053 A 
HETATM   22  C   UNL     1      43.788 -10.293   8.077  1.00  0.00     0.036 A 
HETATM   23  C   UNL     1      45.147 -10.539   8.247  1.00  0.00     0.024 A 
HETATM   24 CL   UNL     1      42.875  -9.626   9.375  1.00  0.00    -0.084 Cl
HETATM   25  C   UNL     1      45.872 -11.104   7.203  1.00  0.00     0.004 A 
HETATM   26  C   UNL     1      45.235 -11.408   5.996  1.00  0.00     0.029 A 
ENDBRANCH  17  20
ENDBRANCH  15  16
ENDBRANCH   1  15
TORSDOF 3
ENDMDL
