MODEL 1
REMARK VINA RESULT:      -8.1      0.000      0.000
REMARK  8 active torsions:
REMARK  status: ('A' for Active; 'I' for Inactive)
REMARK    1  A    between atoms: C_2  and  S_3 
REMARK    2  A    between atoms: S_3  and  C_4 
REMARK    3  A    between atoms: C_7  and  N_8 
REMARK    4  A    between atoms: N_8  and  C_9 
REMARK    5  A    between atoms: C_9  and  N_10 
REMARK       I    between atoms: N_10  and  C_11 
REMARK    6  A    between atoms: C_11  and  C_12 
REMARK    7  A    between atoms: C_21  and  C_22 
REMARK       I    between atoms: C_22  and  N_23 
REMARK    8  A    between atoms: C_25  and  C_26 
REMARK       I    between atoms: C_26  and  N_27 
ROOT
HETATM    1  C   UNL     1      42.819 -17.170   4.166  1.00  0.00     0.088 A 
HETATM    2  N   UNL     1      41.785 -16.789   3.371  1.00  0.00    -0.335 N 
HETATM    3  H   UNL     1      41.648 -17.111   2.422  1.00  0.00     0.168 HD
HETATM    4  C   UNL     1      40.992 -15.885   4.013  1.00  0.00     0.125 A 
HETATM    5  C   UNL     1      41.503 -15.726   5.302  1.00  0.00     0.094 A 
HETATM    6  C   UNL     1      42.714 -16.535   5.395  1.00  0.00     0.084 A 
ENDROOT
BRANCH   4   7
HETATM    7  N   UNL     1      39.896 -15.269   3.424  1.00  0.00    -0.318 N 
HETATM    8  H   UNL     1      39.020 -15.800   3.435  1.00  0.00     0.170 HD
BRANCH   7   9
HETATM    9  C   UNL     1      39.792 -13.996   2.906  1.00  0.00     0.180 C 
HETATM   10  S   UNL     1      39.859 -12.523   3.700  1.00  0.00    -0.040 SA
BRANCH   9  11
HETATM   11  N   UNL     1      39.604 -13.939   1.534  1.00  0.00    -0.299 N 
HETATM   12  C   UNL     1      40.391 -14.486   0.529  1.00  0.00     0.259 C 
HETATM   13  O   UNL     1      41.441 -15.086   0.731  1.00  0.00    -0.267 OA
HETATM   14  H   UNL     1      38.769 -13.431   1.267  1.00  0.00     0.171 HD
BRANCH  12  15
HETATM   15  C   UNL     1      39.890 -14.262  -0.846  1.00  0.00     0.054 A 
HETATM   16  C   UNL     1      40.106 -13.049  -1.511  1.00  0.00     0.049 A 
HETATM   17 CL   UNL     1      41.022 -11.756  -0.827  1.00  0.00    -0.083 Cl
HETATM   18  C   UNL     1      39.612 -12.876  -2.807  1.00  0.00     0.025 A 
HETATM   19  C   UNL     1      38.905 -13.904  -3.436  1.00  0.00     0.002 A 
HETATM   20  C   UNL     1      38.685 -15.109  -2.772  1.00  0.00     0.001 A 
HETATM   21  C   UNL     1      39.172 -15.291  -1.477  1.00  0.00     0.019 A 
ENDBRANCH  12  15
ENDBRANCH   9  11
ENDBRANCH   7   9
ENDBRANCH   4   7
BRANCH   5  22
HETATM   22  C   UNL     1      40.926 -14.865   6.328  1.00  0.00     0.254 C 
HETATM   23  N   UNL     1      41.728 -13.863   6.788  1.00  0.00    -0.366 N 
HETATM   24  H   UNL     1      42.617 -13.632   6.368  1.00  0.00     0.159 HD
HETATM   25  H   UNL     1      41.348 -13.229   7.477  1.00  0.00     0.159 HD
HETATM   26  O   UNL     1      39.782 -14.988   6.752  1.00  0.00    -0.268 OA
ENDBRANCH   5  22
BRANCH   1  27
HETATM   27  S   UNL     1      43.925 -18.311   3.469  1.00  0.00    -0.112 SA
BRANCH  27  28
HETATM   28  C   UNL     1      42.884 -19.025   2.162  1.00  0.00     0.076 C 
HETATM   29  C   UNL     1      43.438 -20.374   1.738  1.00  0.00     0.016 C 
ENDBRANCH  27  28
ENDBRANCH   1  27
BRANCH   6  30
HETATM   30  C   UNL     1      43.653 -16.734   6.504  1.00  0.00     0.253 C 
HETATM   31  N   UNL     1      43.351 -17.681   7.435  1.00  0.00    -0.366 N 
HETATM   32  H   UNL     1      42.434 -18.116   7.500  1.00  0.00     0.159 HD
HETATM   33  H   UNL     1      43.951 -17.735   8.244  1.00  0.00     0.159 HD
HETATM   34  O   UNL     1      44.686 -16.087   6.656  1.00  0.00    -0.268 OA
ENDBRANCH   6  30
TORSDOF 8
ENDMDL
MODEL 2
REMARK VINA RESULT:      -7.4      3.204      7.533
REMARK  8 active torsions:
REMARK  status: ('A' for Active; 'I' for Inactive)
REMARK    1  A    between atoms: C_2  and  S_3 
REMARK    2  A    between atoms: S_3  and  C_4 
REMARK    3  A    between atoms: C_7  and  N_8 
REMARK    4  A    between atoms: N_8  and  C_9 
REMARK    5  A    between atoms: C_9  and  N_10 
REMARK       I    between atoms: N_10  and  C_11 
REMARK    6  A    between atoms: C_11  and  C_12 
REMARK    7  A    between atoms: C_21  and  C_22 
REMARK       I    between atoms: C_22  and  N_23 
REMARK    8  A    between atoms: C_25  and  C_26 
REMARK       I    between atoms: C_26  and  N_27 
ROOT
HETATM    1  C   UNL     1      38.974 -11.548   1.783  1.00  0.00     0.088 A 
HETATM    2  N   UNL     1      39.088 -12.073   3.031  1.00  0.00    -0.335 N 
HETATM    3  H   UNL     1      38.835 -11.584   3.879  1.00  0.00     0.168 HD
HETATM    4  C   UNL     1      39.628 -13.324   2.981  1.00  0.00     0.125 A 
HETATM    5  C   UNL     1      39.810 -13.642   1.634  1.00  0.00     0.094 A 
HETATM    6  C   UNL     1      39.419 -12.474   0.851  1.00  0.00     0.084 A 
ENDROOT
BRANCH   4   7
HETATM    7  N   UNL     1      39.923 -14.081   4.106  1.00  0.00    -0.318 N 
HETATM    8  H   UNL     1      39.146 -14.613   4.508  1.00  0.00     0.170 HD
BRANCH   7   9
HETATM    9  C   UNL     1      41.142 -14.295   4.711  1.00  0.00     0.180 C 
HETATM   10  S   UNL     1      41.995 -13.299   5.754  1.00  0.00    -0.040 SA
BRANCH   9  11
HETATM   11  N   UNL     1      41.740 -15.507   4.404  1.00  0.00    -0.299 N 
HETATM   12  C   UNL     1      42.795 -15.756   3.536  1.00  0.00     0.259 C 
HETATM   13  O   UNL     1      43.340 -14.895   2.854  1.00  0.00    -0.267 OA
HETATM   14  H   UNL     1      41.332 -16.289   4.901  1.00  0.00     0.171 HD
BRANCH  12  15
HETATM   15  C   UNL     1      43.213 -17.174   3.455  1.00  0.00     0.054 A 
HETATM   16  C   UNL     1      44.023 -17.752   4.439  1.00  0.00     0.049 A 
HETATM   17 CL   UNL     1      44.538 -16.899   5.848  1.00  0.00    -0.083 Cl
HETATM   18  C   UNL     1      44.400 -19.094   4.322  1.00  0.00     0.025 A 
HETATM   19  C   UNL     1      43.973 -19.854   3.231  1.00  0.00     0.002 A 
HETATM   20  C   UNL     1      43.172 -19.277   2.248  1.00  0.00     0.001 A 
HETATM   21  C   UNL     1      42.792 -17.938   2.354  1.00  0.00     0.019 A 
ENDBRANCH  12  15
ENDBRANCH   9  11
ENDBRANCH   7   9
ENDBRANCH   4   7
BRANCH   5  22
HETATM   22  C   UNL     1      40.339 -14.909   1.140  1.00  0.00     0.254 C 
HETATM   23  N   UNL     1      41.467 -14.829   0.377  1.00  0.00    -0.366 N 
HETATM   24  H   UNL     1      41.993 -13.975   0.258  1.00  0.00     0.159 HD
HETATM   25  H   UNL     1      41.878 -15.691   0.045  1.00  0.00     0.159 HD
HETATM   26  O   UNL     1      39.843 -15.999   1.401  1.00  0.00    -0.268 OA
ENDBRANCH   5  22
BRANCH   1  27
HETATM   27  S   UNL     1      38.315  -9.946   1.697  1.00  0.00    -0.112 SA
BRANCH  27  28
HETATM   28  C   UNL     1      36.704 -10.291   0.930  1.00  0.00     0.076 C 
HETATM   29  C   UNL     1      36.662  -9.706  -0.471  1.00  0.00     0.016 C 
ENDBRANCH  27  28
ENDBRANCH   1  27
BRANCH   6  30
HETATM   30  C   UNL     1      39.416 -12.247  -0.598  1.00  0.00     0.253 C 
HETATM   31  N   UNL     1      40.410 -11.478  -1.126  1.00  0.00    -0.366 N 
HETATM   32  H   UNL     1      41.031 -10.913  -0.554  1.00  0.00     0.159 HD
HETATM   33  H   UNL     1      40.337 -11.247  -2.105  1.00  0.00     0.159 HD
HETATM   34  O   UNL     1      38.564 -12.690  -1.363  1.00  0.00    -0.268 OA
ENDBRANCH   6  30
TORSDOF 8
ENDMDL
MODEL 3
REMARK VINA RESULT:      -7.3      4.825      7.752
REMARK  8 active torsions:
REMARK  status: ('A' for Active; 'I' for Inactive)
REMARK    1  A    between atoms: C_2  and  S_3 
REMARK    2  A    between atoms: S_3  and  C_4 
REMARK    3  A    between atoms: C_7  and  N_8 
REMARK    4  A    between atoms: N_8  and  C_9 
REMARK    5  A    between atoms: C_9  and  N_10 
REMARK       I    between atoms: N_10  and  C_11 
REMARK    6  A    between atoms: C_11  and  C_12 
REMARK    7  A    between atoms: C_21  and  C_22 
REMARK       I    between atoms: C_22  and  N_23 
REMARK    8  A    between atoms: C_25  and  C_26 
REMARK       I    between atoms: C_26  and  N_27 
ROOT
HETATM    1  C   UNL     1      42.356  -9.416   8.002  1.00  0.00     0.088 A 
HETATM    2  N   UNL     1      41.700 -10.253   7.154  1.00  0.00    -0.335 N 
HETATM    3  H   UNL     1      40.705 -10.222   6.982  1.00  0.00     0.168 HD
HETATM    4  C   UNL     1      42.562 -11.158   6.609  1.00  0.00     0.125 A 
HETATM    5  C   UNL     1      43.840 -10.849   7.078  1.00  0.00     0.094 A 
HETATM    6  C   UNL     1      43.706  -9.737   8.014  1.00  0.00     0.084 A 
ENDROOT
BRANCH   4   7
HETATM    7  N   UNL     1      42.166 -12.179   5.756  1.00  0.00    -0.318 N 
HETATM    8  H   UNL     1      41.424 -12.793   6.102  1.00  0.00     0.170 HD
BRANCH   7   9
HETATM    9  C   UNL     1      42.567 -12.430   4.462  1.00  0.00     0.180 C 
HETATM   10  S   UNL     1      42.707 -11.368   3.174  1.00  0.00    -0.040 SA
BRANCH   9  11
HETATM   11  N   UNL     1      42.895 -13.751   4.199  1.00  0.00    -0.299 N 
HETATM   12  C   UNL     1      42.258 -14.904   4.638  1.00  0.00     0.259 C 
HETATM   13  O   UNL     1      41.295 -14.909   5.396  1.00  0.00    -0.267 OA
HETATM   14  H   UNL     1      43.705 -13.849   3.599  1.00  0.00     0.171 HD
BRANCH  12  15
HETATM   15  C   UNL     1      42.853 -16.169   4.150  1.00  0.00     0.054 A 
HETATM   16  C   UNL     1      43.859 -16.825   4.870  1.00  0.00     0.049 A 
HETATM   17 CL   UNL     1      44.433 -16.268   6.398  1.00  0.00    -0.083 Cl
HETATM   18  C   UNL     1      44.398 -18.015   4.371  1.00  0.00     0.025 A 
HETATM   19  C   UNL     1      43.941 -18.546   3.162  1.00  0.00     0.002 A 
HETATM   20  C   UNL     1      42.944 -17.889   2.443  1.00  0.00     0.001 A 
HETATM   21  C   UNL     1      42.401 -16.700   2.932  1.00  0.00     0.019 A 
ENDBRANCH  12  15
ENDBRANCH   9  11
ENDBRANCH   7   9
ENDBRANCH   4   7
BRANCH   5  22
HETATM   22  C   UNL     1      45.059 -11.561   6.709  1.00  0.00     0.254 C 
HETATM   23  N   UNL     1      46.184 -10.799   6.593  1.00  0.00    -0.366 N 
HETATM   24  H   UNL     1      46.223  -9.827   6.868  1.00  0.00     0.159 HD
HETATM   25  H   UNL     1      47.052 -11.265   6.369  1.00  0.00     0.159 HD
HETATM   26  O   UNL     1      45.110 -12.774   6.536  1.00  0.00    -0.268 OA
ENDBRANCH   5  22
BRANCH   1  27
HETATM   27  S   UNL     1      41.376  -8.218   8.784  1.00  0.00    -0.112 SA
BRANCH  27  28
HETATM   28  C   UNL     1      40.618  -9.217  10.099  1.00  0.00     0.076 C 
HETATM   29  C   UNL     1      39.178  -9.538   9.739  1.00  0.00     0.016 C 
ENDBRANCH  27  28
ENDBRANCH   1  27
BRANCH   6  30
HETATM   30  C   UNL     1      44.713  -9.020   8.804  1.00  0.00     0.253 C 
HETATM   31  N   UNL     1      44.804  -9.307  10.133  1.00  0.00    -0.366 N 
HETATM   32  H   UNL     1      44.099  -9.844  10.630  1.00  0.00     0.159 HD
HETATM   33  H   UNL     1      45.428  -8.735  10.681  1.00  0.00     0.159 HD
HETATM   34  O   UNL     1      45.465  -8.165   8.347  1.00  0.00    -0.268 OA
ENDBRANCH   6  30
TORSDOF 8
ENDMDL
MODEL 4
REMARK VINA RESULT:      -7.3      3.155      7.929
REMARK  8 active torsions:
REMARK  status: ('A' for Active; 'I' for Inactive)
REMARK    1  A    between atoms: C_2  and  S_3 
REMARK    2  A    between atoms: S_3  and  C_4 
REMARK    3  A    between atoms: C_7  and  N_8 
REMARK    4  A    between atoms: N_8  and  C_9 
REMARK    5  A    between atoms: C_9  and  N_10 
REMARK       I    between atoms: N_10  and  C_11 
REMARK    6  A    between atoms: C_11  and  C_12 
REMARK    7  A    between atoms: C_21  and  C_22 
REMARK       I    between atoms: C_22  and  N_23 
REMARK    8  A    between atoms: C_25  and  C_26 
REMARK       I    between atoms: C_26  and  N_27 
ROOT
HETATM    1  C   UNL     1      41.032 -11.324  -0.435  1.00  0.00     0.088 A 
HETATM    2  N   UNL     1      40.945 -11.504   0.910  1.00  0.00    -0.335 N 
HETATM    3  H   UNL     1      41.197 -10.805   1.595  1.00  0.00     0.168 HD
HETATM    4  C   UNL     1      40.516 -12.766   1.200  1.00  0.00     0.125 A 
HETATM    5  C   UNL     1      40.254 -13.404  -0.014  1.00  0.00     0.094 A 
HETATM    6  C   UNL     1      40.623 -12.480  -1.082  1.00  0.00     0.084 A 
ENDROOT
BRANCH   4   7
HETATM    7  N   UNL     1      40.393 -13.258   2.492  1.00  0.00    -0.318 N 
HETATM    8  H   UNL     1      39.518 -13.742   2.709  1.00  0.00     0.170 HD
BRANCH   7   9
HETATM    9  C   UNL     1      41.327 -13.273   3.505  1.00  0.00     0.180 C 
HETATM   10  S   UNL     1      41.754 -12.051   4.567  1.00  0.00    -0.040 SA
BRANCH   9  11
HETATM   11  N   UNL     1      42.005 -14.472   3.654  1.00  0.00    -0.299 N 
HETATM   12  C   UNL     1      41.481 -15.748   3.817  1.00  0.00     0.259 C 
HETATM   13  O   UNL     1      40.282 -15.990   3.901  1.00  0.00    -0.267 OA
HETATM   14  H   UNL     1      43.012 -14.367   3.629  1.00  0.00     0.171 HD
BRANCH  12  15
HETATM   15  C   UNL     1      42.489 -16.827   3.924  1.00  0.00     0.054 A 
HETATM   16  C   UNL     1      43.005 -17.221   5.164  1.00  0.00     0.049 A 
HETATM   17 CL   UNL     1      42.469 -16.545   6.659  1.00  0.00    -0.083 Cl
HETATM   18  C   UNL     1      43.960 -18.241   5.221  1.00  0.00     0.025 A 
HETATM   19  C   UNL     1      44.399 -18.863   4.050  1.00  0.00     0.002 A 
HETATM   20  C   UNL     1      43.889 -18.467   2.815  1.00  0.00     0.001 A 
HETATM   21  C   UNL     1      42.937 -17.448   2.748  1.00  0.00     0.019 A 
ENDBRANCH  12  15
ENDBRANCH   9  11
ENDBRANCH   7   9
ENDBRANCH   4   7
BRANCH   5  22
HETATM   22  C   UNL     1      39.745 -14.764  -0.148  1.00  0.00     0.254 C 
HETATM   23  N   UNL     1      38.974 -15.008  -1.247  1.00  0.00    -0.366 N 
HETATM   24  H   UNL     1      38.859 -14.343  -1.999  1.00  0.00     0.159 HD
HETATM   25  H   UNL     1      38.630 -15.948  -1.387  1.00  0.00     0.159 HD
HETATM   26  O   UNL     1      39.999 -15.665   0.644  1.00  0.00    -0.268 OA
ENDBRANCH   5  22
BRANCH   1  27
HETATM   27  S   UNL     1      41.584  -9.763  -0.951  1.00  0.00    -0.112 SA
BRANCH  27  28
HETATM   28  C   UNL     1      40.049  -9.080  -1.642  1.00  0.00     0.076 C 
HETATM   29  C   UNL     1      40.153  -8.999  -3.155  1.00  0.00     0.016 C 
ENDBRANCH  27  28
ENDBRANCH   1  27
BRANCH   6  30
HETATM   30  C   UNL     1      40.569 -12.629  -2.541  1.00  0.00     0.253 C 
HETATM   31  N   UNL     1      41.747 -12.745  -3.215  1.00  0.00    -0.366 N 
HETATM   32  H   UNL     1      42.647 -12.549  -2.787  1.00  0.00     0.159 HD
HETATM   33  H   UNL     1      41.698 -12.743  -4.223  1.00  0.00     0.159 HD
HETATM   34  O   UNL     1      39.529 -12.636  -3.194  1.00  0.00    -0.268 OA
ENDBRANCH   6  30
TORSDOF 8
ENDMDL
MODEL 5
REMARK VINA RESULT:      -7.3      3.869      6.472
REMARK  8 active torsions:
REMARK  status: ('A' for Active; 'I' for Inactive)
REMARK    1  A    between atoms: C_2  and  S_3 
REMARK    2  A    between atoms: S_3  and  C_4 
REMARK    3  A    between atoms: C_7  and  N_8 
REMARK    4  A    between atoms: N_8  and  C_9 
REMARK    5  A    between atoms: C_9  and  N_10 
REMARK       I    between atoms: N_10  and  C_11 
REMARK    6  A    between atoms: C_11  and  C_12 
REMARK    7  A    between atoms: C_21  and  C_22 
REMARK       I    between atoms: C_22  and  N_23 
REMARK    8  A    between atoms: C_25  and  C_26 
REMARK       I    between atoms: C_26  and  N_27 
ROOT
HETATM    1  C   UNL     1      42.347 -12.959   5.981  1.00  0.00     0.088 A 
HETATM    2  N   UNL     1      41.881 -14.077   5.364  1.00  0.00    -0.335 N 
HETATM    3  H   UNL     1      42.305 -14.991   5.445  1.00  0.00     0.168 HD
HETATM    4  C   UNL     1      40.798 -13.782   4.589  1.00  0.00     0.125 A 
HETATM    5  C   UNL     1      40.517 -12.426   4.768  1.00  0.00     0.094 A 
HETATM    6  C   UNL     1      41.545 -11.878   5.646  1.00  0.00     0.084 A 
ENDROOT
BRANCH   4   7
HETATM    7  N   UNL     1      40.149 -14.712   3.788  1.00  0.00    -0.318 N 
HETATM    8  H   UNL     1      39.185 -14.937   4.049  1.00  0.00     0.170 HD
BRANCH   7   9
HETATM    9  C   UNL     1      40.588 -15.311   2.627  1.00  0.00     0.180 C 
HETATM   10  S   UNL     1      40.356 -14.835   1.039  1.00  0.00    -0.040 SA
BRANCH   9  11
HETATM   11  N   UNL     1      41.323 -16.471   2.813  1.00  0.00    -0.299 N 
HETATM   12  C   UNL     1      42.688 -16.606   3.030  1.00  0.00     0.259 C 
HETATM   13  O   UNL     1      43.476 -15.667   3.041  1.00  0.00    -0.267 OA
HETATM   14  H   UNL     1      40.756 -17.310   2.788  1.00  0.00     0.171 HD
BRANCH  12  15
HETATM   15  C   UNL     1      43.155 -17.998   3.217  1.00  0.00     0.054 A 
HETATM   16  C   UNL     1      43.784 -18.403   4.400  1.00  0.00     0.049 A 
HETATM   17 CL   UNL     1      44.001 -17.352   5.752  1.00  0.00    -0.083 Cl
HETATM   18  C   UNL     1      44.215 -19.726   4.535  1.00  0.00     0.025 A 
HETATM   19  C   UNL     1      44.022 -20.640   3.496  1.00  0.00     0.002 A 
HETATM   20  C   UNL     1      43.402 -20.236   2.315  1.00  0.00     0.001 A 
HETATM   21  C   UNL     1      42.970 -18.916   2.171  1.00  0.00     0.019 A 
ENDBRANCH  12  15
ENDBRANCH   9  11
ENDBRANCH   7   9
ENDBRANCH   4   7
BRANCH   5  22
HETATM   22  C   UNL     1      39.411 -11.714   4.138  1.00  0.00     0.254 C 
HETATM   23  N   UNL     1      38.745 -10.825   4.930  1.00  0.00    -0.366 N 
HETATM   24  H   UNL     1      39.062 -10.563   5.853  1.00  0.00     0.159 HD
HETATM   25  H   UNL     1      37.992 -10.291   4.516  1.00  0.00     0.159 HD
HETATM   26  O   UNL     1      39.090 -11.860   2.964  1.00  0.00    -0.268 OA
ENDBRANCH   5  22
BRANCH   1  27
HETATM   27  S   UNL     1      43.740 -13.183   6.990  1.00  0.00    -0.112 SA
BRANCH  27  28
HETATM   28  C   UNL     1      44.859 -11.932   6.293  1.00  0.00     0.076 C 
HETATM   29  C   UNL     1      45.400 -11.045   7.401  1.00  0.00     0.016 C 
ENDBRANCH  27  28
ENDBRANCH   1  27
BRANCH   6  30
HETATM   30  C   UNL     1      41.748 -10.517   6.156  1.00  0.00     0.253 C 
HETATM   31  N   UNL     1      41.518 -10.290   7.479  1.00  0.00    -0.366 N 
HETATM   32  H   UNL     1      41.042 -10.959   8.078  1.00  0.00     0.159 HD
HETATM   33  H   UNL     1      41.562  -9.332   7.792  1.00  0.00     0.159 HD
HETATM   34  O   UNL     1      42.094  -9.567   5.460  1.00  0.00    -0.268 OA
ENDBRANCH   6  30
TORSDOF 8
ENDMDL
MODEL 6
REMARK VINA RESULT:      -7.3      3.063      7.142
REMARK  8 active torsions:
REMARK  status: ('A' for Active; 'I' for Inactive)
REMARK    1  A    between atoms: C_2  and  S_3 
REMARK    2  A    between atoms: S_3  and  C_4 
REMARK    3  A    between atoms: C_7  and  N_8 
REMARK    4  A    between atoms: N_8  and  C_9 
REMARK    5  A    between atoms: C_9  and  N_10 
REMARK       I    between atoms: N_10  and  C_11 
REMARK    6  A    between atoms: C_11  and  C_12 
REMARK    7  A    between atoms: C_21  and  C_22 
REMARK       I    between atoms: C_22  and  N_23 
REMARK    8  A    between atoms: C_25  and  C_26 
REMARK       I    between atoms: C_26  and  N_27 
ROOT
HETATM    1  C   UNL     1      39.777 -14.065  -0.796  1.00  0.00     0.088 A 
HETATM    2  N   UNL     1      39.478 -14.723   0.355  1.00  0.00    -0.335 N 
HETATM    3  H   UNL     1      39.013 -15.620   0.393  1.00  0.00     0.168 HD
HETATM    4  C   UNL     1      39.849 -13.986   1.441  1.00  0.00     0.125 A 
HETATM    5  C   UNL     1      40.473 -12.832   0.965  1.00  0.00     0.094 A 
HETATM    6  C   UNL     1      40.397 -12.862  -0.492  1.00  0.00     0.084 A 
ENDROOT
BRANCH   4   7
HETATM    7  N   UNL     1      39.610 -14.375   2.752  1.00  0.00    -0.318 N 
HETATM    8  H   UNL     1      38.643 -14.621   2.980  1.00  0.00     0.170 HD
BRANCH   7   9
HETATM    9  C   UNL     1      40.512 -14.571   3.775  1.00  0.00     0.180 C 
HETATM   10  S   UNL     1      40.831 -13.601   5.103  1.00  0.00    -0.040 SA
BRANCH   9  11
HETATM   11  N   UNL     1      41.257 -15.736   3.680  1.00  0.00    -0.299 N 
HETATM   12  C   UNL     1      42.558 -15.896   3.221  1.00  0.00     0.259 C 
HETATM   13  O   UNL     1      43.243 -14.985   2.771  1.00  0.00    -0.267 OA
HETATM   14  H   UNL     1      40.757 -16.555   4.003  1.00  0.00     0.171 HD
BRANCH  12  15
HETATM   15  C   UNL     1      43.071 -17.284   3.276  1.00  0.00     0.054 A 
HETATM   16  C   UNL     1      43.897 -17.714   4.321  1.00  0.00     0.049 A 
HETATM   17 CL   UNL     1      44.325 -16.703   5.653  1.00  0.00    -0.083 Cl
HETATM   18  C   UNL     1      44.365 -19.031   4.333  1.00  0.00     0.025 A 
HETATM   19  C   UNL     1      44.013 -19.915   3.309  1.00  0.00     0.002 A 
HETATM   20  C   UNL     1      43.195 -19.485   2.266  1.00  0.00     0.001 A 
HETATM   21  C   UNL     1      42.725 -18.171   2.244  1.00  0.00     0.019 A 
ENDBRANCH  12  15
ENDBRANCH   9  11
ENDBRANCH   7   9
ENDBRANCH   4   7
BRANCH   5  22
HETATM   22  C   UNL     1      41.047 -11.788   1.806  1.00  0.00     0.254 C 
HETATM   23  N   UNL     1      42.338 -11.982   2.203  1.00  0.00    -0.366 N 
HETATM   24  H   UNL     1      42.919 -12.726   1.844  1.00  0.00     0.159 HD
HETATM   25  H   UNL     1      42.776 -11.263   2.762  1.00  0.00     0.159 HD
HETATM   26  O   UNL     1      40.445 -10.770   2.130  1.00  0.00    -0.268 OA
ENDBRANCH   5  22
BRANCH   1  27
HETATM   27  S   UNL     1      39.342 -14.880  -2.265  1.00  0.00    -0.112 SA
BRANCH  27  28
HETATM   28  C   UNL     1      38.363 -13.587  -3.084  1.00  0.00     0.076 C 
HETATM   29  C   UNL     1      37.277 -13.088  -2.147  1.00  0.00     0.016 C 
ENDBRANCH  27  28
ENDBRANCH   1  27
BRANCH   6  30
HETATM   30  C   UNL     1      40.876 -11.908  -1.499  1.00  0.00     0.253 C 
HETATM   31  N   UNL     1      41.695 -12.374  -2.482  1.00  0.00    -0.366 N 
HETATM   32  H   UNL     1      42.134 -13.291  -2.444  1.00  0.00     0.159 HD
HETATM   33  H   UNL     1      42.098 -11.690  -3.104  1.00  0.00     0.159 HD
HETATM   34  O   UNL     1      40.598 -10.712  -1.500  1.00  0.00    -0.268 OA
ENDBRANCH   6  30
TORSDOF 8
ENDMDL
MODEL 7
REMARK VINA RESULT:      -7.2      3.463      7.661
REMARK  8 active torsions:
REMARK  status: ('A' for Active; 'I' for Inactive)
REMARK    1  A    between atoms: C_2  and  S_3 
REMARK    2  A    between atoms: S_3  and  C_4 
REMARK    3  A    between atoms: C_7  and  N_8 
REMARK    4  A    between atoms: N_8  and  C_9 
REMARK    5  A    between atoms: C_9  and  N_10 
REMARK       I    between atoms: N_10  and  C_11 
REMARK    6  A    between atoms: C_11  and  C_12 
REMARK    7  A    between atoms: C_21  and  C_22 
REMARK       I    between atoms: C_22  and  N_23 
REMARK    8  A    between atoms: C_25  and  C_26 
REMARK       I    between atoms: C_26  and  N_27 
ROOT
HETATM    1  C   UNL     1      40.034 -11.827  -0.829  1.00  0.00     0.088 A 
HETATM    2  N   UNL     1      41.083 -12.683  -0.711  1.00  0.00    -0.335 N 
HETATM    3  H   UNL     1      41.797 -12.808  -1.415  1.00  0.00     0.168 HD
HETATM    4  C   UNL     1      41.009 -13.376   0.462  1.00  0.00     0.125 A 
HETATM    5  C   UNL     1      39.898 -12.897   1.158  1.00  0.00     0.094 A 
HETATM    6  C   UNL     1      39.239 -11.913   0.305  1.00  0.00     0.084 A 
ENDROOT
BRANCH   4   7
HETATM    7  N   UNL     1      41.909 -14.369   0.825  1.00  0.00    -0.318 N 
HETATM    8  H   UNL     1      42.043 -15.126   0.149  1.00  0.00     0.170 HD
BRANCH   7   9
HETATM    9  C   UNL     1      42.724 -14.434   1.934  1.00  0.00     0.180 C 
HETATM   10  S   UNL     1      43.334 -13.189   2.873  1.00  0.00    -0.040 SA
BRANCH   9  11
HETATM   11  N   UNL     1      43.086 -15.717   2.316  1.00  0.00    -0.299 N 
HETATM   12  C   UNL     1      42.296 -16.705   2.889  1.00  0.00     0.259 C 
HETATM   13  O   UNL     1      41.119 -16.550   3.193  1.00  0.00    -0.267 OA
HETATM   14  H   UNL     1      44.059 -15.928   2.130  1.00  0.00     0.171 HD
BRANCH  12  15
HETATM   15  C   UNL     1      42.992 -17.984   3.153  1.00  0.00     0.054 A 
HETATM   16  C   UNL     1      43.740 -18.179   4.321  1.00  0.00     0.049 A 
HETATM   17 CL   UNL     1      43.854 -16.992   5.568  1.00  0.00    -0.083 Cl
HETATM   18  C   UNL     1      44.387 -19.401   4.530  1.00  0.00     0.025 A 
HETATM   19  C   UNL     1      44.291 -20.421   3.580  1.00  0.00     0.002 A 
HETATM   20  C   UNL     1      43.553 -20.225   2.416  1.00  0.00     0.001 A 
HETATM   21  C   UNL     1      42.905 -19.008   2.197  1.00  0.00     0.019 A 
ENDBRANCH  12  15
ENDBRANCH   9  11
ENDBRANCH   7   9
ENDBRANCH   4   7
BRANCH   5  22
HETATM   22  C   UNL     1      39.481 -13.354   2.478  1.00  0.00     0.254 C 
HETATM   23  N   UNL     1      38.985 -14.623   2.542  1.00  0.00    -0.366 N 
HETATM   24  H   UNL     1      39.018 -15.268   1.765  1.00  0.00     0.159 HD
HETATM   25  H   UNL     1      38.715 -14.983   3.448  1.00  0.00     0.159 HD
HETATM   26  O   UNL     1      39.582 -12.676   3.495  1.00  0.00    -0.268 OA
ENDBRANCH   5  22
BRANCH   1  27
HETATM   27  S   UNL     1      39.988 -10.888  -2.286  1.00  0.00    -0.112 SA
BRANCH  27  28
HETATM   28  C   UNL     1      40.488  -9.262  -1.649  1.00  0.00     0.076 C 
HETATM   29  C   UNL     1      41.999  -9.201  -1.512  1.00  0.00     0.016 C 
ENDBRANCH  27  28
ENDBRANCH   1  27
BRANCH   6  30
HETATM   30  C   UNL     1      38.031 -11.108   0.524  1.00  0.00     0.253 C 
HETATM   31  N   UNL     1      37.904 -10.459   1.714  1.00  0.00    -0.366 N 
HETATM   32  H   UNL     1      38.501 -10.652   2.514  1.00  0.00     0.159 HD
HETATM   33  H   UNL     1      37.025  -9.996   1.890  1.00  0.00     0.159 HD
HETATM   34  O   UNL     1      37.121 -10.999  -0.292  1.00  0.00    -0.268 OA
ENDBRANCH   6  30
TORSDOF 8
ENDMDL
MODEL 8
REMARK VINA RESULT:      -7.1      3.683      6.909
REMARK  8 active torsions:
REMARK  status: ('A' for Active; 'I' for Inactive)
REMARK    1  A    between atoms: C_2  and  S_3 
REMARK    2  A    between atoms: S_3  and  C_4 
REMARK    3  A    between atoms: C_7  and  N_8 
REMARK    4  A    between atoms: N_8  and  C_9 
REMARK    5  A    between atoms: C_9  and  N_10 
REMARK       I    between atoms: N_10  and  C_11 
REMARK    6  A    between atoms: C_11  and  C_12 
REMARK    7  A    between atoms: C_21  and  C_22 
REMARK       I    between atoms: C_22  and  N_23 
REMARK    8  A    between atoms: C_25  and  C_26 
REMARK       I    between atoms: C_26  and  N_27 
ROOT
HETATM    1  C   UNL     1      39.691 -11.330   4.031  1.00  0.00     0.088 A 
HETATM    2  N   UNL     1      40.369 -12.094   3.135  1.00  0.00    -0.335 N 
HETATM    3  H   UNL     1      40.436 -11.889   2.148  1.00  0.00     0.168 HD
HETATM    4  C   UNL     1      40.903 -13.191   3.745  1.00  0.00     0.125 A 
HETATM    5  C   UNL     1      40.609 -13.093   5.106  1.00  0.00     0.094 A 
HETATM    6  C   UNL     1      39.789 -11.901   5.292  1.00  0.00     0.084 A 
ENDROOT
BRANCH   4   7
HETATM    7  N   UNL     1      41.595 -14.186   3.068  1.00  0.00    -0.318 N 
HETATM    8  H   UNL     1      42.616 -14.134   3.110  1.00  0.00     0.170 HD
BRANCH   7   9
HETATM    9  C   UNL     1      41.100 -15.298   2.421  1.00  0.00     0.180 C 
HETATM   10  S   UNL     1      39.858 -15.405   1.303  1.00  0.00    -0.040 SA
BRANCH   9  11
HETATM   11  N   UNL     1      41.725 -16.490   2.752  1.00  0.00    -0.299 N 
HETATM   12  C   UNL     1      43.034 -16.880   2.501  1.00  0.00     0.259 C 
HETATM   13  O   UNL     1      43.843 -16.202   1.877  1.00  0.00    -0.267 OA
HETATM   14  H   UNL     1      41.119 -17.133   3.247  1.00  0.00     0.171 HD
BRANCH  12  15
HETATM   15  C   UNL     1      43.394 -18.221   3.014  1.00  0.00     0.054 A 
HETATM   16  C   UNL     1      43.921 -18.390   4.301  1.00  0.00     0.049 A 
HETATM   17 CL   UNL     1      44.126 -17.082   5.408  1.00  0.00    -0.083 Cl
HETATM   18  C   UNL     1      44.253 -19.673   4.746  1.00  0.00     0.025 A 
HETATM   19  C   UNL     1      44.063 -20.780   3.915  1.00  0.00     0.002 A 
HETATM   20  C   UNL     1      43.545 -20.611   2.634  1.00  0.00     0.001 A 
HETATM   21  C   UNL     1      43.212 -19.334   2.178  1.00  0.00     0.019 A 
ENDBRANCH  12  15
ENDBRANCH   9  11
ENDBRANCH   7   9
ENDBRANCH   4   7
BRANCH   5  22
HETATM   22  C   UNL     1      41.028 -14.054   6.121  1.00  0.00     0.254 C 
HETATM   23  N   UNL     1      42.195 -13.769   6.768  1.00  0.00    -0.366 N 
HETATM   24  H   UNL     1      42.684 -12.891   6.662  1.00  0.00     0.159 HD
HETATM   25  H   UNL     1      42.498 -14.398   7.499  1.00  0.00     0.159 HD
HETATM   26  O   UNL     1      40.380 -15.051   6.420  1.00  0.00    -0.268 OA
ENDBRANCH   5  22
BRANCH   1  27
HETATM   27  S   UNL     1      38.941  -9.904   3.389  1.00  0.00    -0.112 SA
BRANCH  27  28
HETATM   28  C   UNL     1      39.829  -8.617   4.315  1.00  0.00     0.076 C 
HETATM   29  C   UNL     1      41.326  -8.846   4.213  1.00  0.00     0.016 C 
ENDBRANCH  27  28
ENDBRANCH   1  27
BRANCH   6  30
HETATM   30  C   UNL     1      39.192 -11.325   6.502  1.00  0.00     0.253 C 
HETATM   31  N   UNL     1      40.029 -10.795   7.437  1.00  0.00    -0.366 N 
HETATM   32  H   UNL     1      41.034 -10.945   7.424  1.00  0.00     0.159 HD
HETATM   33  H   UNL     1      39.612 -10.497   8.306  1.00  0.00     0.159 HD
HETATM   34  O   UNL     1      37.986 -11.308   6.733  1.00  0.00    -0.268 OA
ENDBRANCH   6  30
TORSDOF 8
ENDMDL
MODEL 9
REMARK VINA RESULT:      -7.0      3.910      8.835
REMARK  8 active torsions:
REMARK  status: ('A' for Active; 'I' for Inactive)
REMARK    1  A    between atoms: C_2  and  S_3 
REMARK    2  A    between atoms: S_3  and  C_4 
REMARK    3  A    between atoms: C_7  and  N_8 
REMARK    4  A    between atoms: N_8  and  C_9 
REMARK    5  A    between atoms: C_9  and  N_10 
REMARK       I    between atoms: N_10  and  C_11 
REMARK    6  A    between atoms: C_11  and  C_12 
REMARK    7  A    between atoms: C_21  and  C_22 
REMARK       I    between atoms: C_22  and  N_23 
REMARK    8  A    between atoms: C_25  and  C_26 
REMARK       I    between atoms: C_26  and  N_27 
ROOT
HETATM    1  C   UNL     1      41.041 -10.004  -1.173  1.00  0.00     0.088 A 
HETATM    2  N   UNL     1      41.277 -10.943  -0.219  1.00  0.00    -0.335 N 
HETATM    3  H   UNL     1      41.677 -10.744   0.688  1.00  0.00     0.168 HD
HETATM    4  C   UNL     1      40.944 -12.185  -0.673  1.00  0.00     0.125 A 
HETATM    5  C   UNL     1      40.409 -12.029  -1.953  1.00  0.00     0.094 A 
HETATM    6  C   UNL     1      40.503 -10.614  -2.297  1.00  0.00     0.084 A 
ENDROOT
BRANCH   4   7
HETATM    7  N   UNL     1      41.137 -13.348   0.059  1.00  0.00    -0.318 N 
HETATM    8  H   UNL     1      41.754 -14.049  -0.362  1.00  0.00     0.170 HD
BRANCH   7   9
HETATM    9  C   UNL     1      40.690 -13.659   1.325  1.00  0.00     0.180 C 
HETATM   10  S   UNL     1      39.463 -12.950   2.216  1.00  0.00    -0.040 SA
BRANCH   9  11
HETATM   11  N   UNL     1      41.359 -14.707   1.938  1.00  0.00    -0.299 N 
HETATM   12  C   UNL     1      42.712 -14.815   2.233  1.00  0.00     0.259 C 
HETATM   13  O   UNL     1      43.548 -13.970   1.933  1.00  0.00    -0.267 OA
HETATM   14  H   UNL     1      40.749 -15.472   2.197  1.00  0.00     0.171 HD
BRANCH  12  15
HETATM   15  C   UNL     1      43.101 -16.066   2.921  1.00  0.00     0.054 A 
HETATM   16  C   UNL     1      43.336 -16.095   4.301  1.00  0.00     0.049 A 
HETATM   17 CL   UNL     1      43.127 -14.716   5.316  1.00  0.00    -0.083 Cl
HETATM   18  C   UNL     1      43.708 -17.297   4.912  1.00  0.00     0.025 A 
HETATM   19  C   UNL     1      43.845 -18.462   4.153  1.00  0.00     0.002 A 
HETATM   20  C   UNL     1      43.617 -18.432   2.779  1.00  0.00     0.001 A 
HETATM   21  C   UNL     1      43.248 -17.236   2.159  1.00  0.00     0.019 A 
ENDBRANCH  12  15
ENDBRANCH   9  11
ENDBRANCH   7   9
ENDBRANCH   4   7
BRANCH   5  22
HETATM   22  C   UNL     1      39.898 -13.115  -2.781  1.00  0.00     0.254 C 
HETATM   23  N   UNL     1      38.641 -12.945  -3.283  1.00  0.00    -0.366 N 
HETATM   24  H   UNL     1      38.132 -12.075  -3.209  1.00  0.00     0.159 HD
HETATM   25  H   UNL     1      38.269 -13.665  -3.887  1.00  0.00     0.159 HD
HETATM   26  O   UNL     1      40.543 -14.122  -3.054  1.00  0.00    -0.268 OA
ENDBRANCH   5  22
BRANCH   1  27
HETATM   27  S   UNL     1      41.437  -8.372  -0.738  1.00  0.00    -0.112 SA
BRANCH  27  28
HETATM   28  C   UNL     1      43.061  -8.202  -1.535  1.00  0.00     0.076 C 
HETATM   29  C   UNL     1      43.459  -6.737  -1.592  1.00  0.00     0.016 C 
ENDBRANCH  27  28
ENDBRANCH   1  27
BRANCH   6  30
HETATM   30  C   UNL     1      40.105  -9.892  -3.511  1.00  0.00     0.253 C 
HETATM   31  N   UNL     1      41.091  -9.414  -4.321  1.00  0.00    -0.366 N 
HETATM   32  H   UNL     1      42.065  -9.369  -4.035  1.00  0.00     0.159 HD
HETATM   33  H   UNL     1      40.805  -8.834  -5.095  1.00  0.00     0.159 HD
HETATM   34  O   UNL     1      38.940  -9.677  -3.834  1.00  0.00    -0.268 OA
ENDBRANCH   6  30
TORSDOF 8
ENDMDL
MODEL 10
REMARK VINA RESULT:      -6.8      5.242      8.876
REMARK  8 active torsions:
REMARK  status: ('A' for Active; 'I' for Inactive)
REMARK    1  A    between atoms: C_2  and  S_3 
REMARK    2  A    between atoms: S_3  and  C_4 
REMARK    3  A    between atoms: C_7  and  N_8 
REMARK    4  A    between atoms: N_8  and  C_9 
REMARK    5  A    between atoms: C_9  and  N_10 
REMARK       I    between atoms: N_10  and  C_11 
REMARK    6  A    between atoms: C_11  and  C_12 
REMARK    7  A    between atoms: C_21  and  C_22 
REMARK       I    between atoms: C_22  and  N_23 
REMARK    8  A    between atoms: C_25  and  C_26 
REMARK       I    between atoms: C_26  and  N_27 
ROOT
HETATM    1  C   UNL     1      42.037 -14.088   3.618  1.00  0.00     0.088 A 
HETATM    2  N   UNL     1      42.905 -13.890   4.645  1.00  0.00    -0.335 N 
HETATM    3  H   UNL     1      43.843 -14.265   4.677  1.00  0.00     0.168 HD
HETATM    4  C   UNL     1      42.319 -13.160   5.637  1.00  0.00     0.125 A 
HETATM    5  C   UNL     1      41.038 -12.819   5.199  1.00  0.00     0.094 A 
HETATM    6  C   UNL     1      40.837 -13.451   3.899  1.00  0.00     0.084 A 
ENDROOT
BRANCH   4   7
HETATM    7  N   UNL     1      42.943 -12.857   6.840  1.00  0.00    -0.318 N 
HETATM    8  H   UNL     1      42.782 -13.513   7.609  1.00  0.00     0.170 HD
BRANCH   7   9
HETATM    9  C   UNL     1      43.831 -11.843   7.122  1.00  0.00     0.180 C 
HETATM   10  S   UNL     1      45.183 -11.351   6.264  1.00  0.00    -0.040 SA
BRANCH   9  11
HETATM   11  N   UNL     1      43.560 -11.138   8.285  1.00  0.00    -0.299 N 
HETATM   12  C   UNL     1      44.451 -10.677   9.245  1.00  0.00     0.259 C 
HETATM   13  O   UNL     1      45.659 -10.884   9.215  1.00  0.00    -0.267 OA
HETATM   14  H   UNL     1      42.574 -10.946   8.413  1.00  0.00     0.171 HD
BRANCH  12  15
HETATM   15  C   UNL     1      43.830  -9.930  10.362  1.00  0.00     0.054 A 
HETATM   16  C   UNL     1      43.658  -8.542  10.303  1.00  0.00     0.049 A 
HETATM   17 CL   UNL     1      44.080  -7.604   8.916  1.00  0.00    -0.083 Cl
HETATM   18  C   UNL     1      43.072  -7.872  11.382  1.00  0.00     0.025 A 
HETATM   19  C   UNL     1      42.662  -8.581  12.514  1.00  0.00     0.002 A 
HETATM   20  C   UNL     1      42.838  -9.962  12.575  1.00  0.00     0.001 A 
HETATM   21  C   UNL     1      43.425 -10.639  11.504  1.00  0.00     0.019 A 
ENDBRANCH  12  15
ENDBRANCH   9  11
ENDBRANCH   7   9
ENDBRANCH   4   7
BRANCH   5  22
HETATM   22  C   UNL     1      40.087 -12.010   5.953  1.00  0.00     0.254 C 
HETATM   23  N   UNL     1      40.334 -10.669   5.982  1.00  0.00    -0.366 N 
HETATM   24  H   UNL     1      41.046 -10.227   5.417  1.00  0.00     0.159 HD
HETATM   25  H   UNL     1      39.677 -10.075   6.470  1.00  0.00     0.159 HD
HETATM   26  O   UNL     1      39.099 -12.471   6.514  1.00  0.00    -0.268 OA
ENDBRANCH   5  22
BRANCH   1  27
HETATM   27  S   UNL     1      42.645 -15.021   2.288  1.00  0.00    -0.112 SA
BRANCH  27  28
HETATM   28  C   UNL     1      42.115 -16.687   2.782  1.00  0.00     0.076 C 
HETATM   29  C   UNL     1      43.329 -17.575   2.994  1.00  0.00     0.016 C 
ENDBRANCH  27  28
ENDBRANCH   1  27
BRANCH   6  30
HETATM   30  C   UNL     1      39.682 -13.440   2.994  1.00  0.00     0.253 C 
HETATM   31  N   UNL     1      39.092 -14.631   2.698  1.00  0.00    -0.366 N 
HETATM   32  H   UNL     1      39.519 -15.527   2.917  1.00  0.00     0.159 HD
HETATM   33  H   UNL     1      38.367 -14.619   1.997  1.00  0.00     0.159 HD
HETATM   34  O   UNL     1      39.226 -12.426   2.474  1.00  0.00    -0.268 OA
ENDBRANCH   6  30
TORSDOF 8
ENDMDL
