MODEL 1
REMARK VINA RESULT:      -7.4      0.000      0.000
REMARK  5 active torsions:
REMARK  status: ('A' for Active; 'I' for Inactive)
REMARK    1  A    between atoms: C_2  and  O_3 
REMARK    2  A    between atoms: O_3  and  C_4 
REMARK    3  A    between atoms: C_4  and  C_5 
REMARK    4  A    between atoms: C_6  and  C_7 
REMARK    5  A    between atoms: C_22  and  N_23 
ROOT
HETATM    1  C   UNL     1      40.663 -12.409   3.401  1.00  0.00     0.075 A 
HETATM    2  C   UNL     1      40.655 -13.215   2.234  1.00  0.00     0.008 A 
HETATM    3  C   UNL     1      39.882 -12.780   1.120  1.00  0.00     0.045 A 
HETATM    4  C   UNL     1      39.152 -11.592   1.305  1.00  0.00     0.143 A 
HETATM    5  N   UNL     1      38.268 -11.147   0.332  1.00  0.00    -0.306 N 
HETATM    6  C   UNL     1      37.992 -11.810  -0.822  1.00  0.00     0.268 A 
HETATM    7  O   UNL     1      37.146 -11.404  -1.608  1.00  0.00    -0.266 OA
HETATM    8  C   UNL     1      38.793 -13.025  -1.079  1.00  0.00     0.120 A 
HETATM    9  C   UNL     1      38.551 -13.772  -2.380  1.00  0.00     0.027 C 
HETATM   10  N   UNL     1      38.349 -14.390  -3.461  1.00  0.00    -0.096 N 
HETATM   11  C   UNL     1      39.731 -13.475  -0.211  1.00  0.00     0.046 A 
HETATM   12  N   UNL     1      39.178 -10.816   2.409  1.00  0.00    -0.234 NA
HETATM   13  C   UNL     1      39.930 -11.227   3.451  1.00  0.00     0.050 A 
HETATM   14  C   UNL     1      39.902 -10.352   4.671  1.00  0.00     0.071 C 
HETATM   15  H   UNL     1      37.741 -10.311   0.542  1.00  0.00     0.170 HD
ENDROOT
BRANCH  11  16
HETATM   16  N   UNL     1      40.555 -14.557  -0.486  1.00  0.00    -0.301 NA
HETATM   17  H   UNL     1      40.252 -15.465  -0.136  1.00  0.00     0.124 HD
HETATM   18  H   UNL     1      40.843 -14.638  -1.458  1.00  0.00     0.124 HD
ENDBRANCH  11  16
BRANCH   2  19
HETATM   19  C   UNL     1      41.413 -14.483   2.260  1.00  0.00    -0.024 A 
HETATM   20  C   UNL     1      42.762 -14.520   1.873  1.00  0.00     0.014 A 
HETATM   21  C   UNL     1      43.484 -15.717   1.908  1.00  0.00     0.024 A 
HETATM   22  C   UNL     1      42.858 -16.891   2.318  1.00  0.00     0.034 A 
HETATM   23 CL   UNL     1      43.746 -18.363   2.368  1.00  0.00    -0.084 Cl
HETATM   24  C   UNL     1      41.516 -16.880   2.691  1.00  0.00     0.024 A 
HETATM   25  C   UNL     1      40.796 -15.683   2.661  1.00  0.00     0.014 A 
ENDBRANCH   2  19
BRANCH   1  26
HETATM   26  C   UNL     1      41.374 -12.841   4.615  1.00  0.00     0.296 C 
HETATM   27  O   UNL     1      42.537 -12.569   4.844  1.00  0.00    -0.259 OA
BRANCH  26  28
HETATM   28  O   UNL     1      40.527 -13.600   5.347  1.00  0.00    -0.318 OA
BRANCH  28  29
HETATM   29  C   UNL     1      41.134 -14.479   6.306  1.00  0.00     0.174 C 
HETATM   30  C   UNL     1      40.302 -15.742   6.406  1.00  0.00     0.034 C 
ENDBRANCH  28  29
ENDBRANCH  26  28
ENDBRANCH   1  26
TORSDOF 5
ENDMDL
MODEL 2
REMARK VINA RESULT:      -7.3      3.632      6.238
REMARK  5 active torsions:
REMARK  status: ('A' for Active; 'I' for Inactive)
REMARK    1  A    between atoms: C_2  and  O_3 
REMARK    2  A    between atoms: O_3  and  C_4 
REMARK    3  A    between atoms: C_4  and  C_5 
REMARK    4  A    between atoms: C_6  and  C_7 
REMARK    5  A    between atoms: C_22  and  N_23 
ROOT
HETATM    1  C   UNL     1      42.641 -13.502   5.034  1.00  0.00     0.075 A 
HETATM    2  C   UNL     1      42.314 -14.469   4.049  1.00  0.00     0.008 A 
HETATM    3  C   UNL     1      42.830 -15.787   4.201  1.00  0.00     0.045 A 
HETATM    4  C   UNL     1      43.667 -15.994   5.313  1.00  0.00     0.143 A 
HETATM    5  N   UNL     1      44.324 -17.204   5.486  1.00  0.00    -0.306 N 
HETATM    6  C   UNL     1      44.271 -18.244   4.613  1.00  0.00     0.268 A 
HETATM    7  O   UNL     1      44.934 -19.260   4.784  1.00  0.00    -0.266 OA
HETATM    8  C   UNL     1      43.346 -18.085   3.472  1.00  0.00     0.120 A 
HETATM    9  C   UNL     1      43.219 -19.243   2.496  1.00  0.00     0.027 C 
HETATM   10  N   UNL     1      43.114 -20.205   1.687  1.00  0.00    -0.096 N 
HETATM   11  C   UNL     1      42.612 -16.963   3.282  1.00  0.00     0.046 A 
HETATM   12  N   UNL     1      43.960 -15.078   6.259  1.00  0.00    -0.234 NA
HETATM   13  C   UNL     1      43.449 -13.837   6.116  1.00  0.00     0.050 A 
HETATM   14  C   UNL     1      43.827 -12.841   7.173  1.00  0.00     0.071 C 
HETATM   15  H   UNL     1      44.945 -17.277   6.280  1.00  0.00     0.170 HD
ENDROOT
BRANCH  11  16
HETATM   16  N   UNL     1      41.669 -16.841   2.269  1.00  0.00    -0.301 NA
HETATM   17  H   UNL     1      41.297 -17.709   1.884  1.00  0.00     0.124 HD
HETATM   18  H   UNL     1      40.910 -16.195   2.468  1.00  0.00     0.124 HD
ENDBRANCH  11  16
BRANCH   2  19
HETATM   19  C   UNL     1      41.495 -14.038   2.897  1.00  0.00    -0.024 A 
HETATM   20  C   UNL     1      40.094 -14.118   2.943  1.00  0.00     0.014 A 
HETATM   21  C   UNL     1      39.317 -13.701   1.859  1.00  0.00     0.024 A 
HETATM   22  C   UNL     1      39.935 -13.211   0.712  1.00  0.00     0.034 A 
HETATM   23 CL   UNL     1      38.980 -12.690  -0.620  1.00  0.00    -0.084 Cl
HETATM   24  C   UNL     1      41.324 -13.137   0.638  1.00  0.00     0.024 A 
HETATM   25  C   UNL     1      42.101 -13.550   1.724  1.00  0.00     0.014 A 
ENDBRANCH   2  19
BRANCH   1  26
HETATM   26  C   UNL     1      42.209 -12.102   4.893  1.00  0.00     0.296 C 
HETATM   27  O   UNL     1      42.867 -11.250   4.327  1.00  0.00    -0.259 OA
BRANCH  26  28
HETATM   28  O   UNL     1      41.026 -11.964   5.535  1.00  0.00    -0.318 OA
BRANCH  28  29
HETATM   29  C   UNL     1      40.374 -10.693   5.391  1.00  0.00     0.174 C 
HETATM   30  C   UNL     1      39.336 -10.798   4.291  1.00  0.00     0.034 C 
ENDBRANCH  28  29
ENDBRANCH  26  28
ENDBRANCH   1  26
TORSDOF 5
ENDMDL
MODEL 3
REMARK VINA RESULT:      -7.1      3.890      6.302
REMARK  5 active torsions:
REMARK  status: ('A' for Active; 'I' for Inactive)
REMARK    1  A    between atoms: C_2  and  O_3 
REMARK    2  A    between atoms: O_3  and  C_4 
REMARK    3  A    between atoms: C_4  and  C_5 
REMARK    4  A    between atoms: C_6  and  C_7 
REMARK    5  A    between atoms: C_22  and  N_23 
ROOT
HETATM    1  C   UNL     1      42.936 -15.208   5.516  1.00  0.00     0.075 A 
HETATM    2  C   UNL     1      42.473 -14.076   4.797  1.00  0.00     0.008 A 
HETATM    3  C   UNL     1      42.644 -12.790   5.383  1.00  0.00     0.045 A 
HETATM    4  C   UNL     1      43.228 -12.771   6.663  1.00  0.00     0.143 A 
HETATM    5  N   UNL     1      43.324 -11.585   7.378  1.00  0.00    -0.306 N 
HETATM    6  C   UNL     1      42.840 -10.387   6.956  1.00  0.00     0.268 A 
HETATM    7  O   UNL     1      42.890  -9.390   7.665  1.00  0.00    -0.266 OA
HETATM    8  C   UNL     1      42.285 -10.359   5.587  1.00  0.00     0.120 A 
HETATM    9  C   UNL     1      41.775  -9.030   5.056  1.00  0.00     0.027 C 
HETATM   10  N   UNL     1      41.353  -7.925   4.617  1.00  0.00    -0.096 N 
HETATM   11  C   UNL     1      42.231 -11.461   4.801  1.00  0.00     0.046 A 
HETATM   12  N   UNL     1      43.686 -13.847   7.336  1.00  0.00    -0.234 NA
HETATM   13  C   UNL     1      43.537 -15.060   6.762  1.00  0.00     0.050 A 
HETATM   14  C   UNL     1      44.030 -16.232   7.560  1.00  0.00     0.071 C 
HETATM   15  H   UNL     1      43.713 -11.643   8.309  1.00  0.00     0.170 HD
ENDROOT
BRANCH  11  16
HETATM   16  N   UNL     1      41.801 -11.425   3.481  1.00  0.00    -0.301 NA
HETATM   17  H   UNL     1      41.771 -12.315   2.985  1.00  0.00     0.124 HD
HETATM   18  H   UNL     1      40.938 -10.911   3.327  1.00  0.00     0.124 HD
ENDBRANCH  11  16
BRANCH   2  19
HETATM   19  C   UNL     1      41.798 -14.304   3.503  1.00  0.00    -0.024 A 
HETATM   20  C   UNL     1      40.410 -14.506   3.444  1.00  0.00     0.014 A 
HETATM   21  C   UNL     1      39.768 -14.710   2.219  1.00  0.00     0.024 A 
HETATM   22  C   UNL     1      40.511 -14.727   1.043  1.00  0.00     0.034 A 
HETATM   23 CL   UNL     1      39.722 -14.972  -0.466  1.00  0.00    -0.084 Cl
HETATM   24  C   UNL     1      41.892 -14.545   1.079  1.00  0.00     0.024 A 
HETATM   25  C   UNL     1      42.533 -14.336   2.303  1.00  0.00     0.014 A 
ENDBRANCH   2  19
BRANCH   1  26
HETATM   26  C   UNL     1      42.717 -16.571   5.005  1.00  0.00     0.296 C 
HETATM   27  O   UNL     1      41.741 -17.242   5.281  1.00  0.00    -0.259 OA
BRANCH  26  28
HETATM   28  O   UNL     1      43.790 -16.914   4.256  1.00  0.00    -0.318 OA
BRANCH  28  29
HETATM   29  C   UNL     1      43.718 -18.186   3.594  1.00  0.00     0.174 C 
HETATM   30  C   UNL     1      43.038 -18.000   2.252  1.00  0.00     0.034 C 
ENDBRANCH  28  29
ENDBRANCH  26  28
ENDBRANCH   1  26
TORSDOF 5
ENDMDL
MODEL 4
REMARK VINA RESULT:      -7.1      2.753      5.514
REMARK  5 active torsions:
REMARK  status: ('A' for Active; 'I' for Inactive)
REMARK    1  A    between atoms: C_2  and  O_3 
REMARK    2  A    between atoms: O_3  and  C_4 
REMARK    3  A    between atoms: C_4  and  C_5 
REMARK    4  A    between atoms: C_6  and  C_7 
REMARK    5  A    between atoms: C_22  and  N_23 
ROOT
HETATM    1  C   UNL     1      40.232 -13.828   2.450  1.00  0.00     0.075 A 
HETATM    2  C   UNL     1      40.296 -13.624   3.852  1.00  0.00     0.008 A 
HETATM    3  C   UNL     1      39.628 -12.492   4.400  1.00  0.00     0.045 A 
HETATM    4  C   UNL     1      38.994 -11.645   3.473  1.00  0.00     0.143 A 
HETATM    5  N   UNL     1      38.424 -10.449   3.884  1.00  0.00    -0.306 N 
HETATM    6  C   UNL     1      38.464  -9.971   5.155  1.00  0.00     0.268 A 
HETATM    7  O   UNL     1      38.006  -8.872   5.442  1.00  0.00    -0.266 OA
HETATM    8  C   UNL     1      39.060 -10.868   6.166  1.00  0.00     0.120 A 
HETATM    9  C   UNL     1      39.083 -10.395   7.610  1.00  0.00     0.027 C 
HETATM   10  N   UNL     1      39.100 -10.000   8.808  1.00  0.00    -0.096 N 
HETATM   11  C   UNL     1      39.565 -12.085   5.851  1.00  0.00     0.046 A 
HETATM   12  N   UNL     1      38.917 -11.852   2.142  1.00  0.00    -0.234 NA
HETATM   13  C   UNL     1      39.537 -12.939   1.635  1.00  0.00     0.050 A 
HETATM   14  C   UNL     1      39.455 -13.113   0.146  1.00  0.00     0.071 C 
HETATM   15  H   UNL     1      38.022  -9.863   3.165  1.00  0.00     0.170 HD
ENDROOT
BRANCH  11  16
HETATM   16  N   UNL     1      40.039 -12.975   6.806  1.00  0.00    -0.301 NA
HETATM   17  H   UNL     1      40.395 -12.571   7.672  1.00  0.00     0.124 HD
HETATM   18  H   UNL     1      39.415 -13.750   7.014  1.00  0.00     0.124 HD
ENDBRANCH  11  16
BRANCH   2  19
HETATM   19  C   UNL     1      41.092 -14.574   4.656  1.00  0.00    -0.024 A 
HETATM   20  C   UNL     1      40.557 -15.814   5.039  1.00  0.00     0.014 A 
HETATM   21  C   UNL     1      41.313 -16.719   5.791  1.00  0.00     0.024 A 
HETATM   22  C   UNL     1      42.607 -16.385   6.178  1.00  0.00     0.034 A 
HETATM   23 CL   UNL     1      43.541 -17.499   7.097  1.00  0.00    -0.084 Cl
HETATM   24  C   UNL     1      43.153 -15.153   5.824  1.00  0.00     0.024 A 
HETATM   25  C   UNL     1      42.399 -14.251   5.068  1.00  0.00     0.014 A 
ENDBRANCH   2  19
BRANCH   1  26
HETATM   26  C   UNL     1      40.968 -14.930   1.810  1.00  0.00     0.296 C 
HETATM   27  O   UNL     1      40.442 -15.964   1.443  1.00  0.00    -0.259 OA
BRANCH  26  28
HETATM   28  O   UNL     1      42.277 -14.591   1.770  1.00  0.00    -0.318 OA
BRANCH  28  29
HETATM   29  C   UNL     1      43.182 -15.615   1.328  1.00  0.00     0.174 C 
HETATM   30  C   UNL     1      43.349 -16.632   2.439  1.00  0.00     0.034 C 
ENDBRANCH  28  29
ENDBRANCH  26  28
ENDBRANCH   1  26
TORSDOF 5
ENDMDL
MODEL 5
REMARK VINA RESULT:      -6.9      3.054      4.732
REMARK  5 active torsions:
REMARK  status: ('A' for Active; 'I' for Inactive)
REMARK    1  A    between atoms: C_2  and  O_3 
REMARK    2  A    between atoms: O_3  and  C_4 
REMARK    3  A    between atoms: C_4  and  C_5 
REMARK    4  A    between atoms: C_6  and  C_7 
REMARK    5  A    between atoms: C_22  and  N_23 
ROOT
HETATM    1  C   UNL     1      40.944 -14.176   2.178  1.00  0.00     0.075 A 
HETATM    2  C   UNL     1      41.379 -12.827   2.111  1.00  0.00     0.008 A 
HETATM    3  C   UNL     1      41.179 -12.115   0.894  1.00  0.00     0.045 A 
HETATM    4  C   UNL     1      40.598 -12.846  -0.157  1.00  0.00     0.143 A 
HETATM    5  N   UNL     1      40.475 -12.288  -1.422  1.00  0.00    -0.306 N 
HETATM    6  C   UNL     1      40.930 -11.056  -1.770  1.00  0.00     0.268 A 
HETATM    7  O   UNL     1      40.859 -10.648  -2.923  1.00  0.00    -0.266 OA
HETATM    8  C   UNL     1      41.482 -10.235  -0.672  1.00  0.00     0.120 A 
HETATM    9  C   UNL     1      41.959  -8.832  -1.007  1.00  0.00     0.027 C 
HETATM   10  N   UNL     1      42.354  -7.667  -1.287  1.00  0.00    -0.096 N 
HETATM   11  C   UNL     1      41.560 -10.685   0.603  1.00  0.00     0.046 A 
HETATM   12  N   UNL     1      40.167 -14.123  -0.084  1.00  0.00    -0.234 NA
HETATM   13  C   UNL     1      40.343 -14.783   1.080  1.00  0.00     0.050 A 
HETATM   14  C   UNL     1      39.879 -16.210   1.106  1.00  0.00     0.071 C 
HETATM   15  H   UNL     1      40.090 -12.879  -2.146  1.00  0.00     0.170 HD
ENDROOT
BRANCH  11  16
HETATM   16  N   UNL     1      41.985  -9.888   1.658  1.00  0.00    -0.301 NA
HETATM   17  H   UNL     1      41.600 -10.102   2.578  1.00  0.00     0.124 HD
HETATM   18  H   UNL     1      42.993  -9.767   1.722  1.00  0.00     0.124 HD
ENDBRANCH  11  16
BRANCH   2  19
HETATM   19  C   UNL     1      42.056 -12.256   3.293  1.00  0.00    -0.024 A 
HETATM   20  C   UNL     1      41.312 -11.740   4.366  1.00  0.00     0.014 A 
HETATM   21  C   UNL     1      41.952 -11.208   5.490  1.00  0.00     0.024 A 
HETATM   22  C   UNL     1      43.342 -11.177   5.546  1.00  0.00     0.034 A 
HETATM   23 CL   UNL     1      44.130 -10.531   6.931  1.00  0.00    -0.084 Cl
HETATM   24  C   UNL     1      44.100 -11.669   4.486  1.00  0.00     0.024 A 
HETATM   25  C   UNL     1      43.461 -12.205   3.363  1.00  0.00     0.014 A 
ENDBRANCH   2  19
BRANCH   1  26
HETATM   26  C   UNL     1      41.194 -14.993   3.376  1.00  0.00     0.296 C 
HETATM   27  O   UNL     1      40.399 -15.107   4.289  1.00  0.00    -0.259 OA
BRANCH  26  28
HETATM   28  O   UNL     1      42.439 -15.514   3.274  1.00  0.00    -0.318 OA
BRANCH  28  29
HETATM   29  C   UNL     1      42.564 -16.915   3.563  1.00  0.00     0.174 C 
HETATM   30  C   UNL     1      43.111 -17.619   2.338  1.00  0.00     0.034 C 
ENDBRANCH  28  29
ENDBRANCH  26  28
ENDBRANCH   1  26
TORSDOF 5
ENDMDL
MODEL 6
REMARK VINA RESULT:      -6.6     16.818     19.761
REMARK  5 active torsions:
REMARK  status: ('A' for Active; 'I' for Inactive)
REMARK    1  A    between atoms: C_2  and  O_3 
REMARK    2  A    between atoms: O_3  and  C_4 
REMARK    3  A    between atoms: C_4  and  C_5 
REMARK    4  A    between atoms: C_6  and  C_7 
REMARK    5  A    between atoms: C_22  and  N_23 
ROOT
HETATM    1  C   UNL     1      47.986 -29.272   0.208  1.00  0.00     0.075 A 
HETATM    2  C   UNL     1      49.001 -30.165   0.638  1.00  0.00     0.008 A 
HETATM    3  C   UNL     1      50.021 -30.523  -0.289  1.00  0.00     0.045 A 
HETATM    4  C   UNL     1      49.896 -29.980  -1.580  1.00  0.00     0.143 A 
HETATM    5  N   UNL     1      50.761 -30.363  -2.595  1.00  0.00    -0.306 N 
HETATM    6  C   UNL     1      51.739 -31.298  -2.464  1.00  0.00     0.268 A 
HETATM    7  O   UNL     1      52.424 -31.648  -3.417  1.00  0.00    -0.266 OA
HETATM    8  C   UNL     1      51.943 -31.835  -1.103  1.00  0.00     0.120 A 
HETATM    9  C   UNL     1      53.058 -32.848  -0.900  1.00  0.00     0.027 C 
HETATM   10  N   UNL     1      53.985 -33.688  -0.734  1.00  0.00    -0.096 N 
HETATM   11  C   UNL     1      51.188 -31.447  -0.047  1.00  0.00     0.046 A 
HETATM   12  N   UNL     1      48.941 -29.115  -1.981  1.00  0.00    -0.234 NA
HETATM   13  C   UNL     1      47.990 -28.766  -1.089  1.00  0.00     0.050 A 
HETATM   14  C   UNL     1      46.928 -27.829  -1.587  1.00  0.00     0.071 C 
HETATM   15  H   UNL     1      50.593 -29.972  -3.511  1.00  0.00     0.170 HD
ENDROOT
BRANCH  11  16
HETATM   16  N   UNL     1      51.434 -31.873   1.252  1.00  0.00    -0.301 NA
HETATM   17  H   UNL     1      51.558 -32.875   1.390  1.00  0.00     0.124 HD
HETATM   18  H   UNL     1      52.167 -31.362   1.737  1.00  0.00     0.124 HD
ENDBRANCH  11  16
BRANCH   2  19
HETATM   19  C   UNL     1      48.914 -30.707   2.010  1.00  0.00    -0.024 A 
HETATM   20  C   UNL     1      48.266 -31.928   2.258  1.00  0.00     0.014 A 
HETATM   21  C   UNL     1      48.192 -32.448   3.554  1.00  0.00     0.024 A 
HETATM   22  C   UNL     1      48.753 -31.744   4.615  1.00  0.00     0.034 A 
HETATM   23 CL   UNL     1      48.668 -32.385   6.209  1.00  0.00    -0.084 Cl
HETATM   24  C   UNL     1      49.386 -30.523   4.395  1.00  0.00     0.024 A 
HETATM   25  C   UNL     1      49.464 -30.005   3.098  1.00  0.00     0.014 A 
ENDBRANCH   2  19
BRANCH   1  26
HETATM   26  C   UNL     1      46.859 -28.926   1.088  1.00  0.00     0.296 C 
HETATM   27  O   UNL     1      46.876 -27.990   1.865  1.00  0.00    -0.259 OA
BRANCH  26  28
HETATM   28  O   UNL     1      45.884 -29.845   0.899  1.00  0.00    -0.318 OA
BRANCH  28  29
HETATM   29  C   UNL     1      44.546 -29.418   1.199  1.00  0.00     0.174 C 
HETATM   30  C   UNL     1      43.775 -29.276  -0.098  1.00  0.00     0.034 C 
ENDBRANCH  28  29
ENDBRANCH  26  28
ENDBRANCH   1  26
TORSDOF 5
ENDMDL
MODEL 7
REMARK VINA RESULT:      -6.5     16.972     19.216
REMARK  5 active torsions:
REMARK  status: ('A' for Active; 'I' for Inactive)
REMARK    1  A    between atoms: C_2  and  O_3 
REMARK    2  A    between atoms: O_3  and  C_4 
REMARK    3  A    between atoms: C_4  and  C_5 
REMARK    4  A    between atoms: C_6  and  C_7 
REMARK    5  A    between atoms: C_22  and  N_23 
ROOT
HETATM    1  C   UNL     1      47.887 -29.687   1.410  1.00  0.00     0.075 A 
HETATM    2  C   UNL     1      48.002 -30.159   0.078  1.00  0.00     0.008 A 
HETATM    3  C   UNL     1      49.203 -30.825  -0.300  1.00  0.00     0.045 A 
HETATM    4  C   UNL     1      50.195 -30.913   0.693  1.00  0.00     0.143 A 
HETATM    5  N   UNL     1      51.449 -31.426   0.395  1.00  0.00    -0.306 N 
HETATM    6  C   UNL     1      51.845 -31.830  -0.841  1.00  0.00     0.268 A 
HETATM    7  O   UNL     1      52.991 -32.206  -1.056  1.00  0.00    -0.266 OA
HETATM    8  C   UNL     1      50.805 -31.817  -1.890  1.00  0.00     0.120 A 
HETATM    9  C   UNL     1      51.191 -32.305  -3.277  1.00  0.00     0.027 C 
HETATM   10  N   UNL     1      51.513 -32.711  -4.427  1.00  0.00    -0.096 N 
HETATM   11  C   UNL     1      49.538 -31.403  -1.652  1.00  0.00     0.046 A 
HETATM   12  N   UNL     1      50.075 -30.481   1.966  1.00  0.00    -0.234 NA
HETATM   13  C   UNL     1      48.925 -29.870   2.319  1.00  0.00     0.050 A 
HETATM   14  C   UNL     1      48.848 -29.375   3.735  1.00  0.00     0.071 C 
HETATM   15  H   UNL     1      52.133 -31.423   1.140  1.00  0.00     0.170 HD
ENDROOT
BRANCH  11  16
HETATM   16  N   UNL     1      48.529 -31.478  -2.605  1.00  0.00    -0.301 NA
HETATM   17  H   UNL     1      48.814 -31.397  -3.580  1.00  0.00     0.124 HD
HETATM   18  H   UNL     1      47.893 -32.263  -2.492  1.00  0.00     0.124 HD
ENDBRANCH  11  16
BRANCH   2  19
HETATM   19  C   UNL     1      46.887 -29.890  -0.853  1.00  0.00    -0.024 A 
HETATM   20  C   UNL     1      46.850 -28.704  -1.605  1.00  0.00     0.014 A 
HETATM   21  C   UNL     1      45.802 -28.453  -2.494  1.00  0.00     0.024 A 
HETATM   22  C   UNL     1      44.772 -29.380  -2.630  1.00  0.00     0.034 A 
HETATM   23 CL   UNL     1      43.485 -29.076  -3.729  1.00  0.00    -0.084 Cl
HETATM   24  C   UNL     1      44.780 -30.556  -1.883  1.00  0.00     0.024 A 
HETATM   25  C   UNL     1      45.831 -30.809  -0.997  1.00  0.00     0.014 A 
ENDBRANCH   2  19
BRANCH   1  26
HETATM   26  C   UNL     1      46.709 -28.920   1.843  1.00  0.00     0.296 C 
HETATM   27  O   UNL     1      46.653 -27.705   1.818  1.00  0.00    -0.259 OA
BRANCH  26  28
HETATM   28  O   UNL     1      45.782 -29.796   2.294  1.00  0.00    -0.318 OA
BRANCH  28  29
HETATM   29  C   UNL     1      44.505 -29.241   2.646  1.00  0.00     0.174 C 
HETATM   30  C   UNL     1      43.507 -29.580   1.557  1.00  0.00     0.034 C 
ENDBRANCH  28  29
ENDBRANCH  26  28
ENDBRANCH   1  26
TORSDOF 5
ENDMDL
MODEL 8
REMARK VINA RESULT:      -6.5     16.328     18.090
REMARK  5 active torsions:
REMARK  status: ('A' for Active; 'I' for Inactive)
REMARK    1  A    between atoms: C_2  and  O_3 
REMARK    2  A    between atoms: O_3  and  C_4 
REMARK    3  A    between atoms: C_4  and  C_5 
REMARK    4  A    between atoms: C_6  and  C_7 
REMARK    5  A    between atoms: C_22  and  N_23 
ROOT
HETATM    1  C   UNL     1      46.161 -29.108   0.098  1.00  0.00     0.075 A 
HETATM    2  C   UNL     1      46.055 -29.805   1.329  1.00  0.00     0.008 A 
HETATM    3  C   UNL     1      44.768 -30.256   1.740  1.00  0.00     0.045 A 
HETATM    4  C   UNL     1      43.700 -29.922   0.888  1.00  0.00     0.143 A 
HETATM    5  N   UNL     1      42.390 -30.200   1.255  1.00  0.00    -0.306 N 
HETATM    6  C   UNL     1      42.021 -30.751   2.441  1.00  0.00     0.268 A 
HETATM    7  O   UNL     1      40.842 -30.904   2.737  1.00  0.00    -0.266 OA
HETATM    8  C   UNL     1      43.123 -31.178   3.327  1.00  0.00     0.120 A 
HETATM    9  C   UNL     1      42.756 -31.843   4.644  1.00  0.00     0.027 C 
HETATM   10  N   UNL     1      42.450 -32.395   5.736  1.00  0.00    -0.096 N 
HETATM   11  C   UNL     1      44.426 -31.011   3.000  1.00  0.00     0.046 A 
HETATM   12  N   UNL     1      43.806 -29.276  -0.292  1.00  0.00    -0.234 NA
HETATM   13  C   UNL     1      45.033 -28.871  -0.682  1.00  0.00     0.050 A 
HETATM   14  C   UNL     1      45.101 -28.128  -1.984  1.00  0.00     0.071 C 
HETATM   15  H   UNL     1      41.664 -29.896   0.621  1.00  0.00     0.170 HD
ENDROOT
BRANCH  11  16
HETATM   16  N   UNL     1      45.468 -31.496   3.780  1.00  0.00    -0.301 NA
HETATM   17  H   UNL     1      45.696 -32.484   3.677  1.00  0.00     0.124 HD
HETATM   18  H   UNL     1      46.317 -30.938   3.753  1.00  0.00     0.124 HD
ENDBRANCH  11  16
BRANCH   2  19
HETATM   19  C   UNL     1      47.280 -29.981   2.136  1.00  0.00    -0.024 A 
HETATM   20  C   UNL     1      47.705 -28.978   3.023  1.00  0.00     0.014 A 
HETATM   21  C   UNL     1      48.858 -29.147   3.795  1.00  0.00     0.024 A 
HETATM   22  C   UNL     1      49.605 -30.316   3.677  1.00  0.00     0.034 A 
HETATM   23 CL   UNL     1      51.020 -30.528   4.631  1.00  0.00    -0.084 Cl
HETATM   24  C   UNL     1      49.212 -31.316   2.791  1.00  0.00     0.024 A 
HETATM   25  C   UNL     1      48.056 -31.149   2.022  1.00  0.00     0.014 A 
ENDBRANCH   2  19
BRANCH   1  26
HETATM   26  C   UNL     1      47.446 -28.544  -0.344  1.00  0.00     0.296 C 
HETATM   27  O   UNL     1      47.801 -27.408  -0.095  1.00  0.00    -0.259 OA
BRANCH  26  28
HETATM   28  O   UNL     1      48.082 -29.482  -1.084  1.00  0.00    -0.318 OA
BRANCH  28  29
HETATM   29  C   UNL     1      49.489 -29.632  -0.840  1.00  0.00     0.174 C 
HETATM   30  C   UNL     1      50.121 -30.318  -2.034  1.00  0.00     0.034 C 
ENDBRANCH  28  29
ENDBRANCH  26  28
ENDBRANCH   1  26
TORSDOF 5
ENDMDL
MODEL 9
REMARK VINA RESULT:      -6.3      2.958      4.778
REMARK  5 active torsions:
REMARK  status: ('A' for Active; 'I' for Inactive)
REMARK    1  A    between atoms: C_2  and  O_3 
REMARK    2  A    between atoms: O_3  and  C_4 
REMARK    3  A    between atoms: C_4  and  C_5 
REMARK    4  A    between atoms: C_6  and  C_7 
REMARK    5  A    between atoms: C_22  and  N_23 
ROOT
HETATM    1  C   UNL     1      40.453 -13.912   4.072  1.00  0.00     0.075 A 
HETATM    2  C   UNL     1      40.094 -12.890   3.156  1.00  0.00     0.008 A 
HETATM    3  C   UNL     1      39.783 -13.264   1.817  1.00  0.00     0.045 A 
HETATM    4  C   UNL     1      39.908 -14.633   1.518  1.00  0.00     0.143 A 
HETATM    5  N   UNL     1      39.754 -15.087   0.216  1.00  0.00    -0.306 N 
HETATM    6  C   UNL     1      39.528 -14.288  -0.860  1.00  0.00     0.268 A 
HETATM    7  O   UNL     1      39.475 -14.742  -1.996  1.00  0.00    -0.266 OA
HETATM    8  C   UNL     1      39.322 -12.855  -0.570  1.00  0.00     0.120 A 
HETATM    9  C   UNL     1      39.019 -11.931  -1.738  1.00  0.00     0.027 C 
HETATM   10  N   UNL     1      38.768 -11.166  -2.709  1.00  0.00    -0.096 N 
HETATM   11  C   UNL     1      39.379 -12.352   0.687  1.00  0.00     0.046 A 
HETATM   12  N   UNL     1      40.230 -15.605   2.396  1.00  0.00    -0.234 NA
HETATM   13  C   UNL     1      40.503 -15.242   3.667  1.00  0.00     0.050 A 
HETATM   14  C   UNL     1      40.890 -16.351   4.602  1.00  0.00     0.071 C 
HETATM   15  H   UNL     1      39.899 -16.075   0.056  1.00  0.00     0.170 HD
ENDROOT
BRANCH  11  16
HETATM   16  N   UNL     1      39.091 -11.025   0.982  1.00  0.00    -0.301 NA
HETATM   17  H   UNL     1      38.728 -10.832   1.915  1.00  0.00     0.124 HD
HETATM   18  H   UNL     1      39.830 -10.367   0.753  1.00  0.00     0.124 HD
ENDBRANCH  11  16
BRANCH   2  19
HETATM   19  C   UNL     1      40.108 -11.492   3.633  1.00  0.00    -0.024 A 
HETATM   20  C   UNL     1      38.976 -10.932   4.247  1.00  0.00     0.014 A 
HETATM   21  C   UNL     1      38.992  -9.613   4.709  1.00  0.00     0.024 A 
HETATM   22  C   UNL     1      40.137  -8.837   4.550  1.00  0.00     0.034 A 
HETATM   23 CL   UNL     1      40.160  -7.216   5.124  1.00  0.00    -0.084 Cl
HETATM   24  C   UNL     1      41.266  -9.367   3.929  1.00  0.00     0.024 A 
HETATM   25  C   UNL     1      41.251 -10.688   3.471  1.00  0.00     0.014 A 
ENDBRANCH   2  19
BRANCH   1  26
HETATM   26  C   UNL     1      40.865 -13.585   5.446  1.00  0.00     0.296 C 
HETATM   27  O   UNL     1      40.092 -13.528   6.384  1.00  0.00    -0.259 OA
BRANCH  26  28
HETATM   28  O   UNL     1      42.193 -13.327   5.435  1.00  0.00    -0.318 OA
BRANCH  28  29
HETATM   29  C   UNL     1      42.902 -13.604   6.652  1.00  0.00     0.174 C 
HETATM   30  C   UNL     1      43.735 -14.856   6.457  1.00  0.00     0.034 C 
ENDBRANCH  28  29
ENDBRANCH  26  28
ENDBRANCH   1  26
TORSDOF 5
ENDMDL
MODEL 10
REMARK VINA RESULT:      -6.1      3.778      7.031
REMARK  5 active torsions:
REMARK  status: ('A' for Active; 'I' for Inactive)
REMARK    1  A    between atoms: C_2  and  O_3 
REMARK    2  A    between atoms: O_3  and  C_4 
REMARK    3  A    between atoms: C_4  and  C_5 
REMARK    4  A    between atoms: C_6  and  C_7 
REMARK    5  A    between atoms: C_22  and  N_23 
ROOT
HETATM    1  C   UNL     1      40.539 -13.235   1.903  1.00  0.00     0.075 A 
HETATM    2  C   UNL     1      41.095 -13.389   3.198  1.00  0.00     0.008 A 
HETATM    3  C   UNL     1      41.921 -14.522   3.448  1.00  0.00     0.045 A 
HETATM    4  C   UNL     1      42.072 -15.419   2.375  1.00  0.00     0.143 A 
HETATM    5  N   UNL     1      42.749 -16.618   2.547  1.00  0.00    -0.306 N 
HETATM    6  C   UNL     1      43.266 -17.051   3.727  1.00  0.00     0.268 A 
HETATM    7  O   UNL     1      43.789 -18.154   3.833  1.00  0.00    -0.266 OA
HETATM    8  C   UNL     1      43.186 -16.101   4.856  1.00  0.00     0.120 A 
HETATM    9  C   UNL     1      43.794 -16.524   6.183  1.00  0.00     0.027 C 
HETATM   10  N   UNL     1      44.300 -16.877   7.284  1.00  0.00    -0.096 N 
HETATM   11  C   UNL     1      42.610 -14.881   4.740  1.00  0.00     0.046 A 
HETATM   12  N   UNL     1      41.559 -15.260   1.137  1.00  0.00    -0.234 NA
HETATM   13  C   UNL     1      40.794 -14.173   0.906  1.00  0.00     0.050 A 
HETATM   14  C   UNL     1      40.216 -14.053  -0.474  1.00  0.00     0.071 C 
HETATM   15  H   UNL     1      42.787 -17.240   1.751  1.00  0.00     0.170 HD
ENDROOT
BRANCH  11  16
HETATM   16  N   UNL     1      42.616 -13.944   5.766  1.00  0.00    -0.301 NA
HETATM   17  H   UNL     1      43.125 -13.078   5.592  1.00  0.00     0.124 HD
HETATM   18  H   UNL     1      41.702 -13.737   6.161  1.00  0.00     0.124 HD
ENDBRANCH  11  16
BRANCH   2  19
HETATM   19  C   UNL     1      40.746 -12.388   4.227  1.00  0.00    -0.024 A 
HETATM   20  C   UNL     1      39.634 -12.576   5.064  1.00  0.00     0.014 A 
HETATM   21  C   UNL     1      39.309 -11.635   6.045  1.00  0.00     0.024 A 
HETATM   22  C   UNL     1      40.086 -10.490   6.190  1.00  0.00     0.034 A 
HETATM   23 CL   UNL     1      39.691  -9.334   7.401  1.00  0.00    -0.084 Cl
HETATM   24  C   UNL     1      41.184 -10.274   5.361  1.00  0.00     0.024 A 
HETATM   25  C   UNL     1      41.512 -11.217   4.382  1.00  0.00     0.014 A 
ENDBRANCH   2  19
BRANCH   1  26
HETATM   26  C   UNL     1      39.612 -12.133   1.602  1.00  0.00     0.296 C 
HETATM   27  O   UNL     1      38.407 -12.213   1.742  1.00  0.00    -0.259 OA
BRANCH  26  28
HETATM   28  O   UNL     1      40.337 -11.097   1.119  1.00  0.00    -0.318 OA
BRANCH  28  29
HETATM   29  C   UNL     1      39.809 -10.446  -0.046  1.00  0.00     0.174 C 
HETATM   30  C   UNL     1      40.881 -10.417  -1.117  1.00  0.00     0.034 C 
ENDBRANCH  28  29
ENDBRANCH  26  28
ENDBRANCH   1  26
TORSDOF 5
ENDMDL
