MODEL 1
REMARK VINA RESULT:      -8.3      0.000      0.000
REMARK  8 active torsions:
REMARK  status: ('A' for Active; 'I' for Inactive)
REMARK    1  A    between atoms: C_2  and  C_3 
REMARK    2  A    between atoms: C_3  and  C_4 
REMARK       I    between atoms: C_4  and  N_5 
REMARK    3  A    between atoms: N_8  and  C_9 
REMARK    4  A    between atoms: C_13  and  N_14 
REMARK    5  A    between atoms: N_14  and  C_15 
REMARK    6  A    between atoms: C_15  and  N_16 
REMARK       I    between atoms: N_16  and  C_17 
REMARK    7  A    between atoms: C_17  and  C_18 
REMARK    8  A    between atoms: C_19  and  O_20 
ROOT
HETATM    1  C   UNL     1      42.411 -11.622   5.635  1.00  0.00     0.052 A 
HETATM    2  C   UNL     1      41.251 -12.324   5.243  1.00  0.00     0.062 A 
HETATM    3 CL   UNL     1      39.850 -12.521   6.248  1.00  0.00    -0.082 Cl
HETATM    4  C   UNL     1      41.172 -12.969   3.996  1.00  0.00     0.055 A 
HETATM    5  C   UNL     1      42.257 -12.984   3.122  1.00  0.00     0.036 A 
HETATM    6  C   UNL     1      43.442 -12.373   3.518  1.00  0.00     0.032 A 
HETATM    7  C   UNL     1      43.506 -11.697   4.745  1.00  0.00     0.033 A 
ENDROOT
BRANCH   5   8
HETATM    8  N   UNL     1      42.051 -13.526   1.833  1.00  0.00    -0.333 N 
HETATM    9  H   UNL     1      42.698 -13.191   1.128  1.00  0.00     0.168 HD
BRANCH   8  10
HETATM   10  C   UNL     1      41.405 -14.673   1.514  1.00  0.00     0.179 C 
HETATM   11  S   UNL     1      40.189 -14.657   0.368  1.00  0.00    -0.040 SA
BRANCH  10  12
HETATM   12  N   UNL     1      41.673 -15.840   2.166  1.00  0.00    -0.299 N 
HETATM   13  C   UNL     1      42.963 -16.312   2.407  1.00  0.00     0.260 C 
HETATM   14  O   UNL     1      43.933 -16.175   1.675  1.00  0.00    -0.267 OA
HETATM   15  H   UNL     1      41.012 -16.003   2.914  1.00  0.00     0.171 HD
BRANCH  13  16
HETATM   16  C   UNL     1      43.101 -17.073   3.679  1.00  0.00     0.066 A 
HETATM   17  C   UNL     1      43.652 -18.365   3.738  1.00  0.00     0.089 A 
HETATM   18  C   UNL     1      43.835 -18.986   4.991  1.00  0.00    -0.028 A 
HETATM   19  C   UNL     1      44.467 -20.348   5.091  1.00  0.00     0.051 C 
HETATM   20  C   UNL     1      43.441 -18.322   6.163  1.00  0.00     0.009 A 
HETATM   21  C   UNL     1      42.892 -17.044   6.103  1.00  0.00     0.002 A 
HETATM   22  C   UNL     1      42.733 -16.417   4.869  1.00  0.00     0.020 A 
BRANCH  17  23
HETATM   23  O   UNL     1      44.111 -19.076   2.659  1.00  0.00    -0.354 OA
HETATM   24  C   UNL     1      43.148 -19.917   2.029  1.00  0.00     0.210 C 
ENDBRANCH  17  23
ENDBRANCH  13  16
ENDBRANCH  10  12
ENDBRANCH   8  10
ENDBRANCH   5   8
BRANCH   1  25
HETATM   25  N   UNL     1      42.563 -10.794   6.753  1.00  0.00    -0.376 N 
HETATM   26  C   UNL     1      42.016  -9.424   6.658  1.00  0.00     0.143 C 
HETATM   27  C   UNL     1      41.700  -8.881   8.068  1.00  0.00     0.145 C 
HETATM   28  N   UNL     1      42.808  -9.034   9.022  1.00  0.00    -0.349 N 
HETATM   29  C   UNL     1      42.819  -8.194  10.133  1.00  0.00     0.219 C 
HETATM   30  C   UNL     1      43.455 -10.354   9.014  1.00  0.00     0.145 C 
HETATM   31  O   UNL     1      42.028  -7.258  10.253  1.00  0.00    -0.273 OA
HETATM   32  C   UNL     1      43.765 -10.868   7.597  1.00  0.00     0.143 C 
BRANCH  29  33
HETATM   33  C   UNL     1      43.883  -8.475  11.187  1.00  0.00     0.103 C 
BRANCH  33  34
HETATM   34  C   UNL     1      43.325  -8.481  12.608  1.00  0.00     0.005 C 
HETATM   35  C   UNL     1      42.523  -9.743  12.883  1.00  0.00     0.005 C 
ENDBRANCH  33  34
ENDBRANCH  29  33
ENDBRANCH   1  25
TORSDOF 8
ENDMDL
MODEL 2
REMARK VINA RESULT:      -8.1      1.669      2.526
REMARK  8 active torsions:
REMARK  status: ('A' for Active; 'I' for Inactive)
REMARK    1  A    between atoms: C_2  and  C_3 
REMARK    2  A    between atoms: C_3  and  C_4 
REMARK       I    between atoms: C_4  and  N_5 
REMARK    3  A    between atoms: N_8  and  C_9 
REMARK    4  A    between atoms: C_13  and  N_14 
REMARK    5  A    between atoms: N_14  and  C_15 
REMARK    6  A    between atoms: C_15  and  N_16 
REMARK       I    between atoms: N_16  and  C_17 
REMARK    7  A    between atoms: C_17  and  C_18 
REMARK    8  A    between atoms: C_19  and  O_20 
ROOT
HETATM    1  C   UNL     1      41.779 -11.859   5.433  1.00  0.00     0.052 A 
HETATM    2  C   UNL     1      42.366 -12.250   4.210  1.00  0.00     0.062 A 
HETATM    3 CL   UNL     1      43.916 -11.700   3.658  1.00  0.00    -0.082 Cl
HETATM    4  C   UNL     1      41.692 -13.098   3.313  1.00  0.00     0.055 A 
HETATM    5  C   UNL     1      40.397 -13.540   3.574  1.00  0.00     0.036 A 
HETATM    6  C   UNL     1      39.761 -13.102   4.731  1.00  0.00     0.032 A 
HETATM    7  C   UNL     1      40.449 -12.288   5.643  1.00  0.00     0.033 A 
ENDROOT
BRANCH   5   8
HETATM    8  N   UNL     1      39.846 -14.502   2.697  1.00  0.00    -0.333 N 
HETATM    9  H   UNL     1      38.832 -14.515   2.671  1.00  0.00     0.168 HD
BRANCH   8  10
HETATM   10  C   UNL     1      40.449 -15.098   1.641  1.00  0.00     0.179 C 
HETATM   11  S   UNL     1      40.203 -14.513   0.096  1.00  0.00    -0.040 SA
BRANCH  10  12
HETATM   12  N   UNL     1      41.202 -16.224   1.802  1.00  0.00    -0.299 N 
HETATM   13  C   UNL     1      42.583 -16.210   1.988  1.00  0.00     0.260 C 
HETATM   14  O   UNL     1      43.373 -15.419   1.493  1.00  0.00    -0.267 OA
HETATM   15  H   UNL     1      40.706 -16.924   2.337  1.00  0.00     0.171 HD
BRANCH  13  16
HETATM   16  C   UNL     1      43.088 -17.309   2.857  1.00  0.00     0.066 A 
HETATM   17  C   UNL     1      43.170 -17.197   4.256  1.00  0.00     0.089 A 
HETATM   18  C   UNL     1      43.571 -18.313   5.020  1.00  0.00    -0.028 A 
HETATM   19  C   UNL     1      43.621 -18.239   6.522  1.00  0.00     0.051 C 
HETATM   20  C   UNL     1      43.910 -19.512   4.377  1.00  0.00     0.009 A 
HETATM   21  C   UNL     1      43.833 -19.621   2.991  1.00  0.00     0.002 A 
HETATM   22  C   UNL     1      43.413 -18.529   2.235  1.00  0.00     0.020 A 
BRANCH  17  23
HETATM   23  O   UNL     1      42.815 -16.088   4.980  1.00  0.00    -0.354 OA
HETATM   24  C   UNL     1      41.494 -16.104   5.512  1.00  0.00     0.210 C 
ENDBRANCH  17  23
ENDBRANCH  13  16
ENDBRANCH  10  12
ENDBRANCH   8  10
ENDBRANCH   5   8
BRANCH   1  25
HETATM   25  N   UNL     1      42.395 -11.177   6.488  1.00  0.00    -0.376 N 
HETATM   26  C   UNL     1      43.528 -11.851   7.158  1.00  0.00     0.143 C 
HETATM   27  C   UNL     1      44.453 -10.805   7.816  1.00  0.00     0.145 C 
HETATM   28  N   UNL     1      43.739  -9.827   8.652  1.00  0.00    -0.349 N 
HETATM   29  C   UNL     1      44.473  -9.162   9.631  1.00  0.00     0.219 C 
HETATM   30  C   UNL     1      42.524  -9.264   8.046  1.00  0.00     0.145 C 
HETATM   31  O   UNL     1      45.634  -9.471   9.901  1.00  0.00    -0.273 OA
HETATM   32  C   UNL     1      41.618 -10.329   7.404  1.00  0.00     0.143 C 
BRANCH  29  33
HETATM   33  C   UNL     1      43.755  -8.044  10.377  1.00  0.00     0.103 C 
BRANCH  33  34
HETATM   34  C   UNL     1      43.536  -8.361  11.854  1.00  0.00     0.005 C 
HETATM   35  C   UNL     1      42.399  -9.354  12.045  1.00  0.00     0.005 C 
ENDBRANCH  33  34
ENDBRANCH  29  33
ENDBRANCH   1  25
TORSDOF 8
ENDMDL
MODEL 3
REMARK VINA RESULT:      -8.1      4.798      8.431
REMARK  8 active torsions:
REMARK  status: ('A' for Active; 'I' for Inactive)
REMARK    1  A    between atoms: C_2  and  C_3 
REMARK    2  A    between atoms: C_3  and  C_4 
REMARK       I    between atoms: C_4  and  N_5 
REMARK    3  A    between atoms: N_8  and  C_9 
REMARK    4  A    between atoms: C_13  and  N_14 
REMARK    5  A    between atoms: N_14  and  C_15 
REMARK    6  A    between atoms: C_15  and  N_16 
REMARK       I    between atoms: N_16  and  C_17 
REMARK    7  A    between atoms: C_17  and  C_18 
REMARK    8  A    between atoms: C_19  and  O_20 
ROOT
HETATM    1  C   UNL     1      41.501 -13.081   3.772  1.00  0.00     0.052 A 
HETATM    2  C   UNL     1      42.146 -11.868   3.443  1.00  0.00     0.062 A 
HETATM    3 CL   UNL     1      43.864 -11.637   3.498  1.00  0.00    -0.082 Cl
HETATM    4  C   UNL     1      41.412 -10.723   3.087  1.00  0.00     0.055 A 
HETATM    5  C   UNL     1      40.019 -10.727   3.098  1.00  0.00     0.036 A 
HETATM    6  C   UNL     1      39.357 -11.883   3.499  1.00  0.00     0.032 A 
HETATM    7  C   UNL     1      40.090 -13.036   3.816  1.00  0.00     0.033 A 
ENDROOT
BRANCH   5   8
HETATM    8  N   UNL     1      39.358  -9.586   2.589  1.00  0.00    -0.333 N 
HETATM    9  H   UNL     1      39.341  -8.793   3.221  1.00  0.00     0.168 HD
BRANCH   8  10
HETATM   10  C   UNL     1      39.111  -9.285   1.292  1.00  0.00     0.179 C 
HETATM   11  S   UNL     1      38.984  -7.689   0.813  1.00  0.00    -0.040 SA
BRANCH  10  12
HETATM   12  N   UNL     1      38.887 -10.264   0.370  1.00  0.00    -0.299 N 
HETATM   13  C   UNL     1      39.894 -10.854  -0.392  1.00  0.00     0.260 C 
HETATM   14  O   UNL     1      40.899 -10.301  -0.816  1.00  0.00    -0.267 OA
HETATM   15  H   UNL     1      38.157 -10.895   0.674  1.00  0.00     0.171 HD
BRANCH  13  16
HETATM   16  C   UNL     1      39.648 -12.287  -0.715  1.00  0.00     0.066 A 
HETATM   17  C   UNL     1      38.991 -12.702  -1.886  1.00  0.00     0.089 A 
HETATM   18  C   UNL     1      38.877 -14.080  -2.167  1.00  0.00    -0.028 A 
HETATM   19  C   UNL     1      38.222 -14.555  -3.436  1.00  0.00     0.051 C 
HETATM   20  C   UNL     1      39.396 -15.021  -1.265  1.00  0.00     0.009 A 
HETATM   21  C   UNL     1      40.044 -14.608  -0.104  1.00  0.00     0.002 A 
HETATM   22  C   UNL     1      40.180 -13.248   0.165  1.00  0.00     0.020 A 
BRANCH  17  23
HETATM   23  O   UNL     1      38.493 -11.865  -2.851  1.00  0.00    -0.354 OA
HETATM   24  C   UNL     1      37.170 -11.390  -2.623  1.00  0.00     0.210 C 
ENDBRANCH  17  23
ENDBRANCH  13  16
ENDBRANCH  10  12
ENDBRANCH   8  10
ENDBRANCH   5   8
BRANCH   1  25
HETATM   25  N   UNL     1      42.099 -14.331   3.967  1.00  0.00    -0.376 N 
HETATM   26  C   UNL     1      42.490 -14.684   5.348  1.00  0.00     0.143 C 
HETATM   27  C   UNL     1      42.537 -16.218   5.510  1.00  0.00     0.145 C 
HETATM   28  N   UNL     1      43.309 -16.900   4.460  1.00  0.00    -0.349 N 
HETATM   29  C   UNL     1      43.801 -18.171   4.749  1.00  0.00     0.219 C 
HETATM   30  C   UNL     1      43.029 -16.445   3.091  1.00  0.00     0.145 C 
HETATM   31  O   UNL     1      43.732 -18.658   5.877  1.00  0.00    -0.273 OA
HETATM   32  C   UNL     1      42.996 -14.913   2.957  1.00  0.00     0.143 C 
BRANCH  29  33
HETATM   33  C   UNL     1      44.460 -18.922   3.598  1.00  0.00     0.103 C 
BRANCH  33  34
HETATM   34  C   UNL     1      43.768 -20.245   3.279  1.00  0.00     0.005 C 
HETATM   35  C   UNL     1      43.344 -20.310   1.819  1.00  0.00     0.005 C 
ENDBRANCH  33  34
ENDBRANCH  29  33
ENDBRANCH   1  25
TORSDOF 8
ENDMDL
MODEL 4
REMARK VINA RESULT:      -7.9      2.060      2.957
REMARK  8 active torsions:
REMARK  status: ('A' for Active; 'I' for Inactive)
REMARK    1  A    between atoms: C_2  and  C_3 
REMARK    2  A    between atoms: C_3  and  C_4 
REMARK       I    between atoms: C_4  and  N_5 
REMARK    3  A    between atoms: N_8  and  C_9 
REMARK    4  A    between atoms: C_13  and  N_14 
REMARK    5  A    between atoms: N_14  and  C_15 
REMARK    6  A    between atoms: C_15  and  N_16 
REMARK       I    between atoms: N_16  and  C_17 
REMARK    7  A    between atoms: C_17  and  C_18 
REMARK    8  A    between atoms: C_19  and  O_20 
ROOT
HETATM    1  C   UNL     1      43.295 -10.125   7.148  1.00  0.00     0.052 A 
HETATM    2  C   UNL     1      44.372 -10.874   6.626  1.00  0.00     0.062 A 
HETATM    3 CL   UNL     1      45.910 -11.041   7.412  1.00  0.00    -0.082 Cl
HETATM    4  C   UNL     1      44.281 -11.511   5.375  1.00  0.00     0.055 A 
HETATM    5  C   UNL     1      43.144 -11.381   4.581  1.00  0.00     0.036 A 
HETATM    6  C   UNL     1      42.101 -10.580   5.033  1.00  0.00     0.032 A 
HETATM    7  C   UNL     1      42.177  -9.977   6.297  1.00  0.00     0.033 A 
ENDROOT
BRANCH   5   8
HETATM    8  N   UNL     1      43.073 -12.167   3.409  1.00  0.00    -0.333 N 
HETATM    9  H   UNL     1      43.804 -11.980   2.731  1.00  0.00     0.168 HD
BRANCH   8  10
HETATM   10  C   UNL     1      42.439 -13.354   3.248  1.00  0.00     0.179 C 
HETATM   11  S   UNL     1      40.849 -13.390   2.734  1.00  0.00    -0.040 SA
BRANCH  10  12
HETATM   12  N   UNL     1      43.049 -14.530   3.571  1.00  0.00    -0.299 N 
HETATM   13  C   UNL     1      42.403 -15.584   4.215  1.00  0.00     0.260 C 
HETATM   14  O   UNL     1      41.524 -15.487   5.060  1.00  0.00    -0.267 OA
HETATM   15  H   UNL     1      43.714 -14.806   2.861  1.00  0.00     0.171 HD
BRANCH  13  16
HETATM   16  C   UNL     1      42.897 -16.931   3.816  1.00  0.00     0.066 A 
HETATM   17  C   UNL     1      43.446 -17.843   4.732  1.00  0.00     0.089 A 
HETATM   18  C   UNL     1      43.807 -19.135   4.295  1.00  0.00    -0.028 A 
HETATM   19  C   UNL     1      44.353 -20.151   5.262  1.00  0.00     0.051 C 
HETATM   20  C   UNL     1      43.640 -19.487   2.947  1.00  0.00     0.009 A 
HETATM   21  C   UNL     1      43.099 -18.581   2.039  1.00  0.00     0.002 A 
HETATM   22  C   UNL     1      42.718 -17.313   2.472  1.00  0.00     0.020 A 
BRANCH  17  23
HETATM   23  O   UNL     1      43.606 -17.614   6.074  1.00  0.00    -0.354 OA
HETATM   24  C   UNL     1      44.605 -16.658   6.415  1.00  0.00     0.210 C 
ENDBRANCH  17  23
ENDBRANCH  13  16
ENDBRANCH  10  12
ENDBRANCH   8  10
ENDBRANCH   5   8
BRANCH   1  25
HETATM   25  N   UNL     1      43.180  -9.594   8.438  1.00  0.00    -0.376 N 
HETATM   26  C   UNL     1      43.402  -8.141   8.593  1.00  0.00     0.143 C 
HETATM   27  C   UNL     1      42.667  -7.623   9.848  1.00  0.00     0.145 C 
HETATM   28  N   UNL     1      42.933  -8.417  11.058  1.00  0.00    -0.349 N 
HETATM   29  C   UNL     1      42.721  -7.801  12.289  1.00  0.00     0.219 C 
HETATM   30  C   UNL     1      42.860  -9.873  10.872  1.00  0.00     0.145 C 
HETATM   31  O   UNL     1      42.468  -6.600  12.384  1.00  0.00    -0.273 OA
HETATM   32  C   UNL     1      43.606 -10.362   9.618  1.00  0.00     0.143 C 
BRANCH  29  33
HETATM   33  C   UNL     1      42.849  -8.686  13.523  1.00  0.00     0.103 C 
BRANCH  33  34
HETATM   34  C   UNL     1      41.518  -8.906  14.236  1.00  0.00     0.005 C 
HETATM   35  C   UNL     1      41.409  -8.044  15.485  1.00  0.00     0.005 C 
ENDBRANCH  33  34
ENDBRANCH  29  33
ENDBRANCH   1  25
TORSDOF 8
ENDMDL
MODEL 5
REMARK VINA RESULT:      -7.9      2.721      9.873
REMARK  8 active torsions:
REMARK  status: ('A' for Active; 'I' for Inactive)
REMARK    1  A    between atoms: C_2  and  C_3 
REMARK    2  A    between atoms: C_3  and  C_4 
REMARK       I    between atoms: C_4  and  N_5 
REMARK    3  A    between atoms: N_8  and  C_9 
REMARK    4  A    between atoms: C_13  and  N_14 
REMARK    5  A    between atoms: N_14  and  C_15 
REMARK    6  A    between atoms: C_15  and  N_16 
REMARK       I    between atoms: N_16  and  C_17 
REMARK    7  A    between atoms: C_17  and  C_18 
REMARK    8  A    between atoms: C_19  and  O_20 
ROOT
HETATM    1  C   UNL     1      42.449 -12.655   5.940  1.00  0.00     0.052 A 
HETATM    2  C   UNL     1      43.356 -11.649   6.340  1.00  0.00     0.062 A 
HETATM    3 CL   UNL     1      45.059 -11.904   6.549  1.00  0.00    -0.082 Cl
HETATM    4  C   UNL     1      42.916 -10.350   6.650  1.00  0.00     0.055 A 
HETATM    5  C   UNL     1      41.562 -10.022   6.626  1.00  0.00     0.036 A 
HETATM    6  C   UNL     1      40.639 -11.016   6.318  1.00  0.00     0.032 A 
HETATM    7  C   UNL     1      41.082 -12.301   5.972  1.00  0.00     0.033 A 
ENDROOT
BRANCH   5   8
HETATM    8  N   UNL     1      41.215  -8.664   6.807  1.00  0.00    -0.333 N 
HETATM    9  H   UNL     1      41.664  -8.025   6.160  1.00  0.00     0.168 HD
BRANCH   8  10
HETATM   10  C   UNL     1      40.117  -8.168   7.426  1.00  0.00     0.179 C 
HETATM   11  S   UNL     1      38.903  -7.451   6.529  1.00  0.00    -0.040 SA
BRANCH  10  12
HETATM   12  N   UNL     1      40.010  -8.172   8.785  1.00  0.00    -0.299 N 
HETATM   13  C   UNL     1      39.621  -9.286   9.527  1.00  0.00     0.260 C 
HETATM   14  O   UNL     1      38.813 -10.138   9.184  1.00  0.00    -0.267 OA
HETATM   15  H   UNL     1      40.732  -7.606   9.212  1.00  0.00     0.171 HD
BRANCH  13  16
HETATM   16  C   UNL     1      40.261  -9.374  10.869  1.00  0.00     0.066 A 
HETATM   17  C   UNL     1      41.454  -8.704  11.189  1.00  0.00     0.089 A 
HETATM   18  C   UNL     1      41.950  -8.761  12.508  1.00  0.00    -0.028 A 
HETATM   19  C   UNL     1      43.198  -8.014  12.895  1.00  0.00     0.051 C 
HETATM   20  C   UNL     1      41.265  -9.507  13.479  1.00  0.00     0.009 A 
HETATM   21  C   UNL     1      40.085 -10.173  13.159  1.00  0.00     0.002 A 
HETATM   22  C   UNL     1      39.578 -10.099  11.864  1.00  0.00     0.020 A 
BRANCH  17  23
HETATM   23  O   UNL     1      42.169  -7.912  10.328  1.00  0.00    -0.354 OA
HETATM   24  C   UNL     1      43.334  -8.515   9.771  1.00  0.00     0.210 C 
ENDBRANCH  17  23
ENDBRANCH  13  16
ENDBRANCH  10  12
ENDBRANCH   8  10
ENDBRANCH   5   8
BRANCH   1  25
HETATM   25  N   UNL     1      42.760 -13.923   5.436  1.00  0.00    -0.376 N 
HETATM   26  C   UNL     1      43.513 -14.836   6.322  1.00  0.00     0.143 C 
HETATM   27  C   UNL     1      43.246 -16.303   5.922  1.00  0.00     0.145 C 
HETATM   28  N   UNL     1      43.416 -16.563   4.484  1.00  0.00    -0.349 N 
HETATM   29  C   UNL     1      43.659 -17.879   4.095  1.00  0.00     0.219 C 
HETATM   30  C   UNL     1      42.793 -15.572   3.596  1.00  0.00     0.145 C 
HETATM   31  O   UNL     1      43.876 -18.773   4.913  1.00  0.00    -0.273 OA
HETATM   32  C   UNL     1      43.081 -14.119   4.014  1.00  0.00     0.143 C 
BRANCH  29  33
HETATM   33  C   UNL     1      43.675 -18.152   2.596  1.00  0.00     0.103 C 
BRANCH  33  34
HETATM   34  C   UNL     1      42.813 -19.349   2.202  1.00  0.00     0.005 C 
HETATM   35  C   UNL     1      43.670 -20.542   1.805  1.00  0.00     0.005 C 
ENDBRANCH  33  34
ENDBRANCH  29  33
ENDBRANCH   1  25
TORSDOF 8
ENDMDL
MODEL 6
REMARK VINA RESULT:      -7.9      2.091      3.017
REMARK  8 active torsions:
REMARK  status: ('A' for Active; 'I' for Inactive)
REMARK    1  A    between atoms: C_2  and  C_3 
REMARK    2  A    between atoms: C_3  and  C_4 
REMARK       I    between atoms: C_4  and  N_5 
REMARK    3  A    between atoms: N_8  and  C_9 
REMARK    4  A    between atoms: C_13  and  N_14 
REMARK    5  A    between atoms: N_14  and  C_15 
REMARK    6  A    between atoms: C_15  and  N_16 
REMARK       I    between atoms: N_16  and  C_17 
REMARK    7  A    between atoms: C_17  and  C_18 
REMARK    8  A    between atoms: C_19  and  O_20 
ROOT
HETATM    1  C   UNL     1      42.931  -9.930   7.315  1.00  0.00     0.052 A 
HETATM    2  C   UNL     1      43.980 -10.731   6.814  1.00  0.00     0.062 A 
HETATM    3 CL   UNL     1      45.368 -11.203   7.742  1.00  0.00    -0.082 Cl
HETATM    4  C   UNL     1      43.993 -11.169   5.478  1.00  0.00     0.055 A 
HETATM    5  C   UNL     1      42.997 -10.784   4.584  1.00  0.00     0.036 A 
HETATM    6  C   UNL     1      41.995  -9.926   5.027  1.00  0.00     0.032 A 
HETATM    7  C   UNL     1      41.963  -9.522   6.370  1.00  0.00     0.033 A 
ENDROOT
BRANCH   5   8
HETATM    8  N   UNL     1      43.001 -11.382   3.303  1.00  0.00    -0.333 N 
HETATM    9  H   UNL     1      43.613 -10.932   2.630  1.00  0.00     0.168 HD
BRANCH   8  10
HETATM   10  C   UNL     1      42.635 -12.645   2.981  1.00  0.00     0.179 C 
HETATM   11  S   UNL     1      41.357 -12.905   1.935  1.00  0.00    -0.040 SA
BRANCH  10  12
HETATM   12  N   UNL     1      43.240 -13.724   3.554  1.00  0.00    -0.299 N 
HETATM   13  C   UNL     1      42.646 -14.511   4.540  1.00  0.00     0.260 C 
HETATM   14  O   UNL     1      41.887 -14.122   5.416  1.00  0.00    -0.267 OA
HETATM   15  H   UNL     1      43.798 -14.233   2.881  1.00  0.00     0.171 HD
BRANCH  13  16
HETATM   16  C   UNL     1      43.038 -15.946   4.487  1.00  0.00     0.066 A 
HETATM   17  C   UNL     1      42.851 -16.745   3.346  1.00  0.00     0.089 A 
HETATM   18  C   UNL     1      43.332 -18.071   3.340  1.00  0.00    -0.028 A 
HETATM   19  C   UNL     1      43.191 -18.936   2.116  1.00  0.00     0.051 C 
HETATM   20  C   UNL     1      43.965 -18.589   4.480  1.00  0.00     0.009 A 
HETATM   21  C   UNL     1      44.146 -17.797   5.611  1.00  0.00     0.002 A 
HETATM   22  C   UNL     1      43.695 -16.479   5.612  1.00  0.00     0.020 A 
BRANCH  17  23
HETATM   23  O   UNL     1      42.290 -16.321   2.169  1.00  0.00    -0.354 OA
HETATM   24  C   UNL     1      40.867 -16.367   2.121  1.00  0.00     0.210 C 
ENDBRANCH  17  23
ENDBRANCH  13  16
ENDBRANCH  10  12
ENDBRANCH   8  10
ENDBRANCH   5   8
BRANCH   1  25
HETATM   25  N   UNL     1      42.698  -9.576   8.648  1.00  0.00    -0.376 N 
HETATM   26  C   UNL     1      41.302  -9.281   9.035  1.00  0.00     0.143 C 
HETATM   27  C   UNL     1      41.109  -9.519  10.547  1.00  0.00     0.145 C 
HETATM   28  N   UNL     1      42.128  -8.866  11.383  1.00  0.00    -0.349 N 
HETATM   29  C   UNL     1      41.804  -8.621  12.716  1.00  0.00     0.219 C 
HETATM   30  C   UNL     1      43.512  -9.034  10.917  1.00  0.00     0.145 C 
HETATM   31  O   UNL     1      40.668  -8.797  13.155  1.00  0.00    -0.273 OA
HETATM   32  C   UNL     1      43.677  -8.783   9.408  1.00  0.00     0.143 C 
BRANCH  29  33
HETATM   33  C   UNL     1      42.926  -8.091  13.601  1.00  0.00     0.103 C 
BRANCH  33  34
HETATM   34  C   UNL     1      42.593  -6.743  14.237  1.00  0.00     0.005 C 
HETATM   35  C   UNL     1      42.330  -5.681  13.180  1.00  0.00     0.005 C 
ENDBRANCH  33  34
ENDBRANCH  29  33
ENDBRANCH   1  25
TORSDOF 8
ENDMDL
MODEL 7
REMARK VINA RESULT:      -7.9      5.577      7.956
REMARK  8 active torsions:
REMARK  status: ('A' for Active; 'I' for Inactive)
REMARK    1  A    between atoms: C_2  and  C_3 
REMARK    2  A    between atoms: C_3  and  C_4 
REMARK       I    between atoms: C_4  and  N_5 
REMARK    3  A    between atoms: N_8  and  C_9 
REMARK    4  A    between atoms: C_13  and  N_14 
REMARK    5  A    between atoms: N_14  and  C_15 
REMARK    6  A    between atoms: C_15  and  N_16 
REMARK       I    between atoms: N_16  and  C_17 
REMARK    7  A    between atoms: C_17  and  C_18 
REMARK    8  A    between atoms: C_19  and  O_20 
ROOT
HETATM    1  C   UNL     1      39.986 -11.905   0.296  1.00  0.00     0.052 A 
HETATM    2  C   UNL     1      40.013 -13.306   0.128  1.00  0.00     0.062 A 
HETATM    3 CL   UNL     1      40.070 -14.098  -1.414  1.00  0.00    -0.082 Cl
HETATM    4  C   UNL     1      39.943 -14.177   1.231  1.00  0.00     0.055 A 
HETATM    5  C   UNL     1      39.791 -13.688   2.526  1.00  0.00     0.036 A 
HETATM    6  C   UNL     1      39.677 -12.315   2.714  1.00  0.00     0.032 A 
HETATM    7  C   UNL     1      39.785 -11.446   1.618  1.00  0.00     0.033 A 
ENDROOT
BRANCH   5   8
HETATM    8  N   UNL     1      39.876 -14.616   3.589  1.00  0.00    -0.333 N 
HETATM    9  H   UNL     1      38.993 -15.044   3.845  1.00  0.00     0.168 HD
BRANCH   8  10
HETATM   10  C   UNL     1      40.975 -15.281   4.019  1.00  0.00     0.179 C 
HETATM   11  S   UNL     1      41.964 -14.599   5.181  1.00  0.00    -0.040 SA
BRANCH  10  12
HETATM   12  N   UNL     1      41.342 -16.472   3.466  1.00  0.00    -0.299 N 
HETATM   13  C   UNL     1      42.578 -16.696   2.862  1.00  0.00     0.260 C 
HETATM   14  O   UNL     1      43.230 -15.883   2.223  1.00  0.00    -0.267 OA
HETATM   15  H   UNL     1      40.979 -17.251   3.999  1.00  0.00     0.171 HD
BRANCH  13  16
HETATM   16  C   UNL     1      43.086 -18.087   3.020  1.00  0.00     0.066 A 
HETATM   17  C   UNL     1      43.511 -18.607   4.254  1.00  0.00     0.089 A 
HETATM   18  C   UNL     1      43.892 -19.963   4.343  1.00  0.00    -0.028 A 
HETATM   19  C   UNL     1      44.306 -20.562   5.660  1.00  0.00     0.051 C 
HETATM   20  C   UNL     1      43.869 -20.770   3.196  1.00  0.00     0.009 A 
HETATM   21  C   UNL     1      43.451 -20.252   1.973  1.00  0.00     0.002 A 
HETATM   22  C   UNL     1      43.051 -18.921   1.886  1.00  0.00     0.020 A 
BRANCH  17  23
HETATM   23  O   UNL     1      43.525 -17.917   5.439  1.00  0.00    -0.354 OA
HETATM   24  C   UNL     1      44.649 -17.065   5.635  1.00  0.00     0.210 C 
ENDBRANCH  17  23
ENDBRANCH  13  16
ENDBRANCH  10  12
ENDBRANCH   8  10
ENDBRANCH   5   8
BRANCH   1  25
HETATM   25  N   UNL     1      40.225 -10.930  -0.679  1.00  0.00    -0.376 N 
HETATM   26  C   UNL     1      39.101 -10.583  -1.575  1.00  0.00     0.143 C 
HETATM   27  C   UNL     1      39.288  -9.155  -2.131  1.00  0.00     0.145 C 
HETATM   28  N   UNL     1      40.624  -8.912  -2.697  1.00  0.00    -0.349 N 
HETATM   29  C   UNL     1      40.751  -7.870  -3.614  1.00  0.00     0.219 C 
HETATM   30  C   UNL     1      41.743  -9.392  -1.875  1.00  0.00     0.145 C 
HETATM   31  O   UNL     1      39.775  -7.266  -4.057  1.00  0.00    -0.273 OA
HETATM   32  C   UNL     1      41.533 -10.819  -1.341  1.00  0.00     0.143 C 
BRANCH  29  33
HETATM   33  C   UNL     1      42.167  -7.534  -4.068  1.00  0.00     0.103 C 
BRANCH  33  34
HETATM   34  C   UNL     1      42.507  -6.055  -3.905  1.00  0.00     0.005 C 
HETATM   35  C   UNL     1      42.880  -5.727  -2.468  1.00  0.00     0.005 C 
ENDBRANCH  33  34
ENDBRANCH  29  33
ENDBRANCH   1  25
TORSDOF 8
ENDMDL
MODEL 8
REMARK VINA RESULT:      -7.7      2.841     10.760
REMARK  8 active torsions:
REMARK  status: ('A' for Active; 'I' for Inactive)
REMARK    1  A    between atoms: C_2  and  C_3 
REMARK    2  A    between atoms: C_3  and  C_4 
REMARK       I    between atoms: C_4  and  N_5 
REMARK    3  A    between atoms: N_8  and  C_9 
REMARK    4  A    between atoms: C_13  and  N_14 
REMARK    5  A    between atoms: N_14  and  C_15 
REMARK    6  A    between atoms: C_15  and  N_16 
REMARK       I    between atoms: N_16  and  C_17 
REMARK    7  A    between atoms: C_17  and  C_18 
REMARK    8  A    between atoms: C_19  and  O_20 
ROOT
HETATM    1  C   UNL     1      42.487 -12.657   6.014  1.00  0.00     0.052 A 
HETATM    2  C   UNL     1      43.394 -11.686   6.493  1.00  0.00     0.062 A 
HETATM    3 CL   UNL     1      45.070 -11.998   6.813  1.00  0.00    -0.082 Cl
HETATM    4  C   UNL     1      42.973 -10.379   6.796  1.00  0.00     0.055 A 
HETATM    5  C   UNL     1      41.635 -10.009   6.686  1.00  0.00     0.036 A 
HETATM    6  C   UNL     1      40.705 -10.968   6.297  1.00  0.00     0.032 A 
HETATM    7  C   UNL     1      41.132 -12.261   5.959  1.00  0.00     0.033 A 
ENDROOT
BRANCH   5   8
HETATM    8  N   UNL     1      41.317  -8.644   6.868  1.00  0.00    -0.333 N 
HETATM    9  H   UNL     1      41.236  -8.112   6.008  1.00  0.00     0.168 HD
BRANCH   8  10
HETATM   10  C   UNL     1      40.738  -8.068   7.948  1.00  0.00     0.179 C 
HETATM   11  S   UNL     1      39.422  -7.057   7.753  1.00  0.00    -0.040 SA
BRANCH  10  12
HETATM   12  N   UNL     1      41.254  -8.235   9.199  1.00  0.00    -0.299 N 
HETATM   13  C   UNL     1      42.516  -7.781   9.581  1.00  0.00     0.260 C 
HETATM   14  O   UNL     1      43.513  -7.733   8.875  1.00  0.00    -0.267 OA
HETATM   15  H   UNL     1      40.537  -8.149   9.907  1.00  0.00     0.171 HD
BRANCH  13  16
HETATM   16  C   UNL     1      42.601  -7.357  11.006  1.00  0.00     0.066 A 
HETATM   17  C   UNL     1      41.954  -6.211  11.500  1.00  0.00     0.089 A 
HETATM   18  C   UNL     1      42.005  -5.925  12.880  1.00  0.00    -0.028 A 
HETATM   19  C   UNL     1      41.282  -4.732  13.447  1.00  0.00     0.051 C 
HETATM   20  C   UNL     1      42.722  -6.769  13.741  1.00  0.00     0.009 A 
HETATM   21  C   UNL     1      43.366  -7.902  13.250  1.00  0.00     0.002 A 
HETATM   22  C   UNL     1      43.296  -8.202  11.892  1.00  0.00     0.020 A 
BRANCH  17  23
HETATM   23  O   UNL     1      41.191  -5.352  10.752  1.00  0.00    -0.354 OA
HETATM   24  C   UNL     1      41.921  -4.416   9.964  1.00  0.00     0.210 C 
ENDBRANCH  17  23
ENDBRANCH  13  16
ENDBRANCH  10  12
ENDBRANCH   8  10
ENDBRANCH   5   8
BRANCH   1  25
HETATM   25  N   UNL     1      42.794 -13.926   5.509  1.00  0.00    -0.376 N 
HETATM   26  C   UNL     1      43.481 -14.867   6.419  1.00  0.00     0.143 C 
HETATM   27  C   UNL     1      43.200 -16.322   5.987  1.00  0.00     0.145 C 
HETATM   28  N   UNL     1      43.436 -16.569   4.556  1.00  0.00    -0.349 N 
HETATM   29  C   UNL     1      43.668 -17.885   4.162  1.00  0.00     0.219 C 
HETATM   30  C   UNL     1      42.880 -15.552   3.652  1.00  0.00     0.145 C 
HETATM   31  O   UNL     1      43.823 -18.794   4.978  1.00  0.00    -0.273 OA
HETATM   32  C   UNL     1      43.181 -14.112   4.103  1.00  0.00     0.143 C 
BRANCH  29  33
HETATM   33  C   UNL     1      43.752 -18.140   2.662  1.00  0.00     0.103 C 
BRANCH  33  34
HETATM   34  C   UNL     1      42.859 -19.292   2.206  1.00  0.00     0.005 C 
HETATM   35  C   UNL     1      43.684 -20.502   1.793  1.00  0.00     0.005 C 
ENDBRANCH  33  34
ENDBRANCH  29  33
ENDBRANCH   1  25
TORSDOF 8
ENDMDL
MODEL 9
REMARK VINA RESULT:      -7.7      2.676      9.933
REMARK  8 active torsions:
REMARK  status: ('A' for Active; 'I' for Inactive)
REMARK    1  A    between atoms: C_2  and  C_3 
REMARK    2  A    between atoms: C_3  and  C_4 
REMARK       I    between atoms: C_4  and  N_5 
REMARK    3  A    between atoms: N_8  and  C_9 
REMARK    4  A    between atoms: C_13  and  N_14 
REMARK    5  A    between atoms: N_14  and  C_15 
REMARK    6  A    between atoms: C_15  and  N_16 
REMARK       I    between atoms: N_16  and  C_17 
REMARK    7  A    between atoms: C_17  and  C_18 
REMARK    8  A    between atoms: C_19  and  O_20 
ROOT
HETATM    1  C   UNL     1      41.946 -13.555   5.916  1.00  0.00     0.052 A 
HETATM    2  C   UNL     1      42.678 -12.380   6.194  1.00  0.00     0.062 A 
HETATM    3 CL   UNL     1      44.391 -12.344   6.464  1.00  0.00    -0.082 Cl
HETATM    4  C   UNL     1      42.039 -11.133   6.321  1.00  0.00     0.055 A 
HETATM    5  C   UNL     1      40.654 -11.020   6.230  1.00  0.00     0.036 A 
HETATM    6  C   UNL     1      39.900 -12.174   6.041  1.00  0.00     0.032 A 
HETATM    7  C   UNL     1      40.541 -13.410   5.876  1.00  0.00     0.033 A 
ENDROOT
BRANCH   5   8
HETATM    8  N   UNL     1      40.103  -9.719   6.223  1.00  0.00    -0.333 N 
HETATM    9  H   UNL     1      39.107  -9.682   6.413  1.00  0.00     0.168 HD
BRANCH   8  10
HETATM   10  C   UNL     1      40.758  -8.545   6.391  1.00  0.00     0.179 C 
HETATM   11  S   UNL     1      41.027  -7.542   5.082  1.00  0.00    -0.040 SA
BRANCH  10  12
HETATM   12  N   UNL     1      41.276  -8.192   7.602  1.00  0.00    -0.299 N 
HETATM   13  C   UNL     1      40.913  -8.798   8.804  1.00  0.00     0.260 C 
HETATM   14  O   UNL     1      39.806  -9.230   9.092  1.00  0.00    -0.267 OA
HETATM   15  H   UNL     1      42.254  -7.946   7.526  1.00  0.00     0.171 HD
BRANCH  13  16
HETATM   16  C   UNL     1      42.015  -8.869   9.803  1.00  0.00     0.066 A 
HETATM   17  C   UNL     1      41.963  -8.208  11.042  1.00  0.00     0.089 A 
HETATM   18  C   UNL     1      43.005  -8.398  11.975  1.00  0.00    -0.028 A 
HETATM   19  C   UNL     1      42.955  -7.744  13.329  1.00  0.00     0.051 C 
HETATM   20  C   UNL     1      44.094  -9.219  11.646  1.00  0.00     0.009 A 
HETATM   21  C   UNL     1      44.146  -9.869  10.416  1.00  0.00     0.002 A 
HETATM   22  C   UNL     1      43.107  -9.705   9.503  1.00  0.00     0.020 A 
BRANCH  17  23
HETATM   23  O   UNL     1      40.924  -7.426  11.476  1.00  0.00    -0.354 OA
HETATM   24  C   UNL     1      40.922  -6.089  10.986  1.00  0.00     0.210 C 
ENDBRANCH  17  23
ENDBRANCH  13  16
ENDBRANCH  10  12
ENDBRANCH   8  10
ENDBRANCH   5   8
BRANCH   1  25
HETATM   25  N   UNL     1      42.460 -14.815   5.590  1.00  0.00    -0.376 N 
HETATM   26  C   UNL     1      42.976 -15.642   6.701  1.00  0.00     0.143 C 
HETATM   27  C   UNL     1      42.918 -17.137   6.321  1.00  0.00     0.145 C 
HETATM   28  N   UNL     1      43.509 -17.435   5.007  1.00  0.00    -0.349 N 
HETATM   29  C   UNL     1      43.927 -18.744   4.775  1.00  0.00     0.219 C 
HETATM   30  C   UNL     1      43.112 -16.521   3.927  1.00  0.00     0.145 C 
HETATM   31  O   UNL     1      43.949 -19.591   5.667  1.00  0.00    -0.273 OA
HETATM   32  C   UNL     1      43.187 -15.038   4.331  1.00  0.00     0.143 C 
BRANCH  29  33
HETATM   33  C   UNL     1      44.389 -19.068   3.359  1.00  0.00     0.103 C 
BRANCH  33  34
HETATM   34  C   UNL     1      43.893 -20.427   2.870  1.00  0.00     0.005 C 
HETATM   35  C   UNL     1      43.199 -20.311   1.521  1.00  0.00     0.005 C 
ENDBRANCH  33  34
ENDBRANCH  29  33
ENDBRANCH   1  25
TORSDOF 8
ENDMDL
MODEL 10
REMARK VINA RESULT:      -7.5      2.543      9.891
REMARK  8 active torsions:
REMARK  status: ('A' for Active; 'I' for Inactive)
REMARK    1  A    between atoms: C_2  and  C_3 
REMARK    2  A    between atoms: C_3  and  C_4 
REMARK       I    between atoms: C_4  and  N_5 
REMARK    3  A    between atoms: N_8  and  C_9 
REMARK    4  A    between atoms: C_13  and  N_14 
REMARK    5  A    between atoms: N_14  and  C_15 
REMARK    6  A    between atoms: C_15  and  N_16 
REMARK       I    between atoms: N_16  and  C_17 
REMARK    7  A    between atoms: C_17  and  C_18 
REMARK    8  A    between atoms: C_19  and  O_20 
ROOT
HETATM    1  C   UNL     1      41.819 -12.370   4.780  1.00  0.00     0.052 A 
HETATM    2  C   UNL     1      40.543 -11.875   4.435  1.00  0.00     0.062 A 
HETATM    3 CL   UNL     1      39.386 -12.751   3.485  1.00  0.00    -0.082 Cl
HETATM    4  C   UNL     1      40.134 -10.582   4.810  1.00  0.00     0.055 A 
HETATM    5  C   UNL     1      40.994  -9.723   5.489  1.00  0.00     0.036 A 
HETATM    6  C   UNL     1      42.287 -10.153   5.767  1.00  0.00     0.032 A 
HETATM    7  C   UNL     1      42.680 -11.456   5.427  1.00  0.00     0.033 A 
ENDROOT
BRANCH   5   8
HETATM    8  N   UNL     1      40.462  -8.500   5.956  1.00  0.00    -0.333 N 
HETATM    9  H   UNL     1      39.508  -8.559   6.297  1.00  0.00     0.168 HD
BRANCH   8  10
HETATM   10  C   UNL     1      41.146  -7.405   6.366  1.00  0.00     0.179 C 
HETATM   11  S   UNL     1      41.544  -6.207   5.271  1.00  0.00    -0.040 SA
BRANCH  10  12
HETATM   12  N   UNL     1      41.589  -7.290   7.651  1.00  0.00    -0.299 N 
HETATM   13  C   UNL     1      41.141  -8.094   8.698  1.00  0.00     0.260 C 
HETATM   14  O   UNL     1      40.011  -8.542   8.835  1.00  0.00    -0.267 OA
HETATM   15  H   UNL     1      42.573  -7.060   7.680  1.00  0.00     0.171 HD
BRANCH  13  16
HETATM   16  C   UNL     1      42.175  -8.372   9.733  1.00  0.00     0.066 A 
HETATM   17  C   UNL     1      42.137  -7.805  11.019  1.00  0.00     0.089 A 
HETATM   18  C   UNL     1      43.101  -8.188  11.975  1.00  0.00    -0.028 A 
HETATM   19  C   UNL     1      43.058  -7.637  13.375  1.00  0.00     0.051 C 
HETATM   20  C   UNL     1      44.101  -9.108  11.627  1.00  0.00     0.009 A 
HETATM   21  C   UNL     1      44.140  -9.665  10.352  1.00  0.00     0.002 A 
HETATM   22  C   UNL     1      43.175  -9.309   9.412  1.00  0.00     0.020 A 
BRANCH  17  23
HETATM   23  O   UNL     1      41.176  -6.938  11.471  1.00  0.00    -0.354 OA
HETATM   24  C   UNL     1      41.337  -5.583  11.062  1.00  0.00     0.210 C 
ENDBRANCH  17  23
ENDBRANCH  13  16
ENDBRANCH  10  12
ENDBRANCH   8  10
ENDBRANCH   5   8
BRANCH   1  25
HETATM   25  N   UNL     1      42.287 -13.680   4.632  1.00  0.00    -0.376 N 
HETATM   26  C   UNL     1      42.961 -14.292   5.798  1.00  0.00     0.143 C 
HETATM   27  C   UNL     1      42.857 -15.830   5.724  1.00  0.00     0.145 C 
HETATM   28  N   UNL     1      43.255 -16.387   4.422  1.00  0.00    -0.349 N 
HETATM   29  C   UNL     1      43.642 -17.725   4.389  1.00  0.00     0.219 C 
HETATM   30  C   UNL     1      42.703 -15.687   3.253  1.00  0.00     0.145 C 
HETATM   31  O   UNL     1      43.795 -18.387   5.415  1.00  0.00    -0.273 OA
HETATM   32  C   UNL     1      42.827 -14.157   3.350  1.00  0.00     0.143 C 
BRANCH  29  33
HETATM   33  C   UNL     1      43.897 -18.324   3.011  1.00  0.00     0.103 C 
BRANCH  33  34
HETATM   34  C   UNL     1      43.858 -19.851   3.010  1.00  0.00     0.005 C 
HETATM   35  C   UNL     1      43.295 -20.390   1.705  1.00  0.00     0.005 C 
ENDBRANCH  33  34
ENDBRANCH  29  33
ENDBRANCH   1  25
TORSDOF 8
ENDMDL
