MODEL 1
REMARK VINA RESULT:      -8.7      0.000      0.000
REMARK  5 active torsions:
REMARK  status: ('A' for Active; 'I' for Inactive)
REMARK    1  A    between atoms: C_9  and  N_10 
REMARK       I    between atoms: N_10  and  C_11 
REMARK    2  A    between atoms: C_11  and  C_12 
REMARK    3  A    between atoms: C_14  and  C_15 
REMARK    4  A    between atoms: C_15  and  O_16 
REMARK    5  A    between atoms: O_16  and  C_17 
ROOT
HETATM    1  N   UNL     1      43.787 -12.586   7.340  1.00  0.00    -0.321 N 
HETATM    2  C   UNL     1      44.760 -11.595   7.344  1.00  0.00     0.279 C 
HETATM    3  O   UNL     1      45.553 -11.395   6.429  1.00  0.00    -0.265 OA
HETATM    4  H   UNL     1      43.306 -12.743   8.214  1.00  0.00     0.169 HD
ENDROOT
BRANCH   2   5
HETATM    5  C   UNL     1      44.798 -10.831   8.583  1.00  0.00     0.143 A 
HETATM    6  O   UNL     1      44.016 -11.261   9.620  1.00  0.00    -0.307 OA
HETATM    7  C   UNL     1      44.184 -10.396  10.660  1.00  0.00     0.078 A 
HETATM    8  C   UNL     1      45.086  -9.414  10.310  1.00  0.00     0.038 A 
HETATM    9  C   UNL     1      45.478  -9.688   8.975  1.00  0.00     0.045 A 
BRANCH   7  10
HETATM   10  C   UNL     1      43.379 -10.666  11.879  1.00  0.00     0.240 C 
BRANCH  10  11
HETATM   11  O   UNL     1      42.349  -9.682  11.926  1.00  0.00    -0.345 OA
BRANCH  11  12
HETATM   12  C   UNL     1      42.293  -8.920  13.062  1.00  0.00     0.069 A 
HETATM   13  C   UNL     1      41.415  -9.108  14.132  1.00  0.00     0.037 A 
HETATM   14  C   UNL     1      41.464  -8.254  15.238  1.00  0.00     0.003 A 
HETATM   15  C   UNL     1      42.385  -7.209  15.278  1.00  0.00     0.000 A 
HETATM   16  C   UNL     1      43.257  -7.013  14.210  1.00  0.00     0.003 A 
HETATM   17  C   UNL     1      43.207  -7.865  13.105  1.00  0.00     0.037 A 
ENDBRANCH  11  12
ENDBRANCH  10  11
ENDBRANCH   7  10
ENDBRANCH   2   5
BRANCH   1  18
HETATM   18  C   UNL     1      43.497 -13.502   6.303  1.00  0.00     0.037 A 
HETATM   19  C   UNL     1      43.993 -14.812   6.263  1.00  0.00     0.063 A 
HETATM   20  C   UNL     1      43.636 -15.645   5.189  1.00  0.00     0.087 A 
HETATM   21  N   UNL     1      43.993 -16.946   4.930  1.00  0.00    -0.234 NA
HETATM   22  C   UNL     1      42.800 -15.157   4.194  1.00  0.00     0.062 A 
HETATM   23  C   UNL     1      43.388 -17.267   3.807  1.00  0.00     0.101 A 
HETATM   24  C   UNL     1      43.449 -18.571   3.108  1.00  0.00     0.091 C 
HETATM   25  N   UNL     1      42.649 -16.212   3.331  1.00  0.00    -0.343 N 
HETATM   26  H   UNL     1      42.094 -16.214   2.489  1.00  0.00     0.167 HD
HETATM   27  C   UNL     1      42.293 -13.859   4.192  1.00  0.00     0.034 A 
HETATM   28  C   UNL     1      42.668 -13.041   5.267  1.00  0.00     0.032 A 
ENDBRANCH   1  18
TORSDOF 5
ENDMDL
MODEL 2
REMARK VINA RESULT:      -8.7      1.138      2.012
REMARK  5 active torsions:
REMARK  status: ('A' for Active; 'I' for Inactive)
REMARK    1  A    between atoms: C_9  and  N_10 
REMARK       I    between atoms: N_10  and  C_11 
REMARK    2  A    between atoms: C_11  and  C_12 
REMARK    3  A    between atoms: C_14  and  C_15 
REMARK    4  A    between atoms: C_15  and  O_16 
REMARK    5  A    between atoms: O_16  and  C_17 
ROOT
HETATM    1  N   UNL     1      43.482 -12.716   7.251  1.00  0.00    -0.321 N 
HETATM    2  C   UNL     1      44.437 -11.717   7.115  1.00  0.00     0.279 C 
HETATM    3  O   UNL     1      45.068 -11.493   6.087  1.00  0.00    -0.265 OA
HETATM    4  H   UNL     1      43.151 -12.893   8.189  1.00  0.00     0.169 HD
ENDROOT
BRANCH   2   5
HETATM    5  C   UNL     1      44.672 -10.973   8.345  1.00  0.00     0.143 A 
HETATM    6  O   UNL     1      43.970 -11.348   9.459  1.00  0.00    -0.307 OA
HETATM    7  C   UNL     1      44.321 -10.513  10.477  1.00  0.00     0.078 A 
HETATM    8  C   UNL     1      45.262  -9.607  10.036  1.00  0.00     0.038 A 
HETATM    9  C   UNL     1      45.485  -9.898   8.666  1.00  0.00     0.045 A 
BRANCH   7  10
HETATM   10  C   UNL     1      43.630 -10.728  11.774  1.00  0.00     0.240 C 
BRANCH  10  11
HETATM   11  O   UNL     1      42.535  -9.816  11.821  1.00  0.00    -0.345 OA
BRANCH  11  12
HETATM   12  C   UNL     1      42.519  -8.946  12.877  1.00  0.00     0.069 A 
HETATM   13  C   UNL     1      43.337  -7.824  13.027  1.00  0.00     0.037 A 
HETATM   14  C   UNL     1      43.218  -7.014  14.160  1.00  0.00     0.003 A 
HETATM   15  C   UNL     1      42.286  -7.324  15.150  1.00  0.00     0.000 A 
HETATM   16  C   UNL     1      41.474  -8.447  15.009  1.00  0.00     0.003 A 
HETATM   17  C   UNL     1      41.594  -9.255  13.878  1.00  0.00     0.037 A 
ENDBRANCH  11  12
ENDBRANCH  10  11
ENDBRANCH   7  10
ENDBRANCH   2   5
BRANCH   1  18
HETATM   18  C   UNL     1      43.033 -13.617   6.259  1.00  0.00     0.037 A 
HETATM   19  C   UNL     1      42.022 -13.318   5.337  1.00  0.00     0.063 A 
HETATM   20  C   UNL     1      41.657 -14.284   4.385  1.00  0.00     0.087 A 
HETATM   21  N   UNL     1      40.706 -14.227   3.395  1.00  0.00    -0.234 NA
HETATM   22  C   UNL     1      42.306 -15.512   4.373  1.00  0.00     0.062 A 
HETATM   23  C   UNL     1      40.765 -15.385   2.774  1.00  0.00     0.101 A 
HETATM   24  C   UNL     1      39.941 -15.816   1.621  1.00  0.00     0.091 C 
HETATM   25  N   UNL     1      41.726 -16.191   3.332  1.00  0.00    -0.343 N 
HETATM   26  H   UNL     1      41.962 -17.123   3.029  1.00  0.00     0.167 HD
HETATM   27  C   UNL     1      43.310 -15.852   5.277  1.00  0.00     0.034 A 
HETATM   28  C   UNL     1      43.653 -14.878   6.226  1.00  0.00     0.032 A 
ENDBRANCH   1  18
TORSDOF 5
ENDMDL
MODEL 3
REMARK VINA RESULT:      -8.3      6.642      9.920
REMARK  5 active torsions:
REMARK  status: ('A' for Active; 'I' for Inactive)
REMARK    1  A    between atoms: C_9  and  N_10 
REMARK       I    between atoms: N_10  and  C_11 
REMARK    2  A    between atoms: C_11  and  C_12 
REMARK    3  A    between atoms: C_14  and  C_15 
REMARK    4  A    between atoms: C_15  and  O_16 
REMARK    5  A    between atoms: O_16  and  C_17 
ROOT
HETATM    1  N   UNL     1      41.335 -14.443   2.731  1.00  0.00    -0.321 N 
HETATM    2  C   UNL     1      40.770 -14.093   3.951  1.00  0.00     0.279 C 
HETATM    3  O   UNL     1      39.857 -13.285   4.088  1.00  0.00    -0.265 OA
HETATM    4  H   UNL     1      42.177 -14.998   2.773  1.00  0.00     0.169 HD
ENDROOT
BRANCH   2   5
HETATM    5  C   UNL     1      41.407 -14.741   5.088  1.00  0.00     0.143 A 
HETATM    6  O   UNL     1      42.615 -15.348   4.880  1.00  0.00    -0.307 OA
HETATM    7  C   UNL     1      43.014 -15.906   6.057  1.00  0.00     0.078 A 
HETATM    8  C   UNL     1      42.079 -15.650   7.037  1.00  0.00     0.038 A 
HETATM    9  C   UNL     1      41.043 -14.906   6.415  1.00  0.00     0.045 A 
BRANCH   7  10
HETATM   10  C   UNL     1      44.295 -16.658   6.030  1.00  0.00     0.240 C 
BRANCH  10  11
HETATM   11  O   UNL     1      43.976 -18.035   6.216  1.00  0.00    -0.345 OA
BRANCH  11  12
HETATM   12  C   UNL     1      43.916 -18.799   5.081  1.00  0.00     0.069 A 
HETATM   13  C   UNL     1      43.799 -18.318   3.775  1.00  0.00     0.037 A 
HETATM   14  C   UNL     1      43.748 -19.211   2.700  1.00  0.00     0.003 A 
HETATM   15  C   UNL     1      43.810 -20.585   2.925  1.00  0.00     0.000 A 
HETATM   16  C   UNL     1      43.918 -21.069   4.226  1.00  0.00     0.003 A 
HETATM   17  C   UNL     1      43.967 -20.178   5.299  1.00  0.00     0.037 A 
ENDBRANCH  11  12
ENDBRANCH  10  11
ENDBRANCH   7  10
ENDBRANCH   2   5
BRANCH   1  18
HETATM   18  C   UNL     1      40.960 -13.986   1.448  1.00  0.00     0.037 A 
HETATM   19  C   UNL     1      41.314 -12.731   0.935  1.00  0.00     0.063 A 
HETATM   20  C   UNL     1      40.896 -12.379  -0.359  1.00  0.00     0.087 A 
HETATM   21  N   UNL     1      41.111 -11.222  -1.068  1.00  0.00    -0.234 NA
HETATM   22  C   UNL     1      40.145 -13.279  -1.104  1.00  0.00     0.062 A 
HETATM   23  C   UNL     1      40.519 -11.397  -2.230  1.00  0.00     0.101 A 
HETATM   24  C   UNL     1      40.471 -10.436  -3.355  1.00  0.00     0.091 C 
HETATM   25  N   UNL     1      39.926 -12.634  -2.295  1.00  0.00    -0.343 N 
HETATM   26  H   UNL     1      39.416 -13.002  -3.082  1.00  0.00     0.167 HD
HETATM   27  C   UNL     1      39.764 -14.533  -0.628  1.00  0.00     0.034 A 
HETATM   28  C   UNL     1      40.184 -14.861   0.669  1.00  0.00     0.032 A 
ENDBRANCH   1  18
TORSDOF 5
ENDMDL
MODEL 4
REMARK VINA RESULT:      -8.2      1.913      3.516
REMARK  5 active torsions:
REMARK  status: ('A' for Active; 'I' for Inactive)
REMARK    1  A    between atoms: C_9  and  N_10 
REMARK       I    between atoms: N_10  and  C_11 
REMARK    2  A    between atoms: C_11  and  C_12 
REMARK    3  A    between atoms: C_14  and  C_15 
REMARK    4  A    between atoms: C_15  and  O_16 
REMARK    5  A    between atoms: O_16  and  C_17 
ROOT
HETATM    1  N   UNL     1      43.364 -14.311   5.580  1.00  0.00    -0.321 N 
HETATM    2  C   UNL     1      42.215 -13.671   6.026  1.00  0.00     0.279 C 
HETATM    3  O   UNL     1      41.109 -14.197   6.098  1.00  0.00    -0.265 OA
HETATM    4  H   UNL     1      44.170 -13.723   5.424  1.00  0.00     0.169 HD
ENDROOT
BRANCH   2   5
HETATM    5  C   UNL     1      42.428 -12.269   6.357  1.00  0.00     0.143 A 
HETATM    6  O   UNL     1      43.525 -11.953   7.111  1.00  0.00    -0.307 OA
HETATM    7  C   UNL     1      43.517 -10.607   7.322  1.00  0.00     0.078 A 
HETATM    8  C   UNL     1      42.429 -10.041   6.693  1.00  0.00     0.038 A 
HETATM    9  C   UNL     1      41.725 -11.108   6.076  1.00  0.00     0.045 A 
BRANCH   7  10
HETATM   10  C   UNL     1      44.613 -10.065   8.165  1.00  0.00     0.240 C 
BRANCH  10  11
HETATM   11  O   UNL     1      44.652 -10.850   9.355  1.00  0.00    -0.345 OA
BRANCH  11  12
HETATM   12  C   UNL     1      44.058 -10.301  10.460  1.00  0.00     0.069 A 
HETATM   13  C   UNL     1      43.524 -11.008  11.539  1.00  0.00     0.037 A 
HETATM   14  C   UNL     1      42.942 -10.322  12.610  1.00  0.00     0.003 A 
HETATM   15  C   UNL     1      42.889  -8.929  12.605  1.00  0.00     0.000 A 
HETATM   16  C   UNL     1      43.413  -8.220  11.526  1.00  0.00     0.003 A 
HETATM   17  C   UNL     1      43.991  -8.906  10.458  1.00  0.00     0.037 A 
ENDBRANCH  11  12
ENDBRANCH  10  11
ENDBRANCH   7  10
ENDBRANCH   2   5
BRANCH   1  18
HETATM   18  C   UNL     1      43.495 -15.657   5.172  1.00  0.00     0.037 A 
HETATM   19  C   UNL     1      43.283 -16.096   3.858  1.00  0.00     0.063 A 
HETATM   20  C   UNL     1      43.448 -17.459   3.557  1.00  0.00     0.087 A 
HETATM   21  N   UNL     1      43.296 -18.120   2.363  1.00  0.00    -0.234 NA
HETATM   22  C   UNL     1      43.820 -18.341   4.564  1.00  0.00     0.062 A 
HETATM   23  C   UNL     1      43.574 -19.381   2.613  1.00  0.00     0.101 A 
HETATM   24  C   UNL     1      43.561 -20.501   1.644  1.00  0.00     0.091 C 
HETATM   25  N   UNL     1      43.903 -19.557   3.934  1.00  0.00    -0.343 N 
HETATM   26  H   UNL     1      44.159 -20.431   4.366  1.00  0.00     0.167 HD
HETATM   27  C   UNL     1      44.032 -17.947   5.884  1.00  0.00     0.034 A 
HETATM   28  C   UNL     1      43.853 -16.585   6.165  1.00  0.00     0.032 A 
ENDBRANCH   1  18
TORSDOF 5
ENDMDL
MODEL 5
REMARK VINA RESULT:      -8.0      3.013     10.380
REMARK  5 active torsions:
REMARK  status: ('A' for Active; 'I' for Inactive)
REMARK    1  A    between atoms: C_9  and  N_10 
REMARK       I    between atoms: N_10  and  C_11 
REMARK    2  A    between atoms: C_11  and  C_12 
REMARK    3  A    between atoms: C_14  and  C_15 
REMARK    4  A    between atoms: C_15  and  O_16 
REMARK    5  A    between atoms: O_16  and  C_17 
ROOT
HETATM    1  N   UNL     1      42.806  -9.987  10.333  1.00  0.00    -0.321 N 
HETATM    2  C   UNL     1      43.995 -10.645  10.041  1.00  0.00     0.279 C 
HETATM    3  O   UNL     1      44.868 -10.901  10.865  1.00  0.00    -0.265 OA
HETATM    4  H   UNL     1      42.247  -9.703   9.541  1.00  0.00     0.169 HD
ENDROOT
BRANCH   2   5
HETATM    5  C   UNL     1      44.146 -10.962   8.629  1.00  0.00     0.143 A 
HETATM    6  O   UNL     1      43.808 -12.224   8.221  1.00  0.00    -0.307 OA
HETATM    7  C   UNL     1      44.047 -12.312   6.883  1.00  0.00     0.078 A 
HETATM    8  C   UNL     1      44.523 -11.106   6.412  1.00  0.00     0.038 A 
HETATM    9  C   UNL     1      44.591 -10.240   7.533  1.00  0.00     0.045 A 
BRANCH   7  10
HETATM   10  C   UNL     1      43.784 -13.630   6.251  1.00  0.00     0.240 C 
BRANCH  10  11
HETATM   11  O   UNL     1      42.941 -13.393   5.125  1.00  0.00    -0.345 OA
BRANCH  11  12
HETATM   12  C   UNL     1      43.044 -14.290   4.095  1.00  0.00     0.069 A 
HETATM   13  C   UNL     1      43.142 -13.972   2.739  1.00  0.00     0.037 A 
HETATM   14  C   UNL     1      43.241 -14.989   1.785  1.00  0.00     0.003 A 
HETATM   15  C   UNL     1      43.239 -16.325   2.180  1.00  0.00     0.000 A 
HETATM   16  C   UNL     1      43.133 -16.647   3.531  1.00  0.00     0.003 A 
HETATM   17  C   UNL     1      43.032 -15.632   4.483  1.00  0.00     0.037 A 
ENDBRANCH  11  12
ENDBRANCH  10  11
ENDBRANCH   7  10
ENDBRANCH   2   5
BRANCH   1  18
HETATM   18  C   UNL     1      42.362  -9.534  11.596  1.00  0.00     0.037 A 
HETATM   19  C   UNL     1      43.028  -8.560  12.351  1.00  0.00     0.063 A 
HETATM   20  C   UNL     1      42.496  -8.174  13.592  1.00  0.00     0.087 A 
HETATM   21  N   UNL     1      42.962  -7.257  14.502  1.00  0.00    -0.234 NA
HETATM   22  C   UNL     1      41.321  -8.762  14.044  1.00  0.00     0.062 A 
HETATM   23  C   UNL     1      42.097  -7.263  15.493  1.00  0.00     0.101 A 
HETATM   24  C   UNL     1      42.150  -6.438  16.722  1.00  0.00     0.091 C 
HETATM   25  N   UNL     1      41.084  -8.157  15.253  1.00  0.00    -0.343 N 
HETATM   26  H   UNL     1      40.301  -8.339  15.862  1.00  0.00     0.167 HD
HETATM   27  C   UNL     1      40.633  -9.740  13.329  1.00  0.00     0.034 A 
HETATM   28  C   UNL     1      41.186 -10.117  12.097  1.00  0.00     0.032 A 
ENDBRANCH   1  18
TORSDOF 5
ENDMDL
MODEL 6
REMARK VINA RESULT:      -7.9      8.092     11.120
REMARK  5 active torsions:
REMARK  status: ('A' for Active; 'I' for Inactive)
REMARK    1  A    between atoms: C_9  and  N_10 
REMARK       I    between atoms: N_10  and  C_11 
REMARK    2  A    between atoms: C_11  and  C_12 
REMARK    3  A    between atoms: C_14  and  C_15 
REMARK    4  A    between atoms: C_15  and  O_16 
REMARK    5  A    between atoms: O_16  and  C_17 
ROOT
HETATM    1  N   UNL     1      42.064 -15.002   1.221  1.00  0.00    -0.321 N 
HETATM    2  C   UNL     1      40.757 -14.924   0.757  1.00  0.00     0.279 C 
HETATM    3  O   UNL     1      39.831 -15.617   1.167  1.00  0.00    -0.265 OA
HETATM    4  H   UNL     1      42.756 -14.488   0.694  1.00  0.00     0.169 HD
ENDROOT
BRANCH   2   5
HETATM    5  C   UNL     1      40.586 -13.964  -0.324  1.00  0.00     0.143 A 
HETATM    6  O   UNL     1      40.951 -12.667  -0.087  1.00  0.00    -0.307 OA
HETATM    7  C   UNL     1      40.686 -11.943  -1.210  1.00  0.00     0.078 A 
HETATM    8  C   UNL     1      40.167 -12.767  -2.186  1.00  0.00     0.038 A 
HETATM    9  C   UNL     1      40.097 -14.065  -1.617  1.00  0.00     0.045 A 
BRANCH   7  10
HETATM   10  C   UNL     1      40.974 -10.488  -1.140  1.00  0.00     0.240 C 
BRANCH  10  11
HETATM   11  O   UNL     1      40.679  -9.941  -2.424  1.00  0.00    -0.345 OA
BRANCH  11  12
HETATM   12  C   UNL     1      41.435  -8.867  -2.811  1.00  0.00     0.069 A 
HETATM   13  C   UNL     1      41.414  -8.261  -4.069  1.00  0.00     0.037 A 
HETATM   14  C   UNL     1      42.241  -7.166  -4.335  1.00  0.00     0.003 A 
HETATM   15  C   UNL     1      43.094  -6.674  -3.347  1.00  0.00     0.000 A 
HETATM   16  C   UNL     1      43.124  -7.281  -2.094  1.00  0.00     0.003 A 
HETATM   17  C   UNL     1      42.299  -8.375  -1.830  1.00  0.00     0.037 A 
ENDBRANCH  11  12
ENDBRANCH  10  11
ENDBRANCH   7  10
ENDBRANCH   2   5
BRANCH   1  18
HETATM   18  C   UNL     1      42.563 -15.835   2.247  1.00  0.00     0.037 A 
HETATM   19  C   UNL     1      42.845 -17.197   2.075  1.00  0.00     0.063 A 
HETATM   20  C   UNL     1      43.348 -17.934   3.160  1.00  0.00     0.087 A 
HETATM   21  N   UNL     1      43.691 -19.262   3.238  1.00  0.00    -0.234 NA
HETATM   22  C   UNL     1      43.558 -17.300   4.378  1.00  0.00     0.062 A 
HETATM   23  C   UNL     1      44.114 -19.452   4.469  1.00  0.00     0.101 A 
HETATM   24  C   UNL     1      44.606 -20.721   5.051  1.00  0.00     0.091 C 
HETATM   25  N   UNL     1      44.055 -18.286   5.192  1.00  0.00    -0.343 N 
HETATM   26  H   UNL     1      44.329 -18.176   6.156  1.00  0.00     0.167 HD
HETATM   27  C   UNL     1      43.283 -15.951   4.594  1.00  0.00     0.034 A 
HETATM   28  C   UNL     1      42.773 -15.236   3.500  1.00  0.00     0.032 A 
ENDBRANCH   1  18
TORSDOF 5
ENDMDL
MODEL 7
REMARK VINA RESULT:      -7.9      1.678      2.412
REMARK  5 active torsions:
REMARK  status: ('A' for Active; 'I' for Inactive)
REMARK    1  A    between atoms: C_9  and  N_10 
REMARK       I    between atoms: N_10  and  C_11 
REMARK    2  A    between atoms: C_11  and  C_12 
REMARK    3  A    between atoms: C_14  and  C_15 
REMARK    4  A    between atoms: C_15  and  O_16 
REMARK    5  A    between atoms: O_16  and  C_17 
ROOT
HETATM    1  N   UNL     1      42.930 -13.278   6.024  1.00  0.00    -0.321 N 
HETATM    2  C   UNL     1      43.782 -12.278   6.476  1.00  0.00     0.279 C 
HETATM    3  O   UNL     1      44.986 -12.423   6.664  1.00  0.00    -0.265 OA
HETATM    4  H   UNL     1      41.942 -13.072   6.061  1.00  0.00     0.169 HD
ENDROOT
BRANCH   2   5
HETATM    5  C   UNL     1      43.098 -11.027   6.770  1.00  0.00     0.143 A 
HETATM    6  O   UNL     1      43.236 -10.508   8.029  1.00  0.00    -0.307 OA
HETATM    7  C   UNL     1      42.502  -9.361   8.093  1.00  0.00     0.078 A 
HETATM    8  C   UNL     1      41.900  -9.122   6.875  1.00  0.00     0.038 A 
HETATM    9  C   UNL     1      42.278 -10.194   6.026  1.00  0.00     0.045 A 
BRANCH   7  10
HETATM   10  C   UNL     1      42.484  -8.662   9.403  1.00  0.00     0.240 C 
BRANCH  10  11
HETATM   11  O   UNL     1      42.741  -9.644  10.405  1.00  0.00    -0.345 OA
BRANCH  11  12
HETATM   12  C   UNL     1      42.534  -9.253  11.700  1.00  0.00     0.069 A 
HETATM   13  C   UNL     1      41.573  -9.773  12.569  1.00  0.00     0.037 A 
HETATM   14  C   UNL     1      41.466  -9.282  13.874  1.00  0.00     0.003 A 
HETATM   15  C   UNL     1      42.316  -8.268  14.314  1.00  0.00     0.000 A 
HETATM   16  C   UNL     1      43.271  -7.741  13.448  1.00  0.00     0.003 A 
HETATM   17  C   UNL     1      43.375  -8.230  12.145  1.00  0.00     0.037 A 
ENDBRANCH  11  12
ENDBRANCH  10  11
ENDBRANCH   7  10
ENDBRANCH   2   5
BRANCH   1  18
HETATM   18  C   UNL     1      43.271 -14.601   5.664  1.00  0.00     0.037 A 
HETATM   19  C   UNL     1      42.954 -15.177   4.427  1.00  0.00     0.063 A 
HETATM   20  C   UNL     1      43.348 -16.500   4.167  1.00  0.00     0.087 A 
HETATM   21  N   UNL     1      43.153 -17.272   3.048  1.00  0.00    -0.234 NA
HETATM   22  C   UNL     1      44.046 -17.208   5.137  1.00  0.00     0.062 A 
HETATM   23  C   UNL     1      43.721 -18.429   3.306  1.00  0.00     0.101 A 
HETATM   24  C   UNL     1      43.790 -19.604   2.407  1.00  0.00     0.091 C 
HETATM   25  N   UNL     1      44.281 -18.430   4.560  1.00  0.00    -0.343 N 
HETATM   26  H   UNL     1      44.776 -19.200   4.984  1.00  0.00     0.167 HD
HETATM   27  C   UNL     1      44.374 -16.676   6.382  1.00  0.00     0.034 A 
HETATM   28  C   UNL     1      43.963 -15.357   6.625  1.00  0.00     0.032 A 
ENDBRANCH   1  18
TORSDOF 5
ENDMDL
MODEL 8
REMARK VINA RESULT:      -7.9      3.136     10.346
REMARK  5 active torsions:
REMARK  status: ('A' for Active; 'I' for Inactive)
REMARK    1  A    between atoms: C_9  and  N_10 
REMARK       I    between atoms: N_10  and  C_11 
REMARK    2  A    between atoms: C_11  and  C_12 
REMARK    3  A    between atoms: C_14  and  C_15 
REMARK    4  A    between atoms: C_15  and  O_16 
REMARK    5  A    between atoms: O_16  and  C_17 
ROOT
HETATM    1  N   UNL     1      42.866 -10.177   9.705  1.00  0.00    -0.321 N 
HETATM    2  C   UNL     1      43.348  -9.767   8.469  1.00  0.00     0.279 C 
HETATM    3  O   UNL     1      43.466  -8.595   8.123  1.00  0.00    -0.265 OA
HETATM    4  H   UNL     1      42.674 -11.164   9.804  1.00  0.00     0.169 HD
ENDROOT
BRANCH   2   5
HETATM    5  C   UNL     1      43.656 -10.873   7.574  1.00  0.00     0.143 A 
HETATM    6  O   UNL     1      42.656 -11.328   6.757  1.00  0.00    -0.307 OA
HETATM    7  C   UNL     1      43.149 -12.370   6.031  1.00  0.00     0.078 A 
HETATM    8  C   UNL     1      44.471 -12.585   6.358  1.00  0.00     0.038 A 
HETATM    9  C   UNL     1      44.797 -11.628   7.353  1.00  0.00     0.045 A 
BRANCH   7  10
HETATM   10  C   UNL     1      42.197 -13.037   5.106  1.00  0.00     0.240 C 
BRANCH  10  11
HETATM   11  O   UNL     1      42.884 -13.241   3.874  1.00  0.00    -0.345 OA
BRANCH  11  12
HETATM   12  C   UNL     1      42.992 -14.538   3.450  1.00  0.00     0.069 A 
HETATM   13  C   UNL     1      42.926 -15.673   4.261  1.00  0.00     0.037 A 
HETATM   14  C   UNL     1      43.051 -16.947   3.698  1.00  0.00     0.003 A 
HETATM   15  C   UNL     1      43.245 -17.092   2.325  1.00  0.00     0.000 A 
HETATM   16  C   UNL     1      43.320 -15.962   1.514  1.00  0.00     0.003 A 
HETATM   17  C   UNL     1      43.196 -14.691   2.076  1.00  0.00     0.037 A 
ENDBRANCH  11  12
ENDBRANCH  10  11
ENDBRANCH   7  10
ENDBRANCH   2   5
BRANCH   1  18
HETATM   18  C   UNL     1      42.468  -9.360  10.787  1.00  0.00     0.037 A 
HETATM   19  C   UNL     1      41.138  -8.995  11.038  1.00  0.00     0.063 A 
HETATM   20  C   UNL     1      40.849  -8.184  12.148  1.00  0.00     0.087 A 
HETATM   21  N   UNL     1      39.643  -7.699  12.592  1.00  0.00    -0.234 NA
HETATM   22  C   UNL     1      41.883  -7.764  12.975  1.00  0.00     0.062 A 
HETATM   23  C   UNL     1      39.914  -7.001  13.674  1.00  0.00     0.101 A 
HETATM   24  C   UNL     1      38.945  -6.279  14.529  1.00  0.00     0.091 C 
HETATM   25  N   UNL     1      41.260  -7.020  13.944  1.00  0.00    -0.343 N 
HETATM   26  H   UNL     1      41.712  -6.562  14.721  1.00  0.00     0.167 HD
HETATM   27  C   UNL     1      43.219  -8.097  12.756  1.00  0.00     0.034 A 
HETATM   28  C   UNL     1      43.487  -8.899  11.638  1.00  0.00     0.032 A 
ENDBRANCH   1  18
TORSDOF 5
ENDMDL
MODEL 9
REMARK VINA RESULT:      -7.6      2.927      4.960
REMARK  5 active torsions:
REMARK  status: ('A' for Active; 'I' for Inactive)
REMARK    1  A    between atoms: C_9  and  N_10 
REMARK       I    between atoms: N_10  and  C_11 
REMARK    2  A    between atoms: C_11  and  C_12 
REMARK    3  A    between atoms: C_14  and  C_15 
REMARK    4  A    between atoms: C_15  and  O_16 
REMARK    5  A    between atoms: O_16  and  C_17 
ROOT
HETATM    1  N   UNL     1      42.580 -13.877   3.884  1.00  0.00    -0.321 N 
HETATM    2  C   UNL     1      41.324 -13.307   3.722  1.00  0.00     0.279 C 
HETATM    3  O   UNL     1      40.316 -13.926   3.396  1.00  0.00    -0.265 OA
HETATM    4  H   UNL     1      43.350 -13.234   4.002  1.00  0.00     0.169 HD
ENDROOT
BRANCH   2   5
HETATM    5  C   UNL     1      41.315 -11.865   3.924  1.00  0.00     0.143 A 
HETATM    6  O   UNL     1      41.821 -11.384   5.101  1.00  0.00    -0.307 OA
HETATM    7  C   UNL     1      41.693 -10.028   5.091  1.00  0.00     0.078 A 
HETATM    8  C   UNL     1      41.122  -9.620   3.903  1.00  0.00     0.038 A 
HETATM    9  C   UNL     1      40.874 -10.799   3.155  1.00  0.00     0.045 A 
BRANCH   7  10
HETATM   10  C   UNL     1      42.148  -9.313   6.311  1.00  0.00     0.240 C 
BRANCH  10  11
HETATM   11  O   UNL     1      42.345 -10.298   7.323  1.00  0.00    -0.345 OA
BRANCH  11  12
HETATM   12  C   UNL     1      43.264  -9.992   8.291  1.00  0.00     0.069 A 
HETATM   13  C   UNL     1      43.062  -9.125   9.367  1.00  0.00     0.037 A 
HETATM   14  C   UNL     1      44.089  -8.900  10.289  1.00  0.00     0.003 A 
HETATM   15  C   UNL     1      45.320  -9.535  10.139  1.00  0.00     0.000 A 
HETATM   16  C   UNL     1      45.528 -10.395   9.062  1.00  0.00     0.003 A 
HETATM   17  C   UNL     1      44.504 -10.618   8.142  1.00  0.00     0.037 A 
ENDBRANCH  11  12
ENDBRANCH  10  11
ENDBRANCH   7  10
ENDBRANCH   2   5
BRANCH   1  18
HETATM   18  C   UNL     1      42.929 -15.239   3.750  1.00  0.00     0.037 A 
HETATM   19  C   UNL     1      43.209 -16.081   4.834  1.00  0.00     0.063 A 
HETATM   20  C   UNL     1      43.539 -17.425   4.590  1.00  0.00     0.087 A 
HETATM   21  N   UNL     1      43.852 -18.428   5.474  1.00  0.00    -0.234 NA
HETATM   22  C   UNL     1      43.577 -17.892   3.282  1.00  0.00     0.062 A 
HETATM   23  C   UNL     1      44.072 -19.498   4.741  1.00  0.00     0.101 A 
HETATM   24  C   UNL     1      44.438 -20.847   5.228  1.00  0.00     0.091 C 
HETATM   25  N   UNL     1      43.909 -19.217   3.406  1.00  0.00    -0.343 N 
HETATM   26  H   UNL     1      44.018 -19.874   2.649  1.00  0.00     0.167 HD
HETATM   27  C   UNL     1      43.314 -17.087   2.176  1.00  0.00     0.034 A 
HETATM   28  C   UNL     1      42.996 -15.747   2.441  1.00  0.00     0.032 A 
ENDBRANCH   1  18
TORSDOF 5
ENDMDL
MODEL 10
REMARK VINA RESULT:      -7.5      7.047     10.690
REMARK  5 active torsions:
REMARK  status: ('A' for Active; 'I' for Inactive)
REMARK    1  A    between atoms: C_9  and  N_10 
REMARK       I    between atoms: N_10  and  C_11 
REMARK    2  A    between atoms: C_11  and  C_12 
REMARK    3  A    between atoms: C_14  and  C_15 
REMARK    4  A    between atoms: C_15  and  O_16 
REMARK    5  A    between atoms: O_16  and  C_17 
ROOT
HETATM    1  N   UNL     1      42.635 -13.686   2.876  1.00  0.00    -0.321 N 
HETATM    2  C   UNL     1      41.387 -13.095   2.725  1.00  0.00     0.279 C 
HETATM    3  O   UNL     1      40.347 -13.534   3.207  1.00  0.00    -0.265 OA
HETATM    4  H   UNL     1      43.378 -13.312   2.303  1.00  0.00     0.169 HD
ENDROOT
BRANCH   2   5
HETATM    5  C   UNL     1      41.409 -11.911   1.879  1.00  0.00     0.143 A 
HETATM    6  O   UNL     1      41.240 -12.089   0.532  1.00  0.00    -0.307 OA
HETATM    7  C   UNL     1      41.319 -10.867  -0.065  1.00  0.00     0.078 A 
HETATM    8  C   UNL     1      41.520  -9.891   0.888  1.00  0.00     0.038 A 
HETATM    9  C   UNL     1      41.583 -10.561   2.137  1.00  0.00     0.045 A 
BRANCH   7  10
HETATM   10  C   UNL     1      41.204 -10.849  -1.546  1.00  0.00     0.240 C 
BRANCH  10  11
HETATM   11  O   UNL     1      41.199 -12.206  -1.982  1.00  0.00    -0.345 OA
BRANCH  11  12
HETATM   12  C   UNL     1      39.979 -12.727  -2.322  1.00  0.00     0.069 A 
HETATM   13  C   UNL     1      38.774 -12.023  -2.374  1.00  0.00     0.037 A 
HETATM   14  C   UNL     1      37.594 -12.677  -2.738  1.00  0.00     0.003 A 
HETATM   15  C   UNL     1      37.611 -14.036  -3.047  1.00  0.00     0.000 A 
HETATM   16  C   UNL     1      38.809 -14.744  -2.988  1.00  0.00     0.003 A 
HETATM   17  C   UNL     1      39.987 -14.091  -2.623  1.00  0.00     0.037 A 
ENDBRANCH  11  12
ENDBRANCH  10  11
ENDBRANCH   7  10
ENDBRANCH   2   5
BRANCH   1  18
HETATM   18  C   UNL     1      42.953 -14.846   3.619  1.00  0.00     0.037 A 
HETATM   19  C   UNL     1      43.160 -16.106   3.043  1.00  0.00     0.063 A 
HETATM   20  C   UNL     1      43.481 -17.193   3.873  1.00  0.00     0.087 A 
HETATM   21  N   UNL     1      43.721 -18.506   3.548  1.00  0.00    -0.234 NA
HETATM   22  C   UNL     1      43.590 -16.997   5.244  1.00  0.00     0.062 A 
HETATM   23  C   UNL     1      43.984 -19.114   4.685  1.00  0.00     0.101 A 
HETATM   24  C   UNL     1      44.316 -20.545   4.869  1.00  0.00     0.091 C 
HETATM   25  N   UNL     1      43.921 -18.234   5.737  1.00  0.00    -0.343 N 
HETATM   26  H   UNL     1      44.087 -18.460   6.705  1.00  0.00     0.167 HD
HETATM   27  C   UNL     1      43.384 -15.763   5.857  1.00  0.00     0.034 A 
HETATM   28  C   UNL     1      43.056 -14.693   5.012  1.00  0.00     0.032 A 
ENDBRANCH   1  18
TORSDOF 5
ENDMDL
