MODEL 1
REMARK VINA RESULT:      -9.4      0.000      0.000
REMARK  6 active torsions:
REMARK  status: ('A' for Active; 'I' for Inactive)
REMARK    1  A    between atoms: C_4  and  C_5 
REMARK    2  A    between atoms: N_6  and  C_7 
REMARK    3  A    between atoms: C_14  and  S_15 
REMARK    4  A    between atoms: S_15  and  C_16 
REMARK    5  A    between atoms: C_16  and  C_17 
REMARK       I    between atoms: C_17  and  N_18 
REMARK    6  A    between atoms: N_18  and  C_19 
ROOT
HETATM    1  C   UNL     1      43.862 -17.118   5.089  1.00  0.00     0.169 A 
HETATM    2  N   UNL     1      43.111 -15.982   4.771  1.00  0.00    -0.271 N 
HETATM    3  C   UNL     1      43.352 -15.118   5.831  1.00  0.00     0.197 A 
HETATM    4  N   UNL     1      44.195 -15.656   6.677  1.00  0.00    -0.122 NA
HETATM    5  N   UNL     1      44.529 -16.891   6.208  1.00  0.00    -0.128 NA
ENDROOT
BRANCH   3   6
HETATM    6  S   UNL     1      42.832 -13.462   5.932  1.00  0.00    -0.080 SA
BRANCH   6   7
HETATM    7  C   UNL     1      41.064 -13.673   6.312  1.00  0.00     0.185 C 
BRANCH   7   8
HETATM    8  C   UNL     1      40.112 -12.857   5.442  1.00  0.00     0.231 C 
HETATM    9  N   UNL     1      40.579 -12.567   4.172  1.00  0.00    -0.326 N 
HETATM   10  H   UNL     1      41.518 -12.888   3.971  1.00  0.00     0.169 HD
HETATM   11  O   UNL     1      38.986 -12.594   5.862  1.00  0.00    -0.272 OA
BRANCH   9  12
HETATM   12  C   UNL     1      39.940 -11.822   3.161  1.00  0.00     0.037 A 
HETATM   13  C   UNL     1      38.984 -12.360   2.290  1.00  0.00     0.061 A 
HETATM   14  C   UNL     1      38.433 -11.508   1.361  1.00  0.00     0.065 A 
HETATM   15  C   UNL     1      38.795 -10.167   1.266  1.00  0.00     0.063 A 
HETATM   16  N   UNL     1      37.469 -11.758   0.389  1.00  0.00    -0.306 N 
HETATM   17  N   UNL     1      38.057  -9.593   0.239  1.00  0.00    -0.307 N 
HETATM   18  C   UNL     1      39.728  -9.605   2.101  1.00  0.00     0.034 A 
HETATM   19  C   UNL     1      37.221 -10.574  -0.318  1.00  0.00     0.325 A 
HETATM   20  H   UNL     1      38.083  -8.638  -0.076  1.00  0.00     0.170 HD
HETATM   21  O   UNL     1      36.436 -10.420  -1.236  1.00  0.00    -0.247 OA
HETATM   22  C   UNL     1      40.301 -10.452   3.059  1.00  0.00     0.032 A 
HETATM   23  H   UNL     1      37.004 -12.634   0.208  1.00  0.00     0.170 HD
ENDBRANCH   9  12
ENDBRANCH   7   8
ENDBRANCH   6   7
ENDBRANCH   3   6
BRANCH   2  24
HETATM   24  C   UNL     1      42.327 -15.757   3.602  1.00  0.00     0.043 A 
HETATM   25  C   UNL     1      42.885 -15.128   2.481  1.00  0.00     0.032 A 
HETATM   26  C   UNL     1      42.105 -14.902   1.342  1.00  0.00     0.026 A 
HETATM   27  C   UNL     1      40.771 -15.303   1.321  1.00  0.00     0.034 A 
HETATM   28 CL   UNL     1      39.816 -15.023  -0.081  1.00  0.00    -0.084 Cl
HETATM   29  C   UNL     1      40.207 -15.926   2.432  1.00  0.00     0.026 A 
HETATM   30  C   UNL     1      40.982 -16.153   3.573  1.00  0.00     0.032 A 
ENDBRANCH   2  24
BRANCH   1  31
HETATM   31  C   UNL     1      43.885 -18.404   4.388  1.00  0.00     0.012 A 
HETATM   32  C   UNL     1      43.979 -19.588   5.133  1.00  0.00     0.015 A 
HETATM   33  C   UNL     1      43.983 -20.832   4.498  1.00  0.00     0.001 A 
HETATM   34  C   UNL     1      43.882 -20.904   3.110  1.00  0.00     0.000 A 
HETATM   35  C   UNL     1      43.766 -19.737   2.359  1.00  0.00     0.001 A 
HETATM   36  C   UNL     1      43.758 -18.492   2.994  1.00  0.00     0.015 A 
ENDBRANCH   1  31
TORSDOF 6
ENDMDL
MODEL 2
REMARK VINA RESULT:      -9.4      4.615      6.706
REMARK  6 active torsions:
REMARK  status: ('A' for Active; 'I' for Inactive)
REMARK    1  A    between atoms: C_4  and  C_5 
REMARK    2  A    between atoms: N_6  and  C_7 
REMARK    3  A    between atoms: C_14  and  S_15 
REMARK    4  A    between atoms: S_15  and  C_16 
REMARK    5  A    between atoms: C_16  and  C_17 
REMARK       I    between atoms: C_17  and  N_18 
REMARK    6  A    between atoms: N_18  and  C_19 
ROOT
HETATM    1  C   UNL     1      43.908 -16.984   5.337  1.00  0.00     0.169 A 
HETATM    2  N   UNL     1      43.179 -15.838   5.006  1.00  0.00    -0.271 N 
HETATM    3  C   UNL     1      43.440 -14.966   6.055  1.00  0.00     0.197 A 
HETATM    4  N   UNL     1      44.273 -15.510   6.906  1.00  0.00    -0.122 NA
HETATM    5  N   UNL     1      44.582 -16.757   6.451  1.00  0.00    -0.128 NA
ENDROOT
BRANCH   3   6
HETATM    6  S   UNL     1      42.952 -13.299   6.138  1.00  0.00    -0.080 SA
BRANCH   6   7
HETATM    7  C   UNL     1      44.568 -12.467   6.250  1.00  0.00     0.185 C 
BRANCH   7   8
HETATM    8  C   UNL     1      44.710 -11.482   7.407  1.00  0.00     0.231 C 
HETATM    9  N   UNL     1      43.518 -11.003   7.921  1.00  0.00    -0.326 N 
HETATM   10  H   UNL     1      42.682 -11.321   7.448  1.00  0.00     0.169 HD
HETATM   11  O   UNL     1      45.827 -11.250   7.867  1.00  0.00    -0.272 OA
BRANCH   9  12
HETATM   12  C   UNL     1      43.334 -10.077   8.968  1.00  0.00     0.037 A 
HETATM   13  C   UNL     1      43.250 -10.440  10.317  1.00  0.00     0.061 A 
HETATM   14  C   UNL     1      43.084  -9.424  11.231  1.00  0.00     0.065 A 
HETATM   15  C   UNL     1      42.996  -8.086  10.855  1.00  0.00     0.063 A 
HETATM   16  N   UNL     1      42.980  -9.486  12.617  1.00  0.00    -0.306 N 
HETATM   17  N   UNL     1      42.838  -7.326  12.007  1.00  0.00    -0.307 N 
HETATM   18  C   UNL     1      43.073  -7.692   9.544  1.00  0.00     0.034 A 
HETATM   19  C   UNL     1      42.828  -8.185  13.117  1.00  0.00     0.325 A 
HETATM   20  H   UNL     1      42.750  -6.326  12.076  1.00  0.00     0.170 HD
HETATM   21  O   UNL     1      42.711  -7.859  14.285  1.00  0.00    -0.247 OA
HETATM   22  C   UNL     1      43.246  -8.709   8.594  1.00  0.00     0.032 A 
HETATM   23  H   UNL     1      43.013 -10.313  13.191  1.00  0.00     0.170 HD
ENDBRANCH   9  12
ENDBRANCH   7   8
ENDBRANCH   6   7
ENDBRANCH   3   6
BRANCH   2  24
HETATM   24  C   UNL     1      42.397 -15.611   3.837  1.00  0.00     0.043 A 
HETATM   25  C   UNL     1      41.049 -15.994   3.797  1.00  0.00     0.032 A 
HETATM   26  C   UNL     1      40.292 -15.777   2.641  1.00  0.00     0.026 A 
HETATM   27  C   UNL     1      40.877 -15.178   1.528  1.00  0.00     0.034 A 
HETATM   28 CL   UNL     1      39.941 -14.914   0.110  1.00  0.00    -0.084 Cl
HETATM   29  C   UNL     1      42.215 -14.797   1.557  1.00  0.00     0.026 A 
HETATM   30  C   UNL     1      42.978 -15.013   2.709  1.00  0.00     0.032 A 
ENDBRANCH   2  24
BRANCH   1  31
HETATM   31  C   UNL     1      43.905 -18.279   4.651  1.00  0.00     0.012 A 
HETATM   32  C   UNL     1      43.930 -19.457   5.412  1.00  0.00     0.015 A 
HETATM   33  C   UNL     1      43.906 -20.707   4.791  1.00  0.00     0.001 A 
HETATM   34  C   UNL     1      43.847 -20.793   3.402  1.00  0.00     0.000 A 
HETATM   35  C   UNL     1      43.800 -19.632   2.634  1.00  0.00     0.001 A 
HETATM   36  C   UNL     1      43.820 -18.379   3.255  1.00  0.00     0.015 A 
ENDBRANCH   1  31
TORSDOF 6
ENDMDL
MODEL 3
REMARK VINA RESULT:      -8.7      5.797      9.837
REMARK  6 active torsions:
REMARK  status: ('A' for Active; 'I' for Inactive)
REMARK    1  A    between atoms: C_4  and  C_5 
REMARK    2  A    between atoms: N_6  and  C_7 
REMARK    3  A    between atoms: C_14  and  S_15 
REMARK    4  A    between atoms: S_15  and  C_16 
REMARK    5  A    between atoms: C_16  and  C_17 
REMARK       I    between atoms: C_17  and  N_18 
REMARK    6  A    between atoms: N_18  and  C_19 
ROOT
HETATM    1  C   UNL     1      43.341  -9.965  10.450  1.00  0.00     0.169 A 
HETATM    2  N   UNL     1      42.881  -9.659   9.165  1.00  0.00    -0.271 N 
HETATM    3  C   UNL     1      43.711 -10.396   8.331  1.00  0.00     0.197 A 
HETATM    4  N   UNL     1      44.553 -11.107   9.037  1.00  0.00    -0.122 NA
HETATM    5  N   UNL     1      44.313 -10.857  10.355  1.00  0.00    -0.128 NA
ENDROOT
BRANCH   3   6
HETATM    6  S   UNL     1      43.528 -10.571   6.611  1.00  0.00    -0.080 SA
BRANCH   6   7
HETATM    7  C   UNL     1      42.472 -12.052   6.520  1.00  0.00     0.185 C 
BRANCH   7   8
HETATM    8  C   UNL     1      43.206 -13.353   6.213  1.00  0.00     0.231 C 
HETATM    9  N   UNL     1      42.431 -14.346   5.641  1.00  0.00    -0.326 N 
HETATM   10  H   UNL     1      41.451 -14.120   5.528  1.00  0.00     0.169 HD
HETATM   11  O   UNL     1      44.422 -13.416   6.393  1.00  0.00    -0.272 OA
BRANCH   9  12
HETATM   12  C   UNL     1      42.822 -15.648   5.269  1.00  0.00     0.037 A 
HETATM   13  C   UNL     1      42.845 -16.100   3.944  1.00  0.00     0.061 A 
HETATM   14  C   UNL     1      43.264 -17.393   3.730  1.00  0.00     0.065 A 
HETATM   15  C   UNL     1      43.651 -18.236   4.768  1.00  0.00     0.063 A 
HETATM   16  N   UNL     1      43.395 -18.097   2.537  1.00  0.00    -0.306 N 
HETATM   17  N   UNL     1      44.019 -19.457   4.216  1.00  0.00    -0.307 N 
HETATM   18  C   UNL     1      43.641 -17.829   6.078  1.00  0.00     0.034 A 
HETATM   19  C   UNL     1      43.867 -19.386   2.822  1.00  0.00     0.325 A 
HETATM   20  H   UNL     1      44.350 -20.275   4.700  1.00  0.00     0.170 HD
HETATM   21  O   UNL     1      44.101 -20.273   2.022  1.00  0.00    -0.247 OA
HETATM   22  C   UNL     1      43.221 -16.514   6.322  1.00  0.00     0.032 A 
HETATM   23  H   UNL     1      43.198 -17.759   1.609  1.00  0.00     0.170 HD
ENDBRANCH   9  12
ENDBRANCH   7   8
ENDBRANCH   6   7
ENDBRANCH   3   6
BRANCH   2  24
HETATM   24  C   UNL     1      41.781  -8.823   8.812  1.00  0.00     0.043 A 
HETATM   25  C   UNL     1      40.477  -9.337   8.785  1.00  0.00     0.032 A 
HETATM   26  C   UNL     1      39.406  -8.512   8.428  1.00  0.00     0.026 A 
HETATM   27  C   UNL     1      39.634  -7.178   8.098  1.00  0.00     0.034 A 
HETATM   28 CL   UNL     1      38.313  -6.169   7.658  1.00  0.00    -0.084 Cl
HETATM   29  C   UNL     1      40.926  -6.660   8.119  1.00  0.00     0.026 A 
HETATM   30  C   UNL     1      42.001  -7.480   8.474  1.00  0.00     0.032 A 
ENDBRANCH   2  24
BRANCH   1  31
HETATM   31  C   UNL     1      42.918  -9.371  11.720  1.00  0.00     0.012 A 
HETATM   32  C   UNL     1      41.854  -9.952  12.426  1.00  0.00     0.015 A 
HETATM   33  C   UNL     1      41.439  -9.423  13.650  1.00  0.00     0.001 A 
HETATM   34  C   UNL     1      42.090  -8.315  14.186  1.00  0.00     0.000 A 
HETATM   35  C   UNL     1      43.162  -7.741  13.507  1.00  0.00     0.001 A 
HETATM   36  C   UNL     1      43.581  -8.271  12.283  1.00  0.00     0.015 A 
ENDBRANCH   1  31
TORSDOF 6
ENDMDL
MODEL 4
REMARK VINA RESULT:      -8.5      3.909      5.208
REMARK  6 active torsions:
REMARK  status: ('A' for Active; 'I' for Inactive)
REMARK    1  A    between atoms: C_4  and  C_5 
REMARK    2  A    between atoms: N_6  and  C_7 
REMARK    3  A    between atoms: C_14  and  S_15 
REMARK    4  A    between atoms: S_15  and  C_16 
REMARK    5  A    between atoms: C_16  and  C_17 
REMARK       I    between atoms: C_17  and  N_18 
REMARK    6  A    between atoms: N_18  and  C_19 
ROOT
HETATM    1  C   UNL     1      43.428 -16.215   4.992  1.00  0.00     0.169 A 
HETATM    2  N   UNL     1      42.605 -15.175   4.547  1.00  0.00    -0.271 N 
HETATM    3  C   UNL     1      42.703 -14.222   5.552  1.00  0.00     0.197 A 
HETATM    4  N   UNL     1      43.532 -14.623   6.484  1.00  0.00    -0.122 NA
HETATM    5  N   UNL     1      43.999 -15.853   6.128  1.00  0.00    -0.128 NA
ENDROOT
BRANCH   3   6
HETATM    6  S   UNL     1      42.038 -12.616   5.501  1.00  0.00    -0.080 SA
BRANCH   6   7
HETATM    7  C   UNL     1      40.289 -12.949   5.883  1.00  0.00     0.185 C 
BRANCH   7   8
HETATM    8  C   UNL     1      39.523 -11.774   6.483  1.00  0.00     0.231 C 
HETATM    9  N   UNL     1      40.290 -10.878   7.204  1.00  0.00    -0.326 N 
HETATM   10  H   UNL     1      41.270 -11.119   7.295  1.00  0.00     0.169 HD
HETATM   11  O   UNL     1      38.327 -11.638   6.223  1.00  0.00    -0.272 OA
BRANCH   9  12
HETATM   12  C   UNL     1      39.864  -9.718   7.884  1.00  0.00     0.037 A 
HETATM   13  C   UNL     1      39.431  -9.717   9.215  1.00  0.00     0.061 A 
HETATM   14  C   UNL     1      39.058  -8.506   9.752  1.00  0.00     0.065 A 
HETATM   15  C   UNL     1      39.097  -7.320   9.023  1.00  0.00     0.063 A 
HETATM   16  N   UNL     1      38.603  -8.205  11.032  1.00  0.00    -0.306 N 
HETATM   17  N   UNL     1      38.666  -6.292   9.852  1.00  0.00    -0.307 N 
HETATM   18  C   UNL     1      39.515  -7.282   7.717  1.00  0.00     0.034 A 
HETATM   19  C   UNL     1      38.355  -6.828  11.112  1.00  0.00     0.325 A 
HETATM   20  H   UNL     1      38.584  -5.315   9.626  1.00  0.00     0.170 HD
HETATM   21  O   UNL     1      37.951  -6.212  12.081  1.00  0.00    -0.247 OA
HETATM   22  C   UNL     1      39.903  -8.503   7.149  1.00  0.00     0.032 A 
HETATM   23  H   UNL     1      38.471  -8.849  11.795  1.00  0.00     0.170 HD
ENDBRANCH   9  12
ENDBRANCH   7   8
ENDBRANCH   6   7
ENDBRANCH   3   6
BRANCH   2  24
HETATM   24  C   UNL     1      41.882 -15.101   3.322  1.00  0.00     0.043 A 
HETATM   25  C   UNL     1      42.433 -14.453   2.208  1.00  0.00     0.032 A 
HETATM   26  C   UNL     1      41.712 -14.377   1.012  1.00  0.00     0.026 A 
HETATM   27  C   UNL     1      40.444 -14.947   0.926  1.00  0.00     0.034 A 
HETATM   28 CL   UNL     1      39.561 -14.851  -0.546  1.00  0.00    -0.084 Cl
HETATM   29  C   UNL     1      39.887 -15.592   2.028  1.00  0.00     0.026 A 
HETATM   30  C   UNL     1      40.603 -15.669   3.227  1.00  0.00     0.032 A 
ENDBRANCH   2  24
BRANCH   1  31
HETATM   31  C   UNL     1      43.605 -17.538   4.390  1.00  0.00     0.012 A 
HETATM   32  C   UNL     1      43.907 -18.631   5.216  1.00  0.00     0.015 A 
HETATM   33  C   UNL     1      44.062 -19.910   4.678  1.00  0.00     0.001 A 
HETATM   34  C   UNL     1      43.907 -20.112   3.308  1.00  0.00     0.000 A 
HETATM   35  C   UNL     1      43.587 -19.040   2.479  1.00  0.00     0.001 A 
HETATM   36  C   UNL     1      43.427 -17.760   3.017  1.00  0.00     0.015 A 
ENDBRANCH   1  31
TORSDOF 6
ENDMDL
MODEL 5
REMARK VINA RESULT:      -8.2      4.524      5.759
REMARK  6 active torsions:
REMARK  status: ('A' for Active; 'I' for Inactive)
REMARK    1  A    between atoms: C_4  and  C_5 
REMARK    2  A    between atoms: N_6  and  C_7 
REMARK    3  A    between atoms: C_14  and  S_15 
REMARK    4  A    between atoms: S_15  and  C_16 
REMARK    5  A    between atoms: C_16  and  C_17 
REMARK       I    between atoms: C_17  and  N_18 
REMARK    6  A    between atoms: N_18  and  C_19 
ROOT
HETATM    1  C   UNL     1      41.364 -15.658   2.400  1.00  0.00     0.169 A 
HETATM    2  N   UNL     1      41.322 -14.270   2.567  1.00  0.00    -0.271 N 
HETATM    3  C   UNL     1      40.330 -13.860   1.686  1.00  0.00     0.197 A 
HETATM    4  N   UNL     1      39.797 -14.894   1.084  1.00  0.00    -0.122 NA
HETATM    5  N   UNL     1      40.424 -16.015   1.541  1.00  0.00    -0.128 NA
ENDROOT
BRANCH   3   6
HETATM    6  S   UNL     1      39.686 -12.250   1.556  1.00  0.00    -0.080 SA
BRANCH   6   7
HETATM    7  C   UNL     1      39.311 -12.166  -0.224  1.00  0.00     0.185 C 
BRANCH   7   8
HETATM    8  C   UNL     1      40.368 -11.471  -1.076  1.00  0.00     0.231 C 
HETATM    9  N   UNL     1      40.265 -10.093  -1.135  1.00  0.00    -0.326 N 
HETATM   10  H   UNL     1      39.474  -9.696  -0.643  1.00  0.00     0.169 HD
HETATM   11  O   UNL     1      41.279 -12.137  -1.568  1.00  0.00    -0.272 OA
BRANCH   9  12
HETATM   12  C   UNL     1      41.077  -9.190  -1.850  1.00  0.00     0.037 A 
HETATM   13  C   UNL     1      40.916  -8.917  -3.214  1.00  0.00     0.061 A 
HETATM   14  C   UNL     1      41.774  -8.000  -3.776  1.00  0.00     0.065 A 
HETATM   15  C   UNL     1      42.771  -7.361  -3.044  1.00  0.00     0.063 A 
HETATM   16  N   UNL     1      41.841  -7.533  -5.085  1.00  0.00    -0.306 N 
HETATM   17  N   UNL     1      43.450  -6.503  -3.899  1.00  0.00    -0.307 N 
HETATM   18  C   UNL     1      42.960  -7.603  -1.707  1.00  0.00     0.034 A 
HETATM   19  C   UNL     1      42.880  -6.597  -5.179  1.00  0.00     0.325 A 
HETATM   20  H   UNL     1      44.220  -5.895  -3.675  1.00  0.00     0.170 HD
HETATM   21  O   UNL     1      43.224  -5.982  -6.172  1.00  0.00    -0.247 OA
HETATM   22  C   UNL     1      42.095  -8.531  -1.110  1.00  0.00     0.032 A 
HETATM   23  H   UNL     1      41.249  -7.800  -5.855  1.00  0.00     0.170 HD
ENDBRANCH   9  12
ENDBRANCH   7   8
ENDBRANCH   6   7
ENDBRANCH   3   6
BRANCH   2  24
HETATM   24  C   UNL     1      42.088 -13.479   3.471  1.00  0.00     0.043 A 
HETATM   25  C   UNL     1      43.249 -12.824   3.036  1.00  0.00     0.032 A 
HETATM   26  C   UNL     1      44.001 -12.058   3.933  1.00  0.00     0.026 A 
HETATM   27  C   UNL     1      43.596 -11.945   5.261  1.00  0.00     0.034 A 
HETATM   28 CL   UNL     1      44.523 -11.003   6.360  1.00  0.00    -0.084 Cl
HETATM   29  C   UNL     1      42.446 -12.594   5.703  1.00  0.00     0.026 A 
HETATM   30  C   UNL     1      41.691 -13.363   4.811  1.00  0.00     0.032 A 
ENDBRANCH   2  24
BRANCH   1  31
HETATM   31  C   UNL     1      42.317 -16.604   2.984  1.00  0.00     0.012 A 
HETATM   32  C   UNL     1      42.470 -16.648   4.378  1.00  0.00     0.015 A 
HETATM   33  C   UNL     1      43.356 -17.552   4.969  1.00  0.00     0.001 A 
HETATM   34  C   UNL     1      44.090 -18.429   4.173  1.00  0.00     0.000 A 
HETATM   35  C   UNL     1      43.931 -18.411   2.789  1.00  0.00     0.001 A 
HETATM   36  C   UNL     1      43.043 -17.509   2.197  1.00  0.00     0.015 A 
ENDBRANCH   1  31
TORSDOF 6
ENDMDL
MODEL 6
REMARK VINA RESULT:      -8.1      4.675      6.891
REMARK  6 active torsions:
REMARK  status: ('A' for Active; 'I' for Inactive)
REMARK    1  A    between atoms: C_4  and  C_5 
REMARK    2  A    between atoms: N_6  and  C_7 
REMARK    3  A    between atoms: C_14  and  S_15 
REMARK    4  A    between atoms: S_15  and  C_16 
REMARK    5  A    between atoms: C_16  and  C_17 
REMARK       I    between atoms: C_17  and  N_18 
REMARK    6  A    between atoms: N_18  and  C_19 
ROOT
HETATM    1  C   UNL     1      41.799 -12.217   2.560  1.00  0.00     0.169 A 
HETATM    2  N   UNL     1      41.498 -13.383   1.849  1.00  0.00    -0.271 N 
HETATM    3  C   UNL     1      40.687 -12.939   0.813  1.00  0.00     0.197 A 
HETATM    4  N   UNL     1      40.549 -11.638   0.865  1.00  0.00    -0.122 NA
HETATM    5  N   UNL     1      41.255 -11.184   1.938  1.00  0.00    -0.128 NA
ENDROOT
BRANCH   3   6
HETATM    6  S   UNL     1      40.124 -13.901  -0.522  1.00  0.00    -0.080 SA
BRANCH   6   7
HETATM    7  C   UNL     1      39.325 -12.632  -1.555  1.00  0.00     0.185 C 
BRANCH   7   8
HETATM    8  C   UNL     1      40.281 -11.763  -2.367  1.00  0.00     0.231 C 
HETATM    9  N   UNL     1      40.349 -10.438  -1.974  1.00  0.00    -0.326 N 
HETATM   10  H   UNL     1      39.726 -10.176  -1.220  1.00  0.00     0.169 HD
HETATM   11  O   UNL     1      40.984 -12.285  -3.231  1.00  0.00    -0.272 OA
BRANCH   9  12
HETATM   12  C   UNL     1      41.119  -9.402  -2.540  1.00  0.00     0.037 A 
HETATM   13  C   UNL     1      40.971  -8.960  -3.860  1.00  0.00     0.061 A 
HETATM   14  C   UNL     1      41.784  -7.929  -4.271  1.00  0.00     0.065 A 
HETATM   15  C   UNL     1      42.723  -7.335  -3.431  1.00  0.00     0.063 A 
HETATM   16  N   UNL     1      41.850  -7.288  -5.505  1.00  0.00    -0.306 N 
HETATM   17  N   UNL     1      43.367  -6.333  -4.146  1.00  0.00    -0.307 N 
HETATM   18  C   UNL     1      42.898  -7.742  -2.133  1.00  0.00     0.034 A 
HETATM   19  C   UNL     1      42.832  -6.289  -5.443  1.00  0.00     0.325 A 
HETATM   20  H   UNL     1      44.093  -5.717  -3.822  1.00  0.00     0.170 HD
HETATM   21  O   UNL     1      43.158  -5.529  -6.336  1.00  0.00    -0.247 OA
HETATM   22  C   UNL     1      42.079  -8.790  -1.690  1.00  0.00     0.032 A 
HETATM   23  H   UNL     1      41.293  -7.485  -6.320  1.00  0.00     0.170 HD
ENDBRANCH   9  12
ENDBRANCH   7   8
ENDBRANCH   6   7
ENDBRANCH   3   6
BRANCH   2  24
HETATM   24  C   UNL     1      41.965 -14.704   2.108  1.00  0.00     0.043 A 
HETATM   25  C   UNL     1      41.249 -15.557   2.960  1.00  0.00     0.032 A 
HETATM   26  C   UNL     1      41.720 -16.849   3.216  1.00  0.00     0.026 A 
HETATM   27  C   UNL     1      42.901 -17.290   2.623  1.00  0.00     0.034 A 
HETATM   28 CL   UNL     1      43.476 -18.879   2.942  1.00  0.00    -0.084 Cl
HETATM   29  C   UNL     1      43.620 -16.449   1.777  1.00  0.00     0.026 A 
HETATM   30  C   UNL     1      43.155 -15.156   1.519  1.00  0.00     0.032 A 
ENDBRANCH   2  24
BRANCH   1  31
HETATM   31  C   UNL     1      42.519 -12.101   3.830  1.00  0.00     0.012 A 
HETATM   32  C   UNL     1      43.846 -11.646   3.826  1.00  0.00     0.015 A 
HETATM   33  C   UNL     1      44.554 -11.504   5.021  1.00  0.00     0.001 A 
HETATM   34  C   UNL     1      43.939 -11.806   6.235  1.00  0.00     0.000 A 
HETATM   35  C   UNL     1      42.615 -12.239   6.255  1.00  0.00     0.001 A 
HETATM   36  C   UNL     1      41.904 -12.378   5.060  1.00  0.00     0.015 A 
ENDBRANCH   1  31
TORSDOF 6
ENDMDL
MODEL 7
REMARK VINA RESULT:      -8.1     16.133     19.082
REMARK  6 active torsions:
REMARK  status: ('A' for Active; 'I' for Inactive)
REMARK    1  A    between atoms: C_4  and  C_5 
REMARK    2  A    between atoms: N_6  and  C_7 
REMARK    3  A    between atoms: C_14  and  S_15 
REMARK    4  A    between atoms: S_15  and  C_16 
REMARK    5  A    between atoms: C_16  and  C_17 
REMARK       I    between atoms: C_17  and  N_18 
REMARK    6  A    between atoms: N_18  and  C_19 
ROOT
HETATM    1  C   UNL     1      46.153 -28.963  -1.607  1.00  0.00     0.169 A 
HETATM    2  N   UNL     1      45.830 -29.230  -0.273  1.00  0.00    -0.271 N 
HETATM    3  C   UNL     1      46.850 -28.620   0.444  1.00  0.00     0.197 A 
HETATM    4  N   UNL     1      47.679 -28.011  -0.367  1.00  0.00    -0.122 NA
HETATM    5  N   UNL     1      47.236 -28.205  -1.642  1.00  0.00    -0.128 NA
ENDROOT
BRANCH   3   6
HETATM    6  S   UNL     1      46.920 -28.453   2.173  1.00  0.00    -0.080 SA
BRANCH   6   7
HETATM    7  C   UNL     1      47.629 -30.061   2.652  1.00  0.00     0.185 C 
BRANCH   7   8
HETATM    8  C   UNL     1      48.387 -30.789   1.547  1.00  0.00     0.231 C 
HETATM    9  N   UNL     1      49.560 -30.181   1.138  1.00  0.00    -0.326 N 
HETATM   10  H   UNL     1      49.768 -29.296   1.584  1.00  0.00     0.169 HD
HETATM   11  O   UNL     1      47.982 -31.885   1.160  1.00  0.00    -0.272 OA
BRANCH   9  12
HETATM   12  C   UNL     1      50.454 -30.604   0.133  1.00  0.00     0.037 A 
HETATM   13  C   UNL     1      51.448 -31.568   0.338  1.00  0.00     0.061 A 
HETATM   14  C   UNL     1      52.238 -31.892  -0.741  1.00  0.00     0.065 A 
HETATM   15  C   UNL     1      52.079 -31.299  -1.991  1.00  0.00     0.063 A 
HETATM   16  N   UNL     1      53.282 -32.808  -0.833  1.00  0.00    -0.306 N 
HETATM   17  N   UNL     1      53.023 -31.847  -2.850  1.00  0.00    -0.307 N 
HETATM   18  C   UNL     1      51.118 -30.350  -2.229  1.00  0.00     0.034 A 
HETATM   19  C   UNL     1      53.781 -32.794  -2.143  1.00  0.00     0.325 A 
HETATM   20  H   UNL     1      53.165 -31.634  -3.823  1.00  0.00     0.170 HD
HETATM   21  O   UNL     1      54.693 -33.469  -2.586  1.00  0.00    -0.247 OA
HETATM   22  C   UNL     1      50.297 -30.005  -1.146  1.00  0.00     0.032 A 
HETATM   23  H   UNL     1      53.634 -33.401  -0.099  1.00  0.00     0.170 HD
ENDBRANCH   9  12
ENDBRANCH   7   8
ENDBRANCH   6   7
ENDBRANCH   3   6
BRANCH   2  24
HETATM   24  C   UNL     1      44.687 -29.923   0.222  1.00  0.00     0.043 A 
HETATM   25  C   UNL     1      44.664 -31.324   0.255  1.00  0.00     0.032 A 
HETATM   26  C   UNL     1      43.534 -31.996   0.734  1.00  0.00     0.026 A 
HETATM   27  C   UNL     1      42.431 -31.272   1.181  1.00  0.00     0.034 A 
HETATM   28 CL   UNL     1      41.045 -32.103   1.768  1.00  0.00    -0.084 Cl
HETATM   29  C   UNL     1      42.444 -29.880   1.150  1.00  0.00     0.026 A 
HETATM   30  C   UNL     1      43.570 -29.203   0.670  1.00  0.00     0.032 A 
ENDBRANCH   2  24
BRANCH   1  31
HETATM   31  C   UNL     1      45.494 -29.474  -2.811  1.00  0.00     0.012 A 
HETATM   32  C   UNL     1      44.223 -28.989  -3.154  1.00  0.00     0.015 A 
HETATM   33  C   UNL     1      43.575 -29.441  -4.305  1.00  0.00     0.001 A 
HETATM   34  C   UNL     1      44.195 -30.375  -5.132  1.00  0.00     0.000 A 
HETATM   35  C   UNL     1      45.466 -30.850  -4.815  1.00  0.00     0.001 A 
HETATM   36  C   UNL     1      46.117 -30.396  -3.664  1.00  0.00     0.015 A 
ENDBRANCH   1  31
TORSDOF 6
ENDMDL
MODEL 8
REMARK VINA RESULT:      -8.1      3.519      5.675
REMARK  6 active torsions:
REMARK  status: ('A' for Active; 'I' for Inactive)
REMARK    1  A    between atoms: C_4  and  C_5 
REMARK    2  A    between atoms: N_6  and  C_7 
REMARK    3  A    between atoms: C_14  and  S_15 
REMARK    4  A    between atoms: S_15  and  C_16 
REMARK    5  A    between atoms: C_16  and  C_17 
REMARK       I    between atoms: C_17  and  N_18 
REMARK    6  A    between atoms: N_18  and  C_19 
ROOT
HETATM    1  C   UNL     1      43.364 -13.368   6.716  1.00  0.00     0.169 A 
HETATM    2  N   UNL     1      42.511 -13.483   5.613  1.00  0.00    -0.271 N 
HETATM    3  C   UNL     1      42.102 -14.810   5.647  1.00  0.00     0.197 A 
HETATM    4  N   UNL     1      42.617 -15.420   6.685  1.00  0.00    -0.122 NA
HETATM    5  N   UNL     1      43.386 -14.521   7.363  1.00  0.00    -0.128 NA
ENDROOT
BRANCH   3   6
HETATM    6  S   UNL     1      40.890 -15.527   4.628  1.00  0.00    -0.080 SA
BRANCH   6   7
HETATM    7  C   UNL     1      41.927 -16.391   3.406  1.00  0.00     0.185 C 
BRANCH   7   8
HETATM    8  C   UNL     1      41.930 -15.776   2.009  1.00  0.00     0.231 C 
HETATM    9  N   UNL     1      40.845 -14.969   1.720  1.00  0.00    -0.326 N 
HETATM   10  H   UNL     1      40.144 -14.906   2.447  1.00  0.00     0.169 HD
HETATM   11  O   UNL     1      42.906 -15.946   1.278  1.00  0.00    -0.272 OA
BRANCH   9  12
HETATM   12  C   UNL     1      40.566 -14.287   0.518  1.00  0.00     0.037 A 
HETATM   13  C   UNL     1      41.090 -13.028   0.202  1.00  0.00     0.061 A 
HETATM   14  C   UNL     1      40.741 -12.491  -1.016  1.00  0.00     0.065 A 
HETATM   15  C   UNL     1      39.902 -13.149  -1.912  1.00  0.00     0.063 A 
HETATM   16  N   UNL     1      41.112 -11.280  -1.592  1.00  0.00    -0.306 N 
HETATM   17  N   UNL     1      39.756 -12.345  -3.036  1.00  0.00    -0.307 N 
HETATM   18  C   UNL     1      39.368 -14.383  -1.637  1.00  0.00     0.034 A 
HETATM   19  C   UNL     1      40.509 -11.174  -2.852  1.00  0.00     0.325 A 
HETATM   20  H   UNL     1      39.219 -12.538  -3.863  1.00  0.00     0.170 HD
HETATM   21  O   UNL     1      40.614 -10.250  -3.639  1.00  0.00    -0.247 OA
HETATM   22  C   UNL     1      39.712 -14.953  -0.403  1.00  0.00     0.032 A 
HETATM   23  H   UNL     1      41.719 -10.581  -1.194  1.00  0.00     0.170 HD
ENDBRANCH   9  12
ENDBRANCH   7   8
ENDBRANCH   6   7
ENDBRANCH   3   6
BRANCH   2  24
HETATM   24  C   UNL     1      42.121 -12.457   4.705  1.00  0.00     0.043 A 
HETATM   25  C   UNL     1      42.896 -12.177   3.571  1.00  0.00     0.032 A 
HETATM   26  C   UNL     1      42.510 -11.161   2.691  1.00  0.00     0.026 A 
HETATM   27  C   UNL     1      41.353 -10.426   2.940  1.00  0.00     0.034 A 
HETATM   28 CL   UNL     1      40.884  -9.178   1.855  1.00  0.00    -0.084 Cl
HETATM   29  C   UNL     1      40.578 -10.695   4.065  1.00  0.00     0.026 A 
HETATM   30  C   UNL     1      40.960 -11.708   4.950  1.00  0.00     0.032 A 
ENDBRANCH   2  24
BRANCH   1  31
HETATM   31  C   UNL     1      44.189 -12.219   7.097  1.00  0.00     0.012 A 
HETATM   32  C   UNL     1      43.777 -11.404   8.162  1.00  0.00     0.015 A 
HETATM   33  C   UNL     1      44.549 -10.313   8.564  1.00  0.00     0.001 A 
HETATM   34  C   UNL     1      45.748 -10.031   7.912  1.00  0.00     0.000 A 
HETATM   35  C   UNL     1      46.180 -10.844   6.867  1.00  0.00     0.001 A 
HETATM   36  C   UNL     1      45.409 -11.939   6.466  1.00  0.00     0.015 A 
ENDBRANCH   1  31
TORSDOF 6
ENDMDL
MODEL 9
REMARK VINA RESULT:      -8.0      3.619      5.306
REMARK  6 active torsions:
REMARK  status: ('A' for Active; 'I' for Inactive)
REMARK    1  A    between atoms: C_4  and  C_5 
REMARK    2  A    between atoms: N_6  and  C_7 
REMARK    3  A    between atoms: C_14  and  S_15 
REMARK    4  A    between atoms: S_15  and  C_16 
REMARK    5  A    between atoms: C_16  and  C_17 
REMARK       I    between atoms: C_17  and  N_18 
REMARK    6  A    between atoms: N_18  and  C_19 
ROOT
HETATM    1  C   UNL     1      41.567 -13.772   6.111  1.00  0.00     0.169 A 
HETATM    2  N   UNL     1      41.903 -12.429   6.309  1.00  0.00    -0.271 N 
HETATM    3  C   UNL     1      40.690 -11.764   6.192  1.00  0.00     0.197 A 
HETATM    4  N   UNL     1      39.717 -12.618   5.990  1.00  0.00    -0.122 NA
HETATM    5  N   UNL     1      40.257 -13.869   5.960  1.00  0.00    -0.128 NA
ENDROOT
BRANCH   3   6
HETATM    6  S   UNL     1      40.420 -10.076   6.510  1.00  0.00    -0.080 SA
BRANCH   6   7
HETATM    7  C   UNL     1      40.979  -9.331   4.945  1.00  0.00     0.185 C 
BRANCH   7   8
HETATM    8  C   UNL     1      40.444 -10.000   3.682  1.00  0.00     0.231 C 
HETATM    9  N   UNL     1      41.184 -11.076   3.228  1.00  0.00    -0.326 N 
HETATM   10  H   UNL     1      42.025 -11.279   3.754  1.00  0.00     0.169 HD
HETATM   11  O   UNL     1      39.372  -9.623   3.208  1.00  0.00    -0.272 OA
BRANCH   9  12
HETATM   12  C   UNL     1      40.951 -11.872   2.088  1.00  0.00     0.037 A 
HETATM   13  C   UNL     1      41.207 -11.444   0.779  1.00  0.00     0.061 A 
HETATM   14  C   UNL     1      40.944 -12.336  -0.235  1.00  0.00     0.065 A 
HETATM   15  C   UNL     1      40.441 -13.613   0.002  1.00  0.00     0.063 A 
HETATM   16  N   UNL     1      41.108 -12.191  -1.609  1.00  0.00    -0.306 N 
HETATM   17  N   UNL     1      40.295 -14.252  -1.223  1.00  0.00    -0.307 N 
HETATM   18  C   UNL     1      40.176 -14.066   1.269  1.00  0.00     0.034 A 
HETATM   19  C   UNL     1      40.710 -13.378  -2.240  1.00  0.00     0.325 A 
HETATM   20  H   UNL     1      39.960 -15.185  -1.392  1.00  0.00     0.170 HD
HETATM   21  O   UNL     1      40.721 -13.611  -3.435  1.00  0.00    -0.247 OA
HETATM   22  C   UNL     1      40.440 -13.177   2.320  1.00  0.00     0.032 A 
HETATM   23  H   UNL     1      41.460 -11.382  -2.095  1.00  0.00     0.170 HD
ENDBRANCH   9  12
ENDBRANCH   7   8
ENDBRANCH   6   7
ENDBRANCH   3   6
BRANCH   2  24
HETATM   24  C   UNL     1      43.186 -11.888   6.612  1.00  0.00     0.043 A 
HETATM   25  C   UNL     1      43.479 -11.430   7.904  1.00  0.00     0.032 A 
HETATM   26  C   UNL     1      44.738 -10.892   8.189  1.00  0.00     0.026 A 
HETATM   27  C   UNL     1      45.704 -10.812   7.188  1.00  0.00     0.034 A 
HETATM   28 CL   UNL     1      47.250 -10.149   7.544  1.00  0.00    -0.084 Cl
HETATM   29  C   UNL     1      45.421 -11.262   5.901  1.00  0.00     0.026 A 
HETATM   30  C   UNL     1      44.164 -11.799   5.610  1.00  0.00     0.032 A 
ENDBRANCH   2  24
BRANCH   1  31
HETATM   31  C   UNL     1      42.475 -14.916   5.997  1.00  0.00     0.012 A 
HETATM   32  C   UNL     1      42.751 -15.447   4.729  1.00  0.00     0.015 A 
HETATM   33  C   UNL     1      43.627 -16.525   4.583  1.00  0.00     0.001 A 
HETATM   34  C   UNL     1      44.245 -17.076   5.703  1.00  0.00     0.000 A 
HETATM   35  C   UNL     1      43.997 -16.545   6.967  1.00  0.00     0.001 A 
HETATM   36  C   UNL     1      43.123 -15.464   7.114  1.00  0.00     0.015 A 
ENDBRANCH   1  31
TORSDOF 6
ENDMDL
MODEL 10
REMARK VINA RESULT:      -8.0      5.056      8.389
REMARK  6 active torsions:
REMARK  status: ('A' for Active; 'I' for Inactive)
REMARK    1  A    between atoms: C_4  and  C_5 
REMARK    2  A    between atoms: N_6  and  C_7 
REMARK    3  A    between atoms: C_14  and  S_15 
REMARK    4  A    between atoms: S_15  and  C_16 
REMARK    5  A    between atoms: C_16  and  C_17 
REMARK       I    between atoms: C_17  and  N_18 
REMARK    6  A    between atoms: N_18  and  C_19 
ROOT
HETATM    1  C   UNL     1      41.106 -11.823   3.897  1.00  0.00     0.169 A 
HETATM    2  N   UNL     1      41.935 -12.842   4.376  1.00  0.00    -0.271 N 
HETATM    3  C   UNL     1      42.514 -12.293   5.512  1.00  0.00     0.197 A 
HETATM    4  N   UNL     1      42.051 -11.086   5.723  1.00  0.00    -0.122 NA
HETATM    5  N   UNL     1      41.160 -10.799   4.733  1.00  0.00    -0.128 NA
ENDROOT
BRANCH   3   6
HETATM    6  S   UNL     1      43.519 -13.137   6.652  1.00  0.00    -0.080 SA
BRANCH   6   7
HETATM    7  C   UNL     1      44.976 -12.047   6.710  1.00  0.00     0.185 C 
BRANCH   7   8
HETATM    8  C   UNL     1      44.992 -11.048   7.864  1.00  0.00     0.231 C 
HETATM    9  N   UNL     1      43.767 -10.827   8.467  1.00  0.00    -0.326 N 
HETATM   10  H   UNL     1      42.984 -11.316   8.052  1.00  0.00     0.169 HD
HETATM   11  O   UNL     1      46.067 -10.585   8.245  1.00  0.00    -0.272 OA
BRANCH   9  12
HETATM   12  C   UNL     1      43.469  -9.954   9.533  1.00  0.00     0.037 A 
HETATM   13  C   UNL     1      43.228 -10.386  10.843  1.00  0.00     0.061 A 
HETATM   14  C   UNL     1      42.964  -9.418  11.784  1.00  0.00     0.065 A 
HETATM   15  C   UNL     1      42.929  -8.061  11.473  1.00  0.00     0.063 A 
HETATM   16  N   UNL     1      42.700  -9.550  13.144  1.00  0.00    -0.306 N 
HETATM   17  N   UNL     1      42.644  -7.359  12.638  1.00  0.00    -0.307 N 
HETATM   18  C   UNL     1      43.160  -7.600  10.202  1.00  0.00     0.034 A 
HETATM   19  C   UNL     1      42.500  -8.275  13.692  1.00  0.00     0.325 A 
HETATM   20  H   UNL     1      42.555  -6.364  12.749  1.00  0.00     0.170 HD
HETATM   21  O   UNL     1      42.251  -8.009  14.854  1.00  0.00    -0.247 OA
HETATM   22  C   UNL     1      43.434  -8.567   9.225  1.00  0.00     0.032 A 
HETATM   23  H   UNL     1      42.661 -10.406  13.673  1.00  0.00     0.170 HD
ENDBRANCH   9  12
ENDBRANCH   7   8
ENDBRANCH   6   7
ENDBRANCH   3   6
BRANCH   2  24
HETATM   24  C   UNL     1      42.098 -14.154   3.842  1.00  0.00     0.043 A 
HETATM   25  C   UNL     1      41.265 -15.201   4.260  1.00  0.00     0.032 A 
HETATM   26  C   UNL     1      41.439 -16.487   3.737  1.00  0.00     0.026 A 
HETATM   27  C   UNL     1      42.441 -16.728   2.800  1.00  0.00     0.034 A 
HETATM   28 CL   UNL     1      42.651 -18.310   2.162  1.00  0.00    -0.084 Cl
HETATM   29  C   UNL     1      43.275 -15.694   2.381  1.00  0.00     0.026 A 
HETATM   30  C   UNL     1      43.107 -14.407   2.901  1.00  0.00     0.032 A 
ENDBRANCH   2  24
BRANCH   1  31
HETATM   31  C   UNL     1      40.345 -11.798   2.646  1.00  0.00     0.012 A 
HETATM   32  C   UNL     1      38.943 -11.758   2.698  1.00  0.00     0.015 A 
HETATM   33  C   UNL     1      38.188 -11.713   1.525  1.00  0.00     0.001 A 
HETATM   34  C   UNL     1      38.826 -11.698   0.286  1.00  0.00     0.000 A 
HETATM   35  C   UNL     1      40.217 -11.716   0.220  1.00  0.00     0.001 A 
HETATM   36  C   UNL     1      40.975 -11.757   1.394  1.00  0.00     0.015 A 
ENDBRANCH   1  31
TORSDOF 6
ENDMDL
