MODEL 1
REMARK VINA RESULT:      -8.6      0.000      0.000
REMARK  4 active torsions:
REMARK  status: ('A' for Active; 'I' for Inactive)
REMARK    1  A    between atoms: C_3  and  C_4 
REMARK       I    between atoms: C_4  and  N_5 
REMARK    2  A    between atoms: N_5  and  C_6 
REMARK    3  A    between atoms: C_6  and  C_7 
REMARK    4  A    between atoms: C_23  and  O_24 
ROOT
HETATM    1  C   UNL     1      42.948 -13.391   4.290  1.00  0.00     0.276 C 
HETATM    2  N   UNL     1      42.190 -12.993   5.367  1.00  0.00    -0.348 N 
HETATM    3  O   UNL     1      43.404 -12.563   3.504  1.00  0.00    -0.265 OA
HETATM    4  H   UNL     1      41.815 -13.678   6.016  1.00  0.00     0.163 HD
ENDROOT
BRANCH   1   5
HETATM    5  C   UNL     1      43.157 -14.822   4.166  1.00  0.00     0.150 A 
HETATM    6  C   UNL     1      43.174 -15.655   3.053  1.00  0.00    -0.009 A 
HETATM    7  C   UNL     1      42.973 -15.291   1.625  1.00  0.00     0.052 C 
HETATM    8  C   UNL     1      43.434 -16.971   3.544  1.00  0.00     0.009 A 
HETATM    9  C   UNL     1      43.554 -16.855   4.919  1.00  0.00     0.087 A 
HETATM   10  C   UNL     1      43.580 -18.245   2.966  1.00  0.00     0.051 A 
HETATM   11  O   UNL     1      43.387 -15.560   5.302  1.00  0.00    -0.304 OA
HETATM   12  C   UNL     1      43.811 -17.927   5.770  1.00  0.00     0.041 A 
HETATM   13  C   UNL     1      43.953 -19.190   5.171  1.00  0.00     0.039 A 
HETATM   14  C   UNL     1      43.840 -19.353   3.787  1.00  0.00     0.069 A 
BRANCH  14  15
HETATM   15  O   UNL     1      43.961 -20.535   3.105  1.00  0.00    -0.356 OA
HETATM   16  C   UNL     1      43.612 -20.529   1.728  1.00  0.00     0.210 C 
ENDBRANCH  14  15
ENDBRANCH   1   5
BRANCH   2  17
HETATM   17  C   UNL     1      41.918 -11.598   5.578  1.00  0.00     0.201 C 
BRANCH  17  18
HETATM   18  C   UNL     1      42.717 -11.067   6.715  1.00  0.00     0.123 A 
HETATM   19  N   UNL     1      44.013 -11.190   6.936  1.00  0.00    -0.232 NA
HETATM   20  C   UNL     1      44.251 -10.520   8.114  1.00  0.00     0.085 A 
HETATM   21  C   UNL     1      43.077  -9.977   8.624  1.00  0.00     0.062 A 
HETATM   22  C   UNL     1      45.449 -10.330   8.818  1.00  0.00     0.034 A 
HETATM   23  N   UNL     1      42.118 -10.339   7.716  1.00  0.00    -0.341 N 
HETATM   24  C   UNL     1      43.018  -9.242   9.809  1.00  0.00     0.032 A 
HETATM   25  H   UNL     1      41.136 -10.108   7.773  1.00  0.00     0.167 HD
HETATM   26  C   UNL     1      44.222  -9.062  10.497  1.00  0.00     0.002 A 
HETATM   27  C   UNL     1      45.420  -9.596  10.012  1.00  0.00     0.002 A 
ENDBRANCH  17  18
ENDBRANCH   2  17
TORSDOF 4
ENDMDL
MODEL 2
REMARK VINA RESULT:      -8.5      1.218      2.035
REMARK  4 active torsions:
REMARK  status: ('A' for Active; 'I' for Inactive)
REMARK    1  A    between atoms: C_3  and  C_4 
REMARK       I    between atoms: C_4  and  N_5 
REMARK    2  A    between atoms: N_5  and  C_6 
REMARK    3  A    between atoms: C_6  and  C_7 
REMARK    4  A    between atoms: C_23  and  O_24 
ROOT
HETATM    1  C   UNL     1      42.379 -13.416   5.334  1.00  0.00     0.276 C 
HETATM    2  N   UNL     1      43.200 -12.423   4.853  1.00  0.00    -0.348 N 
HETATM    3  O   UNL     1      41.399 -13.141   6.025  1.00  0.00    -0.265 OA
HETATM    4  H   UNL     1      44.008 -12.652   4.282  1.00  0.00     0.163 HD
ENDROOT
BRANCH   1   5
HETATM    5  C   UNL     1      42.754 -14.770   4.970  1.00  0.00     0.150 A 
HETATM    6  C   UNL     1      43.192 -15.841   5.741  1.00  0.00    -0.009 A 
HETATM    7  C   UNL     1      43.404 -15.894   7.212  1.00  0.00     0.052 C 
HETATM    8  C   UNL     1      43.404 -16.924   4.834  1.00  0.00     0.009 A 
HETATM    9  C   UNL     1      43.087 -16.443   3.574  1.00  0.00     0.087 A 
HETATM   10  C   UNL     1      43.831 -18.260   4.951  1.00  0.00     0.051 A 
HETATM   11  O   UNL     1      42.695 -15.143   3.648  1.00  0.00    -0.304 OA
HETATM   12  C   UNL     1      43.166 -17.203   2.410  1.00  0.00     0.041 A 
HETATM   13  C   UNL     1      43.593 -18.533   2.550  1.00  0.00     0.039 A 
HETATM   14  C   UNL     1      43.923 -19.061   3.802  1.00  0.00     0.069 A 
BRANCH  14  15
HETATM   15  O   UNL     1      44.349 -20.339   4.049  1.00  0.00    -0.356 OA
HETATM   16  C   UNL     1      44.074 -20.879   5.334  1.00  0.00     0.210 C 
ENDBRANCH  14  15
ENDBRANCH   1   5
BRANCH   2  17
HETATM   17  C   UNL     1      42.921 -11.047   5.161  1.00  0.00     0.201 C 
BRANCH  17  18
HETATM   18  C   UNL     1      43.431 -10.691   6.513  1.00  0.00     0.123 A 
HETATM   19  N   UNL     1      44.682 -10.637   6.931  1.00  0.00    -0.232 NA
HETATM   20  C   UNL     1      44.612 -10.259   8.252  1.00  0.00     0.085 A 
HETATM   21  C   UNL     1      43.293 -10.078   8.649  1.00  0.00     0.062 A 
HETATM   22  C   UNL     1      45.638 -10.046   9.184  1.00  0.00     0.034 A 
HETATM   23  N   UNL     1      42.562 -10.360   7.526  1.00  0.00    -0.341 N 
HETATM   24  C   UNL     1      42.921  -9.692   9.939  1.00  0.00     0.032 A 
HETATM   25  H   UNL     1      41.555 -10.327   7.456  1.00  0.00     0.167 HD
HETATM   26  C   UNL     1      43.958  -9.485  10.855  1.00  0.00     0.002 A 
HETATM   27  C   UNL     1      45.295  -9.658  10.487  1.00  0.00     0.002 A 
ENDBRANCH  17  18
ENDBRANCH   2  17
TORSDOF 4
ENDMDL
MODEL 3
REMARK VINA RESULT:      -8.0      4.794      8.810
REMARK  4 active torsions:
REMARK  status: ('A' for Active; 'I' for Inactive)
REMARK    1  A    between atoms: C_3  and  C_4 
REMARK       I    between atoms: C_4  and  N_5 
REMARK    2  A    between atoms: N_5  and  C_6 
REMARK    3  A    between atoms: C_6  and  C_7 
REMARK    4  A    between atoms: C_23  and  O_24 
ROOT
HETATM    1  C   UNL     1      40.885 -13.968   2.686  1.00  0.00     0.276 C 
HETATM    2  N   UNL     1      42.211 -14.289   2.506  1.00  0.00    -0.348 N 
HETATM    3  O   UNL     1      40.383 -13.985   3.809  1.00  0.00    -0.265 OA
HETATM    4  H   UNL     1      42.624 -14.273   1.578  1.00  0.00     0.163 HD
ENDROOT
BRANCH   1   5
HETATM    5  C   UNL     1      40.155 -13.620   1.480  1.00  0.00     0.150 A 
HETATM    6  C   UNL     1      39.415 -12.490   1.149  1.00  0.00    -0.009 A 
HETATM    7  C   UNL     1      39.158 -11.280   1.974  1.00  0.00     0.052 C 
HETATM    8  C   UNL     1      38.933 -12.705  -0.178  1.00  0.00     0.009 A 
HETATM    9  C   UNL     1      39.406 -13.949  -0.565  1.00  0.00     0.087 A 
HETATM   10  C   UNL     1      38.147 -11.976  -1.090  1.00  0.00     0.051 A 
HETATM   11  O   UNL     1      40.143 -14.507   0.432  1.00  0.00    -0.304 OA
HETATM   12  C   UNL     1      39.148 -14.526  -1.807  1.00  0.00     0.041 A 
HETATM   13  C   UNL     1      38.362 -13.781  -2.700  1.00  0.00     0.039 A 
HETATM   14  C   UNL     1      37.865 -12.521  -2.352  1.00  0.00     0.069 A 
BRANCH  14  15
HETATM   15  O   UNL     1      37.092 -11.714  -3.145  1.00  0.00    -0.356 OA
HETATM   16  C   UNL     1      36.409 -10.641  -2.511  1.00  0.00     0.210 C 
ENDBRANCH  14  15
ENDBRANCH   1   5
BRANCH   2  17
HETATM   17  C   UNL     1      43.022 -14.654   3.634  1.00  0.00     0.201 C 
BRANCH  17  18
HETATM   18  C   UNL     1      43.255 -16.123   3.667  1.00  0.00     0.123 A 
HETATM   19  N   UNL     1      43.671 -16.867   4.676  1.00  0.00    -0.232 NA
HETATM   20  C   UNL     1      43.718 -18.153   4.190  1.00  0.00     0.085 A 
HETATM   21  C   UNL     1      43.324 -18.197   2.858  1.00  0.00     0.062 A 
HETATM   22  C   UNL     1      44.090 -19.346   4.828  1.00  0.00     0.034 A 
HETATM   23  N   UNL     1      43.035 -16.895   2.549  1.00  0.00    -0.341 N 
HETATM   24  C   UNL     1      43.274 -19.373   2.106  1.00  0.00     0.032 A 
HETATM   25  H   UNL     1      42.714 -16.559   1.653  1.00  0.00     0.167 HD
HETATM   26  C   UNL     1      43.647 -20.552   2.759  1.00  0.00     0.002 A 
HETATM   27  C   UNL     1      44.049 -20.541   4.098  1.00  0.00     0.002 A 
ENDBRANCH  17  18
ENDBRANCH   2  17
TORSDOF 4
ENDMDL
MODEL 4
REMARK VINA RESULT:      -7.9      1.858      2.821
REMARK  4 active torsions:
REMARK  status: ('A' for Active; 'I' for Inactive)
REMARK    1  A    between atoms: C_3  and  C_4 
REMARK       I    between atoms: C_4  and  N_5 
REMARK    2  A    between atoms: N_5  and  C_6 
REMARK    3  A    between atoms: C_6  and  C_7 
REMARK    4  A    between atoms: C_23  and  O_24 
ROOT
HETATM    1  C   UNL     1      40.667 -12.694   5.869  1.00  0.00     0.276 C 
HETATM    2  N   UNL     1      41.370 -11.516   5.751  1.00  0.00    -0.348 N 
HETATM    3  O   UNL     1      39.587 -12.722   6.455  1.00  0.00    -0.265 OA
HETATM    4  H   UNL     1      42.261 -11.494   5.265  1.00  0.00     0.163 HD
ENDROOT
BRANCH   1   5
HETATM    5  C   UNL     1      41.289 -13.857   5.263  1.00  0.00     0.150 A 
HETATM    6  C   UNL     1      42.415 -14.588   5.623  1.00  0.00    -0.009 A 
HETATM    7  C   UNL     1      43.328 -14.369   6.776  1.00  0.00     0.052 C 
HETATM    8  C   UNL     1      42.539 -15.631   4.655  1.00  0.00     0.009 A 
HETATM    9  C   UNL     1      41.486 -15.465   3.770  1.00  0.00     0.087 A 
HETATM   10  C   UNL     1      43.431 -16.697   4.439  1.00  0.00     0.051 A 
HETATM   11  O   UNL     1      40.728 -14.395   4.130  1.00  0.00    -0.304 OA
HETATM   12  C   UNL     1      41.257 -16.291   2.672  1.00  0.00     0.041 A 
HETATM   13  C   UNL     1      42.160 -17.348   2.476  1.00  0.00     0.039 A 
HETATM   14  C   UNL     1      43.236 -17.554   3.345  1.00  0.00     0.069 A 
BRANCH  14  15
HETATM   15  O   UNL     1      44.171 -18.550   3.244  1.00  0.00    -0.356 OA
HETATM   16  C   UNL     1      43.812 -19.706   2.500  1.00  0.00     0.210 C 
ENDBRANCH  14  15
ENDBRANCH   1   5
BRANCH   2  17
HETATM   17  C   UNL     1      40.846 -10.305   6.321  1.00  0.00     0.201 C 
BRANCH  17  18
HETATM   18  C   UNL     1      41.591  -9.932   7.553  1.00  0.00     0.123 A 
HETATM   19  N   UNL     1      41.218  -9.119   8.524  1.00  0.00    -0.232 NA
HETATM   20  C   UNL     1      42.260  -9.118   9.423  1.00  0.00     0.085 A 
HETATM   21  C   UNL     1      43.290  -9.946   8.993  1.00  0.00     0.062 A 
HETATM   22  C   UNL     1      42.402  -8.432  10.638  1.00  0.00     0.034 A 
HETATM   23  N   UNL     1      42.840 -10.451   7.802  1.00  0.00    -0.341 N 
HETATM   24  C   UNL     1      44.474 -10.140   9.707  1.00  0.00     0.032 A 
HETATM   25  H   UNL     1      43.342 -11.097   7.209  1.00  0.00     0.167 HD
HETATM   26  C   UNL     1      44.598  -9.448  10.916  1.00  0.00     0.002 A 
HETATM   27  C   UNL     1      43.580  -8.607  11.377  1.00  0.00     0.002 A 
ENDBRANCH  17  18
ENDBRANCH   2  17
TORSDOF 4
ENDMDL
MODEL 5
REMARK VINA RESULT:      -7.9      2.457      8.732
REMARK  4 active torsions:
REMARK  status: ('A' for Active; 'I' for Inactive)
REMARK    1  A    between atoms: C_3  and  C_4 
REMARK       I    between atoms: C_4  and  N_5 
REMARK    2  A    between atoms: N_5  and  C_6 
REMARK    3  A    between atoms: C_6  and  C_7 
REMARK    4  A    between atoms: C_23  and  O_24 
ROOT
HETATM    1  C   UNL     1      42.046 -13.415   4.696  1.00  0.00     0.276 C 
HETATM    2  N   UNL     1      42.834 -13.858   3.659  1.00  0.00    -0.348 N 
HETATM    3  O   UNL     1      40.906 -13.850   4.848  1.00  0.00    -0.265 OA
HETATM    4  H   UNL     1      43.775 -13.499   3.535  1.00  0.00     0.163 HD
ENDROOT
BRANCH   1   5
HETATM    5  C   UNL     1      42.655 -12.425   5.565  1.00  0.00     0.150 A 
HETATM    6  C   UNL     1      42.120 -11.317   6.212  1.00  0.00    -0.009 A 
HETATM    7  C   UNL     1      40.718 -10.823   6.188  1.00  0.00     0.052 C 
HETATM    8  C   UNL     1      43.197 -10.719   6.936  1.00  0.00     0.009 A 
HETATM    9  C   UNL     1      44.314 -11.497   6.680  1.00  0.00     0.087 A 
HETATM   10  C   UNL     1      43.339  -9.602   7.780  1.00  0.00     0.051 A 
HETATM   11  O   UNL     1      43.995 -12.528   5.852  1.00  0.00    -0.304 OA
HETATM   12  C   UNL     1      45.577 -11.239   7.208  1.00  0.00     0.041 A 
HETATM   13  C   UNL     1      45.696 -10.120   8.048  1.00  0.00     0.039 A 
HETATM   14  C   UNL     1      44.594  -9.308   8.334  1.00  0.00     0.069 A 
BRANCH  14  15
HETATM   15  O   UNL     1      44.601  -8.197   9.136  1.00  0.00    -0.356 OA
HETATM   16  C   UNL     1      43.401  -7.893   9.834  1.00  0.00     0.210 C 
ENDBRANCH  14  15
ENDBRANCH   1   5
BRANCH   2  17
HETATM   17  C   UNL     1      42.324 -14.835   2.735  1.00  0.00     0.201 C 
BRANCH  17  18
HETATM   18  C   UNL     1      42.782 -16.202   3.100  1.00  0.00     0.123 A 
HETATM   19  N   UNL     1      43.255 -16.628   4.257  1.00  0.00    -0.232 NA
HETATM   20  C   UNL     1      43.530 -17.964   4.073  1.00  0.00     0.085 A 
HETATM   21  C   UNL     1      43.218 -18.362   2.779  1.00  0.00     0.062 A 
HETATM   22  C   UNL     1      44.049 -18.910   4.969  1.00  0.00     0.034 A 
HETATM   23  N   UNL     1      42.746 -17.224   2.181  1.00  0.00    -0.341 N 
HETATM   24  C   UNL     1      43.393 -19.665   2.309  1.00  0.00     0.032 A 
HETATM   25  H   UNL     1      42.424 -17.150   1.227  1.00  0.00     0.167 HD
HETATM   26  C   UNL     1      43.911 -20.595   3.216  1.00  0.00     0.002 A 
HETATM   27  C   UNL     1      44.235 -20.226   4.525  1.00  0.00     0.002 A 
ENDBRANCH  17  18
ENDBRANCH   2  17
TORSDOF 4
ENDMDL
MODEL 6
REMARK VINA RESULT:      -7.7      2.632      8.663
REMARK  4 active torsions:
REMARK  status: ('A' for Active; 'I' for Inactive)
REMARK    1  A    between atoms: C_3  and  C_4 
REMARK       I    between atoms: C_4  and  N_5 
REMARK    2  A    between atoms: N_5  and  C_6 
REMARK    3  A    between atoms: C_6  and  C_7 
REMARK    4  A    between atoms: C_23  and  O_24 
ROOT
HETATM    1  C   UNL     1      43.452 -11.831   4.196  1.00  0.00     0.276 C 
HETATM    2  N   UNL     1      42.621 -12.887   3.898  1.00  0.00    -0.348 N 
HETATM    3  O   UNL     1      44.307 -11.460   3.394  1.00  0.00    -0.265 OA
HETATM    4  H   UNL     1      41.915 -13.191   4.560  1.00  0.00     0.163 HD
ENDROOT
BRANCH   1   5
HETATM    5  C   UNL     1      43.238 -11.213   5.492  1.00  0.00     0.150 A 
HETATM    6  C   UNL     1      44.079 -11.065   6.589  1.00  0.00    -0.009 A 
HETATM    7  C   UNL     1      45.487 -11.520   6.740  1.00  0.00     0.052 C 
HETATM    8  C   UNL     1      43.323 -10.368   7.580  1.00  0.00     0.009 A 
HETATM    9  C   UNL     1      42.073 -10.141   7.025  1.00  0.00     0.087 A 
HETATM   10  C   UNL     1      43.567  -9.906   8.886  1.00  0.00     0.051 A 
HETATM   11  O   UNL     1      42.015 -10.650   5.765  1.00  0.00    -0.304 OA
HETATM   12  C   UNL     1      41.039  -9.482   7.685  1.00  0.00     0.041 A 
HETATM   13  C   UNL     1      41.305  -9.030   8.987  1.00  0.00     0.039 A 
HETATM   14  C   UNL     1      42.552  -9.236   9.586  1.00  0.00     0.069 A 
BRANCH  14  15
HETATM   15  O   UNL     1      42.915  -8.837  10.845  1.00  0.00    -0.356 OA
HETATM   16  C   UNL     1      43.371  -9.843  11.739  1.00  0.00     0.210 C 
ENDBRANCH  14  15
ENDBRANCH   1   5
BRANCH   2  17
HETATM   17  C   UNL     1      42.754 -13.573   2.642  1.00  0.00     0.201 C 
BRANCH  17  18
HETATM   18  C   UNL     1      43.024 -15.021   2.853  1.00  0.00     0.123 A 
HETATM   19  N   UNL     1      42.951 -16.006   1.978  1.00  0.00    -0.232 NA
HETATM   20  C   UNL     1      43.298 -17.142   2.673  1.00  0.00     0.085 A 
HETATM   21  C   UNL     1      43.588 -16.845   3.999  1.00  0.00     0.062 A 
HETATM   22  C   UNL     1      43.390 -18.473   2.239  1.00  0.00     0.034 A 
HETATM   23  N   UNL     1      43.405 -15.491   4.088  1.00  0.00    -0.341 N 
HETATM   24  C   UNL     1      43.970 -17.804   4.939  1.00  0.00     0.032 A 
HETATM   25  H   UNL     1      43.532 -14.933   4.921  1.00  0.00     0.167 HD
HETATM   26  C   UNL     1      44.056 -19.125   4.488  1.00  0.00     0.002 A 
HETATM   27  C   UNL     1      43.772 -19.457   3.160  1.00  0.00     0.002 A 
ENDBRANCH  17  18
ENDBRANCH   2  17
TORSDOF 4
ENDMDL
MODEL 7
REMARK VINA RESULT:      -7.6      2.467      8.614
REMARK  4 active torsions:
REMARK  status: ('A' for Active; 'I' for Inactive)
REMARK    1  A    between atoms: C_3  and  C_4 
REMARK       I    between atoms: C_4  and  N_5 
REMARK    2  A    between atoms: N_5  and  C_6 
REMARK    3  A    between atoms: C_6  and  C_7 
REMARK    4  A    between atoms: C_23  and  O_24 
ROOT
HETATM    1  C   UNL     1      42.015 -14.018   4.321  1.00  0.00     0.276 C 
HETATM    2  N   UNL     1      42.925 -14.347   3.343  1.00  0.00    -0.348 N 
HETATM    3  O   UNL     1      40.892 -14.519   4.327  1.00  0.00    -0.265 OA
HETATM    4  H   UNL     1      43.852 -13.934   3.340  1.00  0.00     0.163 HD
ENDROOT
BRANCH   1   5
HETATM    5  C   UNL     1      42.478 -13.064   5.312  1.00  0.00     0.150 A 
HETATM    6  C   UNL     1      43.379 -13.195   6.363  1.00  0.00    -0.009 A 
HETATM    7  C   UNL     1      44.144 -14.401   6.777  1.00  0.00     0.052 C 
HETATM    8  C   UNL     1      43.444 -11.916   6.994  1.00  0.00     0.009 A 
HETATM    9  C   UNL     1      42.579 -11.092   6.291  1.00  0.00     0.087 A 
HETATM   10  C   UNL     1      44.145 -11.371   8.086  1.00  0.00     0.051 A 
HETATM   11  O   UNL     1      41.991 -11.779   5.275  1.00  0.00    -0.304 OA
HETATM   12  C   UNL     1      42.359  -9.752   6.601  1.00  0.00     0.041 A 
HETATM   13  C   UNL     1      43.069  -9.230   7.694  1.00  0.00     0.039 A 
HETATM   14  C   UNL     1      43.953 -10.024   8.431  1.00  0.00     0.069 A 
BRANCH  14  15
HETATM   15  O   UNL     1      44.692  -9.616   9.509  1.00  0.00    -0.356 OA
HETATM   16  C   UNL     1      44.257 -10.042  10.794  1.00  0.00     0.210 C 
ENDBRANCH  14  15
ENDBRANCH   1   5
BRANCH   2  17
HETATM   17  C   UNL     1      42.564 -15.279   2.310  1.00  0.00     0.201 C 
BRANCH  17  18
HETATM   18  C   UNL     1      42.926 -16.669   2.698  1.00  0.00     0.123 A 
HETATM   19  N   UNL     1      42.894 -17.763   1.960  1.00  0.00    -0.232 NA
HETATM   20  C   UNL     1      43.325 -18.777   2.785  1.00  0.00     0.085 A 
HETATM   21  C   UNL     1      43.626 -18.293   4.053  1.00  0.00     0.062 A 
HETATM   22  C   UNL     1      43.487 -20.145   2.524  1.00  0.00     0.034 A 
HETATM   23  N   UNL     1      43.363 -16.951   3.972  1.00  0.00    -0.341 N 
HETATM   24  C   UNL     1      44.087 -19.097   5.097  1.00  0.00     0.032 A 
HETATM   25  H   UNL     1      43.474 -16.283   4.721  1.00  0.00     0.167 HD
HETATM   26  C   UNL     1      44.243 -20.459   4.818  1.00  0.00     0.002 A 
HETATM   27  C   UNL     1      43.949 -20.977   3.553  1.00  0.00     0.002 A 
ENDBRANCH  17  18
ENDBRANCH   2  17
TORSDOF 4
ENDMDL
MODEL 8
REMARK VINA RESULT:      -7.6      2.487      3.147
REMARK  4 active torsions:
REMARK  status: ('A' for Active; 'I' for Inactive)
REMARK    1  A    between atoms: C_3  and  C_4 
REMARK       I    between atoms: C_4  and  N_5 
REMARK    2  A    between atoms: N_5  and  C_6 
REMARK    3  A    between atoms: C_6  and  C_7 
REMARK    4  A    between atoms: C_23  and  O_24 
ROOT
HETATM    1  C   UNL     1      39.995 -13.421   3.528  1.00  0.00     0.276 C 
HETATM    2  N   UNL     1      39.849 -12.855   4.773  1.00  0.00    -0.348 N 
HETATM    3  O   UNL     1      39.420 -12.943   2.551  1.00  0.00    -0.265 OA
HETATM    4  H   UNL     1      40.325 -13.249   5.579  1.00  0.00     0.163 HD
ENDROOT
BRANCH   1   5
HETATM    5  C   UNL     1      40.855 -14.588   3.467  1.00  0.00     0.150 A 
HETATM    6  C   UNL     1      40.903 -15.648   2.569  1.00  0.00    -0.009 A 
HETATM    7  C   UNL     1      40.050 -15.886   1.375  1.00  0.00     0.052 C 
HETATM    8  C   UNL     1      41.963 -16.498   3.012  1.00  0.00     0.009 A 
HETATM    9  C   UNL     1      42.487 -15.903   4.149  1.00  0.00     0.087 A 
HETATM   10  C   UNL     1      42.532 -17.705   2.567  1.00  0.00     0.051 A 
HETATM   11  O   UNL     1      41.822 -14.751   4.431  1.00  0.00    -0.304 OA
HETATM   12  C   UNL     1      43.546 -16.431   4.884  1.00  0.00     0.041 A 
HETATM   13  C   UNL     1      44.098 -17.637   4.421  1.00  0.00     0.039 A 
HETATM   14  C   UNL     1      43.601 -18.271   3.278  1.00  0.00     0.069 A 
BRANCH  14  15
HETATM   15  O   UNL     1      44.065 -19.444   2.744  1.00  0.00    -0.356 OA
HETATM   16  C   UNL     1      43.161 -20.198   1.949  1.00  0.00     0.210 C 
ENDBRANCH  14  15
ENDBRANCH   1   5
BRANCH   2  17
HETATM   17  C   UNL     1      39.013 -11.698   4.944  1.00  0.00     0.201 C 
BRANCH  17  18
HETATM   18  C   UNL     1      39.312 -11.012   6.230  1.00  0.00     0.123 A 
HETATM   19  N   UNL     1      38.592 -10.989   7.336  1.00  0.00    -0.232 NA
HETATM   20  C   UNL     1      39.307 -10.221   8.226  1.00  0.00     0.085 A 
HETATM   21  C   UNL     1      40.488  -9.765   7.652  1.00  0.00     0.062 A 
HETATM   22  C   UNL     1      39.013  -9.865   9.550  1.00  0.00     0.034 A 
HETATM   23  N   UNL     1      40.467 -10.280   6.384  1.00  0.00    -0.341 N 
HETATM   24  C   UNL     1      41.413  -8.963   8.324  1.00  0.00     0.032 A 
HETATM   25  H   UNL     1      41.181 -10.147   5.682  1.00  0.00     0.167 HD
HETATM   26  C   UNL     1      41.103  -8.619   9.643  1.00  0.00     0.002 A 
HETATM   27  C   UNL     1      39.924  -9.061  10.249  1.00  0.00     0.002 A 
ENDBRANCH  17  18
ENDBRANCH   2  17
TORSDOF 4
ENDMDL
MODEL 9
REMARK VINA RESULT:      -7.5      3.142      4.937
REMARK  4 active torsions:
REMARK  status: ('A' for Active; 'I' for Inactive)
REMARK    1  A    between atoms: C_3  and  C_4 
REMARK       I    between atoms: C_4  and  N_5 
REMARK    2  A    between atoms: N_5  and  C_6 
REMARK    3  A    between atoms: C_6  and  C_7 
REMARK    4  A    between atoms: C_23  and  O_24 
ROOT
HETATM    1  C   UNL     1      41.611 -14.571   4.563  1.00  0.00     0.276 C 
HETATM    2  N   UNL     1      42.438 -13.616   5.108  1.00  0.00    -0.348 N 
HETATM    3  O   UNL     1      41.333 -15.592   5.190  1.00  0.00    -0.265 OA
HETATM    4  H   UNL     1      42.666 -12.773   4.589  1.00  0.00     0.163 HD
ENDROOT
BRANCH   1   5
HETATM    5  C   UNL     1      41.112 -14.281   3.231  1.00  0.00     0.150 A 
HETATM    6  C   UNL     1      41.322 -14.918   2.013  1.00  0.00    -0.009 A 
HETATM    7  C   UNL     1      42.149 -16.121   1.731  1.00  0.00     0.052 C 
HETATM    8  C   UNL     1      40.566 -14.187   1.046  1.00  0.00     0.009 A 
HETATM    9  C   UNL     1      39.952 -13.154   1.735  1.00  0.00     0.087 A 
HETATM   10  C   UNL     1      40.340 -14.294  -0.339  1.00  0.00     0.051 A 
HETATM   11  O   UNL     1      40.279 -13.203   3.054  1.00  0.00    -0.304 OA
HETATM   12  C   UNL     1      39.121 -12.208   1.138  1.00  0.00     0.041 A 
HETATM   13  C   UNL     1      38.909 -12.334  -0.244  1.00  0.00     0.039 A 
HETATM   14  C   UNL     1      39.508 -13.362  -0.979  1.00  0.00     0.069 A 
BRANCH  14  15
HETATM   15  O   UNL     1      39.368 -13.575  -2.325  1.00  0.00    -0.356 OA
HETATM   16  C   UNL     1      38.766 -14.796  -2.730  1.00  0.00     0.210 C 
ENDBRANCH  14  15
ENDBRANCH   1   5
BRANCH   2  17
HETATM   17  C   UNL     1      42.992 -13.808   6.420  1.00  0.00     0.201 C 
BRANCH  17  18
HETATM   18  C   UNL     1      43.684 -12.578   6.890  1.00  0.00     0.123 A 
HETATM   19  N   UNL     1      44.976 -12.305   6.873  1.00  0.00    -0.232 NA
HETATM   20  C   UNL     1      45.094 -11.046   7.415  1.00  0.00     0.085 A 
HETATM   21  C   UNL     1      43.849 -10.538   7.769  1.00  0.00     0.062 A 
HETATM   22  C   UNL     1      46.236 -10.263   7.637  1.00  0.00     0.034 A 
HETATM   23  N   UNL     1      42.971 -11.531   7.426  1.00  0.00    -0.341 N 
HETATM   24  C   UNL     1      43.664  -9.279   8.342  1.00  0.00     0.032 A 
HETATM   25  H   UNL     1      41.969 -11.498   7.546  1.00  0.00     0.167 HD
HETATM   26  C   UNL     1      44.814  -8.512   8.557  1.00  0.00     0.002 A 
HETATM   27  C   UNL     1      46.080  -8.993   8.211  1.00  0.00     0.002 A 
ENDBRANCH  17  18
ENDBRANCH   2  17
TORSDOF 4
ENDMDL
MODEL 10
REMARK VINA RESULT:      -7.4     16.174     18.594
REMARK  4 active torsions:
REMARK  status: ('A' for Active; 'I' for Inactive)
REMARK    1  A    between atoms: C_3  and  C_4 
REMARK       I    between atoms: C_4  and  N_5 
REMARK    2  A    between atoms: N_5  and  C_6 
REMARK    3  A    between atoms: C_6  and  C_7 
REMARK    4  A    between atoms: C_23  and  O_24 
ROOT
HETATM    1  C   UNL     1      47.757 -28.638   1.935  1.00  0.00     0.276 C 
HETATM    2  N   UNL     1      48.266 -28.771   0.663  1.00  0.00    -0.348 N 
HETATM    3  O   UNL     1      46.904 -27.788   2.183  1.00  0.00    -0.265 OA
HETATM    4  H   UNL     1      48.970 -29.474   0.459  1.00  0.00     0.163 HD
ENDROOT
BRANCH   1   5
HETATM    5  C   UNL     1      48.294 -29.556   2.923  1.00  0.00     0.150 A 
HETATM    6  C   UNL     1      47.681 -30.540   3.691  1.00  0.00    -0.009 A 
HETATM    7  C   UNL     1      46.248 -30.936   3.711  1.00  0.00     0.052 C 
HETATM    8  C   UNL     1      48.714 -31.128   4.483  1.00  0.00     0.009 A 
HETATM    9  C   UNL     1      49.883 -30.464   4.150  1.00  0.00     0.087 A 
HETATM   10  C   UNL     1      48.779 -32.152   5.445  1.00  0.00     0.051 A 
HETATM   11  O   UNL     1      49.637 -29.512   3.209  1.00  0.00    -0.304 OA
HETATM   12  C   UNL     1      51.125 -30.748   4.712  1.00  0.00     0.041 A 
HETATM   13  C   UNL     1      51.166 -31.774   5.670  1.00  0.00     0.039 A 
HETATM   14  C   UNL     1      50.011 -32.471   6.036  1.00  0.00     0.069 A 
BRANCH  14  15
HETATM   15  O   UNL     1      49.941 -33.485   6.955  1.00  0.00    -0.356 OA
HETATM   16  C   UNL     1      49.245 -33.217   8.165  1.00  0.00     0.210 C 
ENDBRANCH  14  15
ENDBRANCH   1   5
BRANCH   2  17
HETATM   17  C   UNL     1      47.807 -27.906  -0.389  1.00  0.00     0.201 C 
BRANCH  17  18
HETATM   18  C   UNL     1      46.904 -28.636  -1.320  1.00  0.00     0.123 A 
HETATM   19  N   UNL     1      46.408 -29.853  -1.197  1.00  0.00    -0.232 NA
HETATM   20  C   UNL     1      45.636 -30.051  -2.319  1.00  0.00     0.085 A 
HETATM   21  C   UNL     1      45.662 -28.933  -3.144  1.00  0.00     0.062 A 
HETATM   22  C   UNL     1      44.878 -31.165  -2.707  1.00  0.00     0.034 A 
HETATM   23  N   UNL     1      46.475 -28.048  -2.487  1.00  0.00    -0.341 N 
HETATM   24  C   UNL     1      44.968 -28.850  -4.353  1.00  0.00     0.032 A 
HETATM   25  H   UNL     1      46.716 -27.121  -2.806  1.00  0.00     0.167 HD
HETATM   26  C   UNL     1      44.218 -29.970  -4.724  1.00  0.00     0.002 A 
HETATM   27  C   UNL     1      44.171 -31.110  -3.917  1.00  0.00     0.002 A 
ENDBRANCH  17  18
ENDBRANCH   2  17
TORSDOF 4
ENDMDL
