MODEL 1
REMARK VINA RESULT:      -9.0      0.000      0.000
REMARK  7 active torsions:
REMARK  status: ('A' for Active; 'I' for Inactive)
REMARK    1  A    between atoms: C_2  and  C_3 
REMARK    2  A    between atoms: C_4  and  N_5 
REMARK       I    between atoms: N_5  and  C_6 
REMARK    3  A    between atoms: C_6  and  C_7 
REMARK    4  A    between atoms: C_8  and  N_9 
REMARK       I    between atoms: N_9  and  C_10 
REMARK    5  A    between atoms: C_10  and  C_11 
REMARK    6  A    between atoms: C_11  and  N_12 
REMARK    7  A    between atoms: C_25  and  C_26 
ROOT
HETATM    1  C   UNL     1      42.255 -13.524   2.906  1.00  0.00     0.073 A 
HETATM    2  C   UNL     1      42.789 -12.474   3.626  1.00  0.00     0.093 A 
HETATM    3  S   UNL     1      42.471 -10.949   2.957  1.00  0.00    -0.075 SA
HETATM    4  C   UNL     1      41.755 -11.653   1.591  1.00  0.00    -0.008 A 
HETATM    5  C   UNL     1      41.667 -13.031   1.676  1.00  0.00    -0.026 A 
HETATM    6  C   UNL     1      40.921 -13.831   0.645  1.00  0.00     0.041 C 
HETATM    7  C   UNL     1      40.450 -12.991  -0.558  1.00  0.00     0.010 C 
HETATM    8  C   UNL     1      40.070 -11.509  -0.270  1.00  0.00    -0.002 C 
HETATM    9  C   UNL     1      41.248 -10.821   0.461  1.00  0.00     0.052 C 
ENDROOT
BRANCH   1  10
HETATM   10  C   UNL     1      42.185 -14.896   3.421  1.00  0.00     0.259 C 
HETATM   11  N   UNL     1      43.326 -15.636   3.189  1.00  0.00    -0.322 N 
HETATM   12  H   UNL     1      44.163 -15.105   3.008  1.00  0.00     0.169 HD
HETATM   13  O   UNL     1      41.195 -15.279   4.037  1.00  0.00    -0.267 OA
BRANCH  11  14
HETATM   14  C   UNL     1      43.455 -17.037   3.330  1.00  0.00     0.041 A 
HETATM   15  C   UNL     1      44.006 -17.581   4.511  1.00  0.00    -0.032 A 
HETATM   16  C   UNL     1      44.199 -18.975   4.597  1.00  0.00     0.009 A 
HETATM   17  C   UNL     1      43.865 -19.815   3.536  1.00  0.00     0.001 A 
HETATM   18  C   UNL     1      43.318 -19.276   2.378  1.00  0.00     0.002 A 
HETATM   19  C   UNL     1      43.111 -17.898   2.278  1.00  0.00     0.030 A 
BRANCH  15  20
HETATM   20  C   UNL     1      44.295 -16.760   5.747  1.00  0.00     0.036 C 
HETATM   21  C   UNL     1      43.127 -16.808   6.725  1.00  0.00     0.010 C 
ENDBRANCH  15  20
ENDBRANCH  11  14
ENDBRANCH   1  10
BRANCH   2  22
HETATM   22  N   UNL     1      43.548 -12.388   4.772  1.00  0.00    -0.319 N 
HETATM   23  C   UNL     1      42.933 -12.199   5.991  1.00  0.00     0.248 C 
HETATM   24  O   UNL     1      41.722 -12.091   6.191  1.00  0.00    -0.271 OA
HETATM   25  H   UNL     1      44.443 -12.861   4.716  1.00  0.00     0.169 HD
BRANCH  23  26
HETATM   26  C   UNL     1      43.856 -12.379   7.195  1.00  0.00     0.337 C 
BRANCH  26  27
HETATM   27  N   UNL     1      44.363 -11.011   7.660  1.00  0.00    -0.059 N 
HETATM   28  H   UNL     1      43.887 -10.335   7.037  1.00  0.00     0.280 HD
HETATM   29  C   UNL     1      43.934 -10.675   9.085  1.00  0.00     0.261 C 
HETATM   30  C   UNL     1      44.462  -9.289   9.471  1.00  0.00     0.195 C 
HETATM   31  O   UNL     1      45.884  -9.228   9.322  1.00  0.00    -0.388 OA
HETATM   32  C   UNL     1      46.283  -9.452   7.965  1.00  0.00     0.195 C 
HETATM   33  C   UNL     1      45.860 -10.848   7.493  1.00  0.00     0.261 C 
ENDBRANCH  26  27
ENDBRANCH  23  26
ENDBRANCH   2  22
BRANCH   8  34
HETATM   34  C   UNL     1      38.636 -11.255   0.341  1.00  0.00    -0.047 C 
HETATM   35  C   UNL     1      38.392 -11.915   1.707  1.00  0.00     0.015 C 
HETATM   36  C   UNL     1      38.378  -9.738   0.507  1.00  0.00     0.015 C 
HETATM   37  C   UNL     1      37.563 -11.787  -0.639  1.00  0.00     0.015 C 
ENDBRANCH   8  34
TORSDOF 7
ENDMDL
MODEL 2
REMARK VINA RESULT:      -8.8      3.279      7.042
REMARK  7 active torsions:
REMARK  status: ('A' for Active; 'I' for Inactive)
REMARK    1  A    between atoms: C_2  and  C_3 
REMARK    2  A    between atoms: C_4  and  N_5 
REMARK       I    between atoms: N_5  and  C_6 
REMARK    3  A    between atoms: C_6  and  C_7 
REMARK    4  A    between atoms: C_8  and  N_9 
REMARK       I    between atoms: N_9  and  C_10 
REMARK    5  A    between atoms: C_10  and  C_11 
REMARK    6  A    between atoms: C_11  and  N_12 
REMARK    7  A    between atoms: C_25  and  C_26 
ROOT
HETATM    1  C   UNL     1      42.007 -14.482   2.518  1.00  0.00     0.073 A 
HETATM    2  C   UNL     1      41.562 -13.578   1.574  1.00  0.00     0.093 A 
HETATM    3  S   UNL     1      41.076 -12.089   2.222  1.00  0.00    -0.075 SA
HETATM    4  C   UNL     1      41.285 -12.664   3.804  1.00  0.00    -0.008 A 
HETATM    5  C   UNL     1      41.810 -13.942   3.850  1.00  0.00    -0.026 A 
HETATM    6  C   UNL     1      42.221 -14.572   5.151  1.00  0.00     0.041 C 
HETATM    7  C   UNL     1      41.833 -13.734   6.385  1.00  0.00     0.010 C 
HETATM    8  C   UNL     1      41.838 -12.187   6.210  1.00  0.00    -0.002 C 
HETATM    9  C   UNL     1      40.961 -11.817   4.989  1.00  0.00     0.052 C 
ENDROOT
BRANCH   1  10
HETATM   10  C   UNL     1      42.706 -15.725   2.173  1.00  0.00     0.259 C 
HETATM   11  N   UNL     1      42.223 -16.836   2.831  1.00  0.00    -0.322 N 
HETATM   12  H   UNL     1      41.287 -16.755   3.198  1.00  0.00     0.169 HD
HETATM   13  O   UNL     1      43.599 -15.723   1.330  1.00  0.00    -0.267 OA
BRANCH  11  14
HETATM   14  C   UNL     1      42.848 -18.102   2.903  1.00  0.00     0.041 A 
HETATM   15  C   UNL     1      43.783 -18.371   3.926  1.00  0.00    -0.032 A 
HETATM   16  C   UNL     1      44.453 -19.611   3.932  1.00  0.00     0.009 A 
HETATM   17  C   UNL     1      44.215 -20.563   2.942  1.00  0.00     0.001 A 
HETATM   18  C   UNL     1      43.290 -20.296   1.941  1.00  0.00     0.002 A 
HETATM   19  C   UNL     1      42.609 -19.077   1.924  1.00  0.00     0.030 A 
BRANCH  15  20
HETATM   20  C   UNL     1      44.025 -17.444   5.096  1.00  0.00     0.036 C 
HETATM   21  C   UNL     1      43.336 -17.957   6.356  1.00  0.00     0.010 C 
ENDBRANCH  15  20
ENDBRANCH  11  14
ENDBRANCH   1  10
BRANCH   2  22
HETATM   22  N   UNL     1      41.405 -13.624   0.207  1.00  0.00    -0.319 N 
HETATM   23  C   UNL     1      40.421 -14.415  -0.346  1.00  0.00     0.248 C 
HETATM   24  O   UNL     1      39.623 -15.126   0.267  1.00  0.00    -0.271 OA
HETATM   25  H   UNL     1      41.730 -12.795  -0.278  1.00  0.00     0.169 HD
BRANCH  23  26
HETATM   26  C   UNL     1      40.187 -14.179  -1.837  1.00  0.00     0.337 C 
BRANCH  26  27
HETATM   27  N   UNL     1      39.977 -12.684  -2.092  1.00  0.00    -0.059 N 
HETATM   28  H   UNL     1      40.149 -12.240  -1.173  1.00  0.00     0.280 HD
HETATM   29  C   UNL     1      41.001 -12.101  -3.061  1.00  0.00     0.261 C 
HETATM   30  C   UNL     1      40.739 -10.604  -3.253  1.00  0.00     0.195 C 
HETATM   31  O   UNL     1      39.400 -10.377  -3.703  1.00  0.00    -0.388 OA
HETATM   32  C   UNL     1      38.437 -10.840  -2.750  1.00  0.00     0.195 C 
HETATM   33  C   UNL     1      38.566 -12.352  -2.531  1.00  0.00     0.261 C 
ENDBRANCH  26  27
ENDBRANCH  23  26
ENDBRANCH   2  22
BRANCH   8  34
HETATM   34  C   UNL     1      43.243 -11.474   6.293  1.00  0.00    -0.047 C 
HETATM   35  C   UNL     1      43.942 -11.267   4.940  1.00  0.00     0.015 C 
HETATM   36  C   UNL     1      43.108 -10.084   6.961  1.00  0.00     0.015 C 
HETATM   37  C   UNL     1      44.188 -12.310   7.189  1.00  0.00     0.015 C 
ENDBRANCH   8  34
TORSDOF 7
ENDMDL
MODEL 3
REMARK VINA RESULT:      -8.4      2.570      6.661
REMARK  7 active torsions:
REMARK  status: ('A' for Active; 'I' for Inactive)
REMARK    1  A    between atoms: C_2  and  C_3 
REMARK    2  A    between atoms: C_4  and  N_5 
REMARK       I    between atoms: N_5  and  C_6 
REMARK    3  A    between atoms: C_6  and  C_7 
REMARK    4  A    between atoms: C_8  and  N_9 
REMARK       I    between atoms: N_9  and  C_10 
REMARK    5  A    between atoms: C_10  and  C_11 
REMARK    6  A    between atoms: C_11  and  N_12 
REMARK    7  A    between atoms: C_25  and  C_26 
ROOT
HETATM    1  C   UNL     1      42.397 -12.673   5.238  1.00  0.00     0.073 A 
HETATM    2  C   UNL     1      42.953 -12.922   6.477  1.00  0.00     0.093 A 
HETATM    3  S   UNL     1      43.001 -14.564   6.894  1.00  0.00    -0.075 SA
HETATM    4  C   UNL     1      42.124 -14.983   5.504  1.00  0.00    -0.008 A 
HETATM    5  C   UNL     1      41.875 -13.904   4.676  1.00  0.00    -0.026 A 
HETATM    6  C   UNL     1      41.255 -14.087   3.319  1.00  0.00     0.041 C 
HETATM    7  C   UNL     1      40.782 -15.529   3.052  1.00  0.00     0.010 C 
HETATM    8  C   UNL     1      41.611 -16.670   3.711  1.00  0.00    -0.002 C 
HETATM    9  C   UNL     1      41.726 -16.395   5.230  1.00  0.00     0.052 C 
ENDROOT
BRANCH   1  10
HETATM   10  C   UNL     1      42.480 -11.371   4.568  1.00  0.00     0.259 C 
HETATM   11  N   UNL     1      41.362 -10.583   4.742  1.00  0.00    -0.322 N 
HETATM   12  H   UNL     1      40.782 -10.815   5.533  1.00  0.00     0.169 HD
HETATM   13  O   UNL     1      43.498 -11.046   3.963  1.00  0.00    -0.267 OA
BRANCH  11  14
HETATM   14  C   UNL     1      41.045  -9.412   4.017  1.00  0.00     0.041 A 
HETATM   15  C   UNL     1      40.562  -9.507   2.694  1.00  0.00    -0.032 A 
HETATM   16  C   UNL     1      40.328  -8.324   1.964  1.00  0.00     0.009 A 
HETATM   17  C   UNL     1      40.575  -7.072   2.523  1.00  0.00     0.001 A 
HETATM   18  C   UNL     1      41.045  -6.982   3.827  1.00  0.00     0.002 A 
HETATM   19  C   UNL     1      41.273  -8.142   4.570  1.00  0.00     0.030 A 
BRANCH  15  20
HETATM   20  C   UNL     1      40.165 -10.815   2.047  1.00  0.00     0.036 C 
HETATM   21  C   UNL     1      41.172 -11.228   0.980  1.00  0.00     0.010 C 
ENDBRANCH  15  20
ENDBRANCH  11  14
ENDBRANCH   1  10
BRANCH   2  22
HETATM   22  N   UNL     1      43.468 -12.121   7.472  1.00  0.00    -0.319 N 
HETATM   23  C   UNL     1      44.753 -11.636   7.368  1.00  0.00     0.248 C 
HETATM   24  O   UNL     1      45.541 -11.843   6.443  1.00  0.00    -0.271 OA
HETATM   25  H   UNL     1      42.769 -11.613   8.003  1.00  0.00     0.169 HD
BRANCH  23  26
HETATM   26  C   UNL     1      45.108 -10.564   8.397  1.00  0.00     0.337 C 
BRANCH  26  27
HETATM   27  N   UNL     1      43.905 -10.315   9.312  1.00  0.00    -0.059 N 
HETATM   28  H   UNL     1      43.252 -11.089   9.094  1.00  0.00     0.280 HD
HETATM   29  C   UNL     1      44.254 -10.435  10.792  1.00  0.00     0.261 C 
HETATM   30  C   UNL     1      43.001 -10.191  11.640  1.00  0.00     0.195 C 
HETATM   31  O   UNL     1      42.424  -8.917  11.337  1.00  0.00    -0.388 OA
HETATM   32  C   UNL     1      42.010  -8.836   9.969  1.00  0.00     0.195 C 
HETATM   33  C   UNL     1      43.207  -9.001   9.025  1.00  0.00     0.261 C 
ENDBRANCH  26  27
ENDBRANCH  23  26
ENDBRANCH   2  22
BRANCH   8  34
HETATM   34  C   UNL     1      42.949 -17.080   2.980  1.00  0.00    -0.047 C 
HETATM   35  C   UNL     1      43.479 -16.045   1.976  1.00  0.00     0.015 C 
HETATM   36  C   UNL     1      44.073 -17.341   4.013  1.00  0.00     0.015 C 
HETATM   37  C   UNL     1      42.727 -18.407   2.216  1.00  0.00     0.015 C 
ENDBRANCH   8  34
TORSDOF 7
ENDMDL
MODEL 4
REMARK VINA RESULT:      -8.1      2.316      6.568
REMARK  7 active torsions:
REMARK  status: ('A' for Active; 'I' for Inactive)
REMARK    1  A    between atoms: C_2  and  C_3 
REMARK    2  A    between atoms: C_4  and  N_5 
REMARK       I    between atoms: N_5  and  C_6 
REMARK    3  A    between atoms: C_6  and  C_7 
REMARK    4  A    between atoms: C_8  and  N_9 
REMARK       I    between atoms: N_9  and  C_10 
REMARK    5  A    between atoms: C_10  and  C_11 
REMARK    6  A    between atoms: C_11  and  N_12 
REMARK    7  A    between atoms: C_25  and  C_26 
ROOT
HETATM    1  C   UNL     1      41.466 -12.431   3.919  1.00  0.00     0.073 A 
HETATM    2  C   UNL     1      41.594 -12.436   5.294  1.00  0.00     0.093 A 
HETATM    3  S   UNL     1      41.531 -13.982   5.986  1.00  0.00    -0.075 SA
HETATM    4  C   UNL     1      41.161 -14.682   4.486  1.00  0.00    -0.008 A 
HETATM    5  C   UNL     1      41.177 -13.771   3.446  1.00  0.00    -0.026 A 
HETATM    6  C   UNL     1      41.035 -14.215   2.017  1.00  0.00     0.041 C 
HETATM    7  C   UNL     1      40.698 -15.712   1.872  1.00  0.00     0.010 C 
HETATM    8  C   UNL     1      41.287 -16.669   2.950  1.00  0.00    -0.002 C 
HETATM    9  C   UNL     1      40.898 -16.145   4.354  1.00  0.00     0.052 C 
ENDROOT
BRANCH   1  10
HETATM   10  C   UNL     1      41.742 -11.251   3.092  1.00  0.00     0.259 C 
HETATM   11  N   UNL     1      40.618 -10.714   2.499  1.00  0.00    -0.322 N 
HETATM   12  H   UNL     1      39.739 -10.954   2.929  1.00  0.00     0.169 HD
HETATM   13  O   UNL     1      42.879 -10.799   3.013  1.00  0.00    -0.267 OA
BRANCH  11  14
HETATM   14  C   UNL     1      40.600  -9.757   1.459  1.00  0.00     0.041 A 
HETATM   15  C   UNL     1      40.726 -10.169   0.115  1.00  0.00    -0.032 A 
HETATM   16  C   UNL     1      40.786  -9.192  -0.898  1.00  0.00     0.009 A 
HETATM   17  C   UNL     1      40.732  -7.833  -0.593  1.00  0.00     0.001 A 
HETATM   18  C   UNL     1      40.602  -7.431   0.731  1.00  0.00     0.002 A 
HETATM   19  C   UNL     1      40.532  -8.385   1.748  1.00  0.00     0.030 A 
BRANCH  15  20
HETATM   20  C   UNL     1      40.683 -11.618  -0.317  1.00  0.00     0.036 C 
HETATM   21  C   UNL     1      39.253 -12.069  -0.586  1.00  0.00     0.010 C 
ENDBRANCH  15  20
ENDBRANCH  11  14
ENDBRANCH   1  10
BRANCH   2  22
HETATM   22  N   UNL     1      41.743 -11.450   6.244  1.00  0.00    -0.319 N 
HETATM   23  C   UNL     1      43.005 -11.037   6.613  1.00  0.00     0.248 C 
HETATM   24  O   UNL     1      44.074 -11.467   6.174  1.00  0.00    -0.271 OA
HETATM   25  H   UNL     1      40.955 -10.817   6.317  1.00  0.00     0.169 HD
BRANCH  23  26
HETATM   26  C   UNL     1      43.029  -9.775   7.474  1.00  0.00     0.337 C 
BRANCH  26  27
HETATM   27  N   UNL     1      42.768 -10.147   8.936  1.00  0.00    -0.059 N 
HETATM   28  H   UNL     1      42.275 -11.056   8.885  1.00  0.00     0.280 HD
HETATM   29  C   UNL     1      44.052 -10.385   9.723  1.00  0.00     0.261 C 
HETATM   30  C   UNL     1      43.712 -10.768  11.167  1.00  0.00     0.195 C 
HETATM   31  O   UNL     1      42.897  -9.764  11.779  1.00  0.00    -0.388 OA
HETATM   32  C   UNL     1      41.649  -9.605  11.095  1.00  0.00     0.195 C 
HETATM   33  C   UNL     1      41.872  -9.153   9.647  1.00  0.00     0.261 C 
ENDBRANCH  26  27
ENDBRANCH  23  26
ENDBRANCH   2  22
BRANCH   8  34
HETATM   34  C   UNL     1      42.797 -17.092   2.766  1.00  0.00    -0.047 C 
HETATM   35  C   UNL     1      43.007 -18.539   2.293  1.00  0.00     0.015 C 
HETATM   36  C   UNL     1      43.500 -16.165   1.745  1.00  0.00     0.015 C 
HETATM   37  C   UNL     1      43.542 -16.922   4.111  1.00  0.00     0.015 C 
ENDBRANCH   8  34
TORSDOF 7
ENDMDL
MODEL 5
REMARK VINA RESULT:      -8.1      3.041      6.840
REMARK  7 active torsions:
REMARK  status: ('A' for Active; 'I' for Inactive)
REMARK    1  A    between atoms: C_2  and  C_3 
REMARK    2  A    between atoms: C_4  and  N_5 
REMARK       I    between atoms: N_5  and  C_6 
REMARK    3  A    between atoms: C_6  and  C_7 
REMARK    4  A    between atoms: C_8  and  N_9 
REMARK       I    between atoms: N_9  and  C_10 
REMARK    5  A    between atoms: C_10  and  C_11 
REMARK    6  A    between atoms: C_11  and  N_12 
REMARK    7  A    between atoms: C_25  and  C_26 
ROOT
HETATM    1  C   UNL     1      39.963 -12.509   3.742  1.00  0.00     0.073 A 
HETATM    2  C   UNL     1      40.363 -12.073   4.989  1.00  0.00     0.093 A 
HETATM    3  S   UNL     1      41.079 -13.277   5.943  1.00  0.00    -0.075 SA
HETATM    4  C   UNL     1      40.723 -14.463   4.784  1.00  0.00    -0.008 A 
HETATM    5  C   UNL     1      40.152 -13.944   3.637  1.00  0.00    -0.026 A 
HETATM    6  C   UNL     1      39.909 -14.802   2.428  1.00  0.00     0.041 C 
HETATM    7  C   UNL     1      40.188 -16.298   2.673  1.00  0.00     0.010 C 
HETATM    8  C   UNL     1      41.325 -16.641   3.680  1.00  0.00    -0.002 C 
HETATM    9  C   UNL     1      41.056 -15.899   5.013  1.00  0.00     0.052 C 
ENDROOT
BRANCH   1  10
HETATM   10  C   UNL     1      39.557 -11.600   2.665  1.00  0.00     0.259 C 
HETATM   11  N   UNL     1      38.485 -12.056   1.927  1.00  0.00    -0.322 N 
HETATM   12  H   UNL     1      37.909 -12.751   2.375  1.00  0.00     0.169 HD
HETATM   13  O   UNL     1      40.123 -10.521   2.515  1.00  0.00    -0.267 OA
BRANCH  11  14
HETATM   14  C   UNL     1      38.043 -11.537   0.688  1.00  0.00     0.041 A 
HETATM   15  C   UNL     1      38.722 -11.874  -0.502  1.00  0.00    -0.032 A 
HETATM   16  C   UNL     1      38.313 -11.283  -1.715  1.00  0.00     0.009 A 
HETATM   17  C   UNL     1      37.262 -10.369  -1.752  1.00  0.00     0.001 A 
HETATM   18  C   UNL     1      36.592 -10.044  -0.578  1.00  0.00     0.002 A 
HETATM   19  C   UNL     1      36.977 -10.627   0.631  1.00  0.00     0.030 A 
BRANCH  15  20
HETATM   20  C   UNL     1      39.799 -12.934  -0.573  1.00  0.00     0.036 C 
HETATM   21  C   UNL     1      39.276 -14.207  -1.227  1.00  0.00     0.010 C 
ENDBRANCH  15  20
ENDBRANCH  11  14
ENDBRANCH   1  10
BRANCH   2  22
HETATM   22  N   UNL     1      40.293 -10.866   5.647  1.00  0.00    -0.319 N 
HETATM   23  C   UNL     1      39.200 -10.575   6.436  1.00  0.00     0.248 C 
HETATM   24  O   UNL     1      38.226 -11.303   6.633  1.00  0.00    -0.271 OA
HETATM   25  H   UNL     1      41.193 -10.443   5.843  1.00  0.00     0.169 HD
BRANCH  23  26
HETATM   26  C   UNL     1      39.363  -9.329   7.304  1.00  0.00     0.337 C 
BRANCH  26  27
HETATM   27  N   UNL     1      39.999  -9.716   8.642  1.00  0.00    -0.059 N 
HETATM   28  H   UNL     1      40.124 -10.742   8.579  1.00  0.00     0.280 HD
HETATM   29  C   UNL     1      41.388  -9.114   8.832  1.00  0.00     0.261 C 
HETATM   30  C   UNL     1      41.965  -9.558  10.180  1.00  0.00     0.195 C 
HETATM   31  O   UNL     1      41.086  -9.201  11.251  1.00  0.00    -0.388 OA
HETATM   32  C   UNL     1      39.811  -9.840  11.123  1.00  0.00     0.195 C 
HETATM   33  C   UNL     1      39.109  -9.410   9.829  1.00  0.00     0.261 C 
ENDBRANCH  26  27
ENDBRANCH  23  26
ENDBRANCH   2  22
BRANCH   8  34
HETATM   34  C   UNL     1      42.802 -16.558   3.130  1.00  0.00    -0.047 C 
HETATM   35  C   UNL     1      43.078 -15.366   2.200  1.00  0.00     0.015 C 
HETATM   36  C   UNL     1      43.813 -16.476   4.300  1.00  0.00     0.015 C 
HETATM   37  C   UNL     1      43.128 -17.852   2.347  1.00  0.00     0.015 C 
ENDBRANCH   8  34
TORSDOF 7
ENDMDL
MODEL 6
REMARK VINA RESULT:      -7.9      3.510      7.286
REMARK  7 active torsions:
REMARK  status: ('A' for Active; 'I' for Inactive)
REMARK    1  A    between atoms: C_2  and  C_3 
REMARK    2  A    between atoms: C_4  and  N_5 
REMARK       I    between atoms: N_5  and  C_6 
REMARK    3  A    between atoms: C_6  and  C_7 
REMARK    4  A    between atoms: C_8  and  N_9 
REMARK       I    between atoms: N_9  and  C_10 
REMARK    5  A    between atoms: C_10  and  C_11 
REMARK    6  A    between atoms: C_11  and  N_12 
REMARK    7  A    between atoms: C_25  and  C_26 
ROOT
HETATM    1  C   UNL     1      40.276 -12.377   2.918  1.00  0.00     0.073 A 
HETATM    2  C   UNL     1      39.689 -11.701   1.867  1.00  0.00     0.093 A 
HETATM    3  S   UNL     1      38.774 -10.354   2.339  1.00  0.00    -0.075 SA
HETATM    4  C   UNL     1      38.994 -10.730   3.978  1.00  0.00    -0.008 A 
HETATM    5  C   UNL     1      39.832 -11.812   4.177  1.00  0.00    -0.026 A 
HETATM    6  C   UNL     1      40.284 -12.206   5.555  1.00  0.00     0.041 C 
HETATM    7  C   UNL     1      39.586 -11.414   6.678  1.00  0.00     0.010 C 
HETATM    8  C   UNL     1      39.196  -9.942   6.357  1.00  0.00    -0.002 C 
HETATM    9  C   UNL     1      38.359  -9.916   5.055  1.00  0.00     0.052 C 
ENDROOT
BRANCH   1  10
HETATM   10  C   UNL     1      41.306 -13.406   2.735  1.00  0.00     0.259 C 
HETATM   11  N   UNL     1      40.904 -14.668   3.121  1.00  0.00    -0.322 N 
HETATM   12  H   UNL     1      39.908 -14.816   3.166  1.00  0.00     0.169 HD
HETATM   13  O   UNL     1      42.389 -13.121   2.233  1.00  0.00    -0.267 OA
BRANCH  11  14
HETATM   14  C   UNL     1      41.743 -15.790   3.307  1.00  0.00     0.041 A 
HETATM   15  C   UNL     1      42.314 -16.045   4.572  1.00  0.00    -0.032 A 
HETATM   16  C   UNL     1      43.210 -17.124   4.714  1.00  0.00     0.009 A 
HETATM   17  C   UNL     1      43.546 -17.930   3.628  1.00  0.00     0.001 A 
HETATM   18  C   UNL     1      42.977 -17.679   2.385  1.00  0.00     0.002 A 
HETATM   19  C   UNL     1      42.080 -16.621   2.227  1.00  0.00     0.030 A 
BRANCH  15  20
HETATM   20  C   UNL     1      41.926 -15.293   5.825  1.00  0.00     0.036 C 
HETATM   21  C   UNL     1      42.116 -16.157   7.067  1.00  0.00     0.010 C 
ENDBRANCH  15  20
ENDBRANCH  11  14
ENDBRANCH   1  10
BRANCH   2  22
HETATM   22  N   UNL     1      39.665 -11.890   0.503  1.00  0.00    -0.319 N 
HETATM   23  C   UNL     1      40.610 -11.279  -0.293  1.00  0.00     0.248 C 
HETATM   24  O   UNL     1      41.522 -10.543   0.087  1.00  0.00    -0.271 OA
HETATM   25  H   UNL     1      39.231 -12.757   0.209  1.00  0.00     0.169 HD
BRANCH  23  26
HETATM   26  C   UNL     1      40.628 -11.771  -1.739  1.00  0.00     0.337 C 
BRANCH  26  27
HETATM   27  N   UNL     1      39.515 -12.801  -1.944  1.00  0.00    -0.059 N 
HETATM   28  H   UNL     1      39.201 -13.034  -0.985  1.00  0.00     0.280 HD
HETATM   29  C   UNL     1      38.306 -12.227  -2.676  1.00  0.00     0.261 C 
HETATM   30  C   UNL     1      37.231 -13.309  -2.828  1.00  0.00     0.195 C 
HETATM   31  O   UNL     1      37.758 -14.457  -3.500  1.00  0.00    -0.388 OA
HETATM   32  C   UNL     1      38.833 -15.052  -2.767  1.00  0.00     0.195 C 
HETATM   33  C   UNL     1      40.001 -14.071  -2.613  1.00  0.00     0.261 C 
ENDBRANCH  26  27
ENDBRANCH  23  26
ENDBRANCH   2  22
BRANCH   8  34
HETATM   34  C   UNL     1      40.351  -8.870   6.457  1.00  0.00    -0.047 C 
HETATM   35  C   UNL     1      41.774  -9.451   6.419  1.00  0.00     0.015 C 
HETATM   36  C   UNL     1      40.240  -7.844   5.304  1.00  0.00     0.015 C 
HETATM   37  C   UNL     1      40.200  -8.078   7.777  1.00  0.00     0.015 C 
ENDBRANCH   8  34
TORSDOF 7
ENDMDL
MODEL 7
REMARK VINA RESULT:      -7.8     16.636     18.484
REMARK  7 active torsions:
REMARK  status: ('A' for Active; 'I' for Inactive)
REMARK    1  A    between atoms: C_2  and  C_3 
REMARK    2  A    between atoms: C_4  and  N_5 
REMARK       I    between atoms: N_5  and  C_6 
REMARK    3  A    between atoms: C_6  and  C_7 
REMARK    4  A    between atoms: C_8  and  N_9 
REMARK       I    between atoms: N_9  and  C_10 
REMARK    5  A    between atoms: C_10  and  C_11 
REMARK    6  A    between atoms: C_11  and  N_12 
REMARK    7  A    between atoms: C_25  and  C_26 
ROOT
HETATM    1  C   UNL     1      45.740 -29.274   1.291  1.00  0.00     0.073 A 
HETATM    2  C   UNL     1      44.698 -29.973   1.868  1.00  0.00     0.093 A 
HETATM    3  S   UNL     1      43.436 -30.337   0.796  1.00  0.00    -0.075 SA
HETATM    4  C   UNL     1      44.164 -29.424  -0.433  1.00  0.00    -0.008 A 
HETATM    5  C   UNL     1      45.401 -28.922  -0.075  1.00  0.00    -0.026 A 
HETATM    6  C   UNL     1      46.280 -28.223  -1.074  1.00  0.00     0.041 C 
HETATM    7  C   UNL     1      45.591 -27.981  -2.431  1.00  0.00     0.010 C 
HETATM    8  C   UNL     1      44.555 -29.049  -2.889  1.00  0.00    -0.002 C 
HETATM    9  C   UNL     1      43.511 -29.251  -1.764  1.00  0.00     0.052 C 
ENDROOT
BRANCH   1  10
HETATM   10  C   UNL     1      47.035 -29.074   1.950  1.00  0.00     0.259 C 
HETATM   11  N   UNL     1      47.783 -30.227   2.068  1.00  0.00    -0.322 N 
HETATM   12  H   UNL     1      47.540 -30.972   1.435  1.00  0.00     0.169 HD
HETATM   13  O   UNL     1      47.389 -27.951   2.298  1.00  0.00    -0.267 OA
BRANCH  11  14
HETATM   14  C   UNL     1      48.932 -30.398   2.873  1.00  0.00     0.041 A 
HETATM   15  C   UNL     1      50.210 -30.454   2.278  1.00  0.00    -0.032 A 
HETATM   16  C   UNL     1      51.334 -30.704   3.092  1.00  0.00     0.009 A 
HETATM   17  C   UNL     1      51.198 -30.906   4.464  1.00  0.00     0.001 A 
HETATM   18  C   UNL     1      49.938 -30.844   5.047  1.00  0.00     0.002 A 
HETATM   19  C   UNL     1      48.815 -30.588   4.258  1.00  0.00     0.030 A 
BRANCH  15  20
HETATM   20  C   UNL     1      50.463 -30.141   0.820  1.00  0.00     0.036 C 
HETATM   21  C   UNL     1      51.164 -31.301   0.122  1.00  0.00     0.010 C 
ENDBRANCH  15  20
ENDBRANCH  11  14
ENDBRANCH   1  10
BRANCH   2  22
HETATM   22  N   UNL     1      44.444 -30.431   3.141  1.00  0.00    -0.319 N 
HETATM   23  C   UNL     1      44.939 -31.652   3.545  1.00  0.00     0.248 C 
HETATM   24  O   UNL     1      45.617 -32.426   2.868  1.00  0.00    -0.271 OA
HETATM   25  H   UNL     1      44.267 -29.699   3.820  1.00  0.00     0.169 HD
BRANCH  23  26
HETATM   26  C   UNL     1      44.806 -31.921   5.043  1.00  0.00     0.337 C 
BRANCH  26  27
HETATM   27  N   UNL     1      43.325 -31.928   5.432  1.00  0.00    -0.059 N 
HETATM   28  H   UNL     1      42.974 -31.004   5.126  1.00  0.00     0.280 HD
HETATM   29  C   UNL     1      42.520 -32.978   4.674  1.00  0.00     0.261 C 
HETATM   30  C   UNL     1      41.050 -32.913   5.103  1.00  0.00     0.195 C 
HETATM   31  O   UNL     1      40.927 -33.078   6.519  1.00  0.00    -0.388 OA
HETATM   32  C   UNL     1      41.605 -32.038   7.232  1.00  0.00     0.195 C 
HETATM   33  C   UNL     1      43.108 -32.054   6.927  1.00  0.00     0.261 C 
ENDBRANCH  26  27
ENDBRANCH  23  26
ENDBRANCH   2  22
BRANCH   8  34
HETATM   34  C   UNL     1      45.139 -30.366  -3.533  1.00  0.00    -0.047 C 
HETATM   35  C   UNL     1      46.609 -30.654  -3.191  1.00  0.00     0.015 C 
HETATM   36  C   UNL     1      44.311 -31.598  -3.094  1.00  0.00     0.015 C 
HETATM   37  C   UNL     1      45.023 -30.276  -5.074  1.00  0.00     0.015 C 
ENDBRANCH   8  34
TORSDOF 7
ENDMDL
MODEL 8
REMARK VINA RESULT:      -7.8      2.816      6.577
REMARK  7 active torsions:
REMARK  status: ('A' for Active; 'I' for Inactive)
REMARK    1  A    between atoms: C_2  and  C_3 
REMARK    2  A    between atoms: C_4  and  N_5 
REMARK       I    between atoms: N_5  and  C_6 
REMARK    3  A    between atoms: C_6  and  C_7 
REMARK    4  A    between atoms: C_8  and  N_9 
REMARK       I    between atoms: N_9  and  C_10 
REMARK    5  A    between atoms: C_10  and  C_11 
REMARK    6  A    between atoms: C_11  and  N_12 
REMARK    7  A    between atoms: C_25  and  C_26 
ROOT
HETATM    1  C   UNL     1      40.117 -12.343   3.010  1.00  0.00     0.073 A 
HETATM    2  C   UNL     1      40.375 -11.976   4.315  1.00  0.00     0.093 A 
HETATM    3  S   UNL     1      40.847 -13.263   5.312  1.00  0.00    -0.075 SA
HETATM    4  C   UNL     1      40.557 -14.382   4.071  1.00  0.00    -0.008 A 
HETATM    5  C   UNL     1      40.197 -13.785   2.877  1.00  0.00    -0.026 A 
HETATM    6  C   UNL     1      40.054 -14.587   1.614  1.00  0.00     0.041 C 
HETATM    7  C   UNL     1      40.170 -16.107   1.839  1.00  0.00     0.010 C 
HETATM    8  C   UNL     1      41.121 -16.576   2.979  1.00  0.00    -0.002 C 
HETATM    9  C   UNL     1      40.733 -15.848   4.289  1.00  0.00     0.052 C 
ENDROOT
BRANCH   1  10
HETATM   10  C   UNL     1      39.943 -11.373   1.923  1.00  0.00     0.259 C 
HETATM   11  N   UNL     1      40.785 -11.584   0.850  1.00  0.00    -0.322 N 
HETATM   12  H   UNL     1      41.169 -12.512   0.771  1.00  0.00     0.169 HD
HETATM   13  O   UNL     1      39.078 -10.506   1.994  1.00  0.00    -0.267 OA
BRANCH  11  14
HETATM   14  C   UNL     1      41.030 -10.680  -0.209  1.00  0.00     0.041 A 
HETATM   15  C   UNL     1      40.544 -10.959  -1.504  1.00  0.00    -0.032 A 
HETATM   16  C   UNL     1      40.868 -10.084  -2.560  1.00  0.00     0.009 A 
HETATM   17  C   UNL     1      41.664  -8.961  -2.346  1.00  0.00     0.001 A 
HETATM   18  C   UNL     1      42.136  -8.686  -1.068  1.00  0.00     0.002 A 
HETATM   19  C   UNL     1      41.817  -9.536  -0.008  1.00  0.00     0.030 A 
BRANCH  15  20
HETATM   20  C   UNL     1      39.588 -12.091  -1.807  1.00  0.00     0.036 C 
HETATM   21  C   UNL     1      40.332 -13.312  -2.337  1.00  0.00     0.010 C 
ENDBRANCH  15  20
ENDBRANCH  11  14
ENDBRANCH   1  10
BRANCH   2  22
HETATM   22  N   UNL     1      40.315 -10.784   5.003  1.00  0.00    -0.319 N 
HETATM   23  C   UNL     1      41.417  -9.957   5.041  1.00  0.00     0.248 C 
HETATM   24  O   UNL     1      42.507 -10.164   4.507  1.00  0.00    -0.271 OA
HETATM   25  H   UNL     1      39.381 -10.400   5.092  1.00  0.00     0.169 HD
BRANCH  23  26
HETATM   26  C   UNL     1      41.140  -8.566   5.611  1.00  0.00     0.337 C 
BRANCH  26  27
HETATM   27  N   UNL     1      41.943  -8.372   6.900  1.00  0.00    -0.059 N 
HETATM   28  H   UNL     1      42.910  -8.640   6.643  1.00  0.00     0.280 HD
HETATM   29  C   UNL     1      41.995  -6.915   7.349  1.00  0.00     0.261 C 
HETATM   30  C   UNL     1      42.827  -6.798   8.631  1.00  0.00     0.195 C 
HETATM   31  O   UNL     1      42.302  -7.647   9.656  1.00  0.00    -0.388 OA
HETATM   32  C   UNL     1      42.339  -9.026   9.271  1.00  0.00     0.195 C 
HETATM   33  C   UNL     1      41.477  -9.271   8.027  1.00  0.00     0.261 C 
ENDBRANCH  26  27
ENDBRANCH  23  26
ENDBRANCH   2  22
BRANCH   8  34
HETATM   34  C   UNL     1      42.662 -16.610   2.639  1.00  0.00    -0.047 C 
HETATM   35  C   UNL     1      43.089 -15.689   1.486  1.00  0.00     0.015 C 
HETATM   36  C   UNL     1      43.500 -16.217   3.880  1.00  0.00     0.015 C 
HETATM   37  C   UNL     1      43.070 -18.055   2.264  1.00  0.00     0.015 C 
ENDBRANCH   8  34
TORSDOF 7
ENDMDL
MODEL 9
REMARK VINA RESULT:      -7.7     16.757     18.375
REMARK  7 active torsions:
REMARK  status: ('A' for Active; 'I' for Inactive)
REMARK    1  A    between atoms: C_2  and  C_3 
REMARK    2  A    between atoms: C_4  and  N_5 
REMARK       I    between atoms: N_5  and  C_6 
REMARK    3  A    between atoms: C_6  and  C_7 
REMARK    4  A    between atoms: C_8  and  N_9 
REMARK       I    between atoms: N_9  and  C_10 
REMARK    5  A    between atoms: C_10  and  C_11 
REMARK    6  A    between atoms: C_11  and  N_12 
REMARK    7  A    between atoms: C_25  and  C_26 
ROOT
HETATM    1  C   UNL     1      45.367 -30.258   2.178  1.00  0.00     0.073 A 
HETATM    2  C   UNL     1      44.008 -30.126   2.386  1.00  0.00     0.093 A 
HETATM    3  S   UNL     1      43.197 -29.312   1.140  1.00  0.00    -0.075 SA
HETATM    4  C   UNL     1      44.663 -28.961   0.362  1.00  0.00    -0.008 A 
HETATM    5  C   UNL     1      45.757 -29.534   0.984  1.00  0.00    -0.026 A 
HETATM    6  C   UNL     1      47.125 -29.478   0.365  1.00  0.00     0.041 C 
HETATM    7  C   UNL     1      47.193 -28.589  -0.892  1.00  0.00     0.010 C 
HETATM    8  C   UNL     1      45.913 -28.532  -1.778  1.00  0.00    -0.002 C 
HETATM    9  C   UNL     1      44.704 -28.149  -0.890  1.00  0.00     0.052 C 
ENDROOT
BRANCH   1  10
HETATM   10  C   UNL     1      46.221 -31.136   2.986  1.00  0.00     0.259 C 
HETATM   11  N   UNL     1      47.043 -30.458   3.863  1.00  0.00    -0.322 N 
HETATM   12  H   UNL     1      46.758 -29.519   4.092  1.00  0.00     0.169 HD
HETATM   13  O   UNL     1      46.132 -32.356   2.886  1.00  0.00    -0.267 OA
BRANCH  11  14
HETATM   14  C   UNL     1      48.140 -31.002   4.569  1.00  0.00     0.041 A 
HETATM   15  C   UNL     1      49.458 -30.649   4.209  1.00  0.00    -0.032 A 
HETATM   16  C   UNL     1      50.538 -31.265   4.874  1.00  0.00     0.009 A 
HETATM   17  C   UNL     1      50.322 -32.218   5.867  1.00  0.00     0.001 A 
HETATM   18  C   UNL     1      49.023 -32.558   6.223  1.00  0.00     0.002 A 
HETATM   19  C   UNL     1      47.941 -31.952   5.582  1.00  0.00     0.030 A 
BRANCH  15  20
HETATM   20  C   UNL     1      49.784 -29.551   3.221  1.00  0.00     0.036 C 
HETATM   21  C   UNL     1      50.665 -30.071   2.091  1.00  0.00     0.010 C 
ENDBRANCH  15  20
ENDBRANCH  11  14
ENDBRANCH   1  10
BRANCH   2  22
HETATM   22  N   UNL     1      43.157 -30.496   3.402  1.00  0.00    -0.319 N 
HETATM   23  C   UNL     1      42.558 -31.737   3.380  1.00  0.00     0.248 C 
HETATM   24  O   UNL     1      42.698 -32.602   2.514  1.00  0.00    -0.271 OA
HETATM   25  H   UNL     1      43.329 -30.025   4.283  1.00  0.00     0.169 HD
BRANCH  23  26
HETATM   26  C   UNL     1      41.849 -32.117   4.679  1.00  0.00     0.337 C 
BRANCH  26  27
HETATM   27  N   UNL     1      42.739 -31.760   5.872  1.00  0.00    -0.059 N 
HETATM   28  H   UNL     1      43.078 -30.804   5.663  1.00  0.00     0.280 HD
HETATM   29  C   UNL     1      41.964 -31.675   7.183  1.00  0.00     0.261 C 
HETATM   30  C   UNL     1      42.916 -31.297   8.324  1.00  0.00     0.195 C 
HETATM   31  O   UNL     1      43.998 -32.230   8.411  1.00  0.00    -0.388 OA
HETATM   32  C   UNL     1      44.783 -32.242   7.214  1.00  0.00     0.195 C 
HETATM   33  C   UNL     1      43.939 -32.676   6.010  1.00  0.00     0.261 C 
ENDBRANCH  26  27
ENDBRANCH  23  26
ENDBRANCH   2  22
BRANCH   8  34
HETATM   34  C   UNL     1      45.687 -29.741  -2.767  1.00  0.00    -0.047 C 
HETATM   35  C   UNL     1      44.644 -30.769  -2.302  1.00  0.00     0.015 C 
HETATM   36  C   UNL     1      45.242 -29.228  -4.158  1.00  0.00     0.015 C 
HETATM   37  C   UNL     1      47.026 -30.488  -2.974  1.00  0.00     0.015 C 
ENDBRANCH   8  34
TORSDOF 7
ENDMDL
MODEL 10
REMARK VINA RESULT:      -7.7      3.442      7.169
REMARK  7 active torsions:
REMARK  status: ('A' for Active; 'I' for Inactive)
REMARK    1  A    between atoms: C_2  and  C_3 
REMARK    2  A    between atoms: C_4  and  N_5 
REMARK       I    between atoms: N_5  and  C_6 
REMARK    3  A    between atoms: C_6  and  C_7 
REMARK    4  A    between atoms: C_8  and  N_9 
REMARK       I    between atoms: N_9  and  C_10 
REMARK    5  A    between atoms: C_10  and  C_11 
REMARK    6  A    between atoms: C_11  and  N_12 
REMARK    7  A    between atoms: C_25  and  C_26 
ROOT
HETATM    1  C   UNL     1      40.142 -12.411   2.976  1.00  0.00     0.073 A 
HETATM    2  C   UNL     1      40.441 -11.962   4.247  1.00  0.00     0.093 A 
HETATM    3  S   UNL     1      40.970 -13.179   5.301  1.00  0.00    -0.075 SA
HETATM    4  C   UNL     1      40.654 -14.376   4.142  1.00  0.00    -0.008 A 
HETATM    5  C   UNL     1      40.241 -13.858   2.928  1.00  0.00    -0.026 A 
HETATM    6  C   UNL     1      40.066 -14.737   1.722  1.00  0.00     0.041 C 
HETATM    7  C   UNL     1      40.215 -16.239   2.033  1.00  0.00     0.010 C 
HETATM    8  C   UNL     1      41.215 -16.624   3.163  1.00  0.00    -0.002 C 
HETATM    9  C   UNL     1      40.862 -15.823   4.440  1.00  0.00     0.052 C 
ENDROOT
BRANCH   1  10
HETATM   10  C   UNL     1      39.913 -11.512   1.839  1.00  0.00     0.259 C 
HETATM   11  N   UNL     1      40.852 -11.634   0.836  1.00  0.00    -0.322 N 
HETATM   12  H   UNL     1      41.369 -12.499   0.824  1.00  0.00     0.169 HD
HETATM   13  O   UNL     1      38.930 -10.778   1.815  1.00  0.00    -0.267 OA
BRANCH  11  14
HETATM   14  C   UNL     1      41.044 -10.738  -0.240  1.00  0.00     0.041 A 
HETATM   15  C   UNL     1      40.640 -11.102  -1.543  1.00  0.00    -0.032 A 
HETATM   16  C   UNL     1      40.913 -10.227  -2.614  1.00  0.00     0.009 A 
HETATM   17  C   UNL     1      41.581  -9.021  -2.406  1.00  0.00     0.001 A 
HETATM   18  C   UNL     1      41.972  -8.664  -1.122  1.00  0.00     0.002 A 
HETATM   19  C   UNL     1      41.701  -9.514  -0.047  1.00  0.00     0.030 A 
BRANCH  15  20
HETATM   20  C   UNL     1      39.818 -12.335  -1.844  1.00  0.00     0.036 C 
HETATM   21  C   UNL     1      38.332 -12.070  -1.636  1.00  0.00     0.010 C 
ENDBRANCH  15  20
ENDBRANCH  11  14
ENDBRANCH   1  10
BRANCH   2  22
HETATM   22  N   UNL     1      40.386 -10.732   4.862  1.00  0.00    -0.319 N 
HETATM   23  C   UNL     1      41.466  -9.879   4.792  1.00  0.00     0.248 C 
HETATM   24  O   UNL     1      42.533 -10.095   4.215  1.00  0.00    -0.271 OA
HETATM   25  H   UNL     1      39.449 -10.363   4.977  1.00  0.00     0.169 HD
BRANCH  23  26
HETATM   26  C   UNL     1      41.184  -8.462   5.290  1.00  0.00     0.337 C 
BRANCH  26  27
HETATM   27  N   UNL     1      41.510  -7.456   4.184  1.00  0.00    -0.059 N 
HETATM   28  H   UNL     1      42.378  -7.820   3.753  1.00  0.00     0.280 HD
HETATM   29  C   UNL     1      40.453  -7.423   3.084  1.00  0.00     0.261 C 
HETATM   30  C   UNL     1      40.856  -6.410   2.008  1.00  0.00     0.195 C 
HETATM   31  O   UNL     1      41.059  -5.114   2.582  1.00  0.00    -0.388 OA
HETATM   32  C   UNL     1      42.116  -5.124   3.548  1.00  0.00     0.195 C 
HETATM   33  C   UNL     1      41.784  -6.063   4.713  1.00  0.00     0.261 C 
ENDBRANCH  26  27
ENDBRANCH  23  26
ENDBRANCH   2  22
BRANCH   8  34
HETATM   34  C   UNL     1      42.743 -16.656   2.770  1.00  0.00    -0.047 C 
HETATM   35  C   UNL     1      43.157 -15.627   1.706  1.00  0.00     0.015 C 
HETATM   36  C   UNL     1      43.630 -16.416   4.016  1.00  0.00     0.015 C 
HETATM   37  C   UNL     1      43.101 -18.062   2.230  1.00  0.00     0.015 C 
ENDBRANCH   8  34
TORSDOF 7
ENDMDL
