MODEL 1
REMARK VINA RESULT:      -8.6      0.000      0.000
REMARK  2 active torsions:
REMARK  status: ('A' for Active; 'I' for Inactive)
REMARK    1  A    between atoms: C_2  and  C_3 
REMARK    2  A    between atoms: C_6  and  C_7 
ROOT
HETATM    1  C   UNL     1      42.302 -15.029   1.645  1.00  0.00     0.197 C 
HETATM    2  N   UNL     1      42.321 -13.635   2.143  1.00  0.00    -0.345 N 
HETATM    3  C   UNL     1      41.613 -12.700   1.510  1.00  0.00     0.113 C 
HETATM    4  N   UNL     1      41.605 -11.444   1.935  1.00  0.00    -0.376 N 
HETATM    5  H   UNL     1      41.000 -10.786   1.458  1.00  0.00     0.161 HD
HETATM    6  C   UNL     1      40.815 -13.065   0.326  1.00  0.00     0.029 A 
HETATM    7  C   UNL     1      40.493 -14.422   0.198  1.00  0.00     0.025 A 
HETATM    8  N   UNL     1      40.954 -15.305   1.181  1.00  0.00    -0.267 NA
HETATM    9  C   UNL     1      40.360 -12.156  -0.641  1.00  0.00     0.019 A 
HETATM   10  C   UNL     1      39.539 -12.592  -1.684  1.00  0.00     0.025 A 
HETATM   11  C   UNL     1      39.163 -13.931  -1.756  1.00  0.00     0.035 A 
HETATM   12 CL   UNL     1      38.127 -14.461  -3.020  1.00  0.00    -0.084 Cl
HETATM   13  C   UNL     1      39.625 -14.845  -0.811  1.00  0.00     0.048 A 
HETATM   14  C   UNL     1      43.177 -13.288   3.292  1.00  0.00     0.128 C 
HETATM   15  C   UNL     1      43.600 -11.837   3.226  1.00  0.00     0.039 C 
HETATM   16  C   UNL     1      42.355 -10.998   3.104  1.00  0.00     0.123 C 
HETATM   17  H   UNL     1      40.858 -16.281   0.901  1.00  0.00     0.130 HD
ENDROOT
BRANCH   1  18
HETATM   18  C   UNL     1      42.654 -16.042   2.718  1.00  0.00    -0.021 A 
HETATM   19  C   UNL     1      42.098 -15.966   4.008  1.00  0.00     0.011 A 
HETATM   20  C   UNL     1      42.439 -16.900   4.989  1.00  0.00     0.007 A 
HETATM   21  C   UNL     1      43.341 -17.931   4.704  1.00  0.00    -0.059 A 
HETATM   22  C   UNL     1      43.889 -18.019   3.419  1.00  0.00     0.007 A 
HETATM   23  C   UNL     1      43.551 -17.086   2.437  1.00  0.00     0.011 A 
BRANCH  21  24
HETATM   24  C   UNL     1      43.687 -18.955   5.757  1.00  0.00     0.034 C 
HETATM   25  C   UNL     1      44.096 -20.285   5.140  1.00  0.00     0.010 C 
ENDBRANCH  21  24
ENDBRANCH   1  18
TORSDOF 2
ENDMDL
MODEL 2
REMARK VINA RESULT:      -8.4      1.771      1.943
REMARK  2 active torsions:
REMARK  status: ('A' for Active; 'I' for Inactive)
REMARK    1  A    between atoms: C_2  and  C_3 
REMARK    2  A    between atoms: C_6  and  C_7 
ROOT
HETATM    1  C   UNL     1      41.945 -15.025   2.435  1.00  0.00     0.197 C 
HETATM    2  N   UNL     1      41.131 -14.340   3.464  1.00  0.00    -0.345 N 
HETATM    3  C   UNL     1      40.132 -13.542   3.090  1.00  0.00     0.113 C 
HETATM    4  N   UNL     1      39.382 -12.919   3.989  1.00  0.00    -0.376 N 
HETATM    5  H   UNL     1      38.594 -12.376   3.655  1.00  0.00     0.161 HD
HETATM    6  C   UNL     1      39.844 -13.354   1.657  1.00  0.00     0.029 A 
HETATM    7  C   UNL     1      40.332 -14.347   0.799  1.00  0.00     0.025 A 
HETATM    8  N   UNL     1      41.049 -15.410   1.359  1.00  0.00    -0.267 NA
HETATM    9  C   UNL     1      39.117 -12.279   1.123  1.00  0.00     0.019 A 
HETATM   10  C   UNL     1      38.828 -12.237  -0.243  1.00  0.00     0.025 A 
HETATM   11  C   UNL     1      39.254 -13.270  -1.074  1.00  0.00     0.035 A 
HETATM   12 CL   UNL     1      38.871 -13.233  -2.749  1.00  0.00    -0.084 Cl
HETATM   13  C   UNL     1      39.993 -14.332  -0.556  1.00  0.00     0.048 A 
HETATM   14  C   UNL     1      41.481 -14.498   4.887  1.00  0.00     0.128 C 
HETATM   15  C   UNL     1      41.054 -13.285   5.683  1.00  0.00     0.039 C 
HETATM   16  C   UNL     1      39.587 -13.058   5.426  1.00  0.00     0.123 C 
HETATM   17  H   UNL     1      41.539 -15.961   0.656  1.00  0.00     0.130 HD
ENDROOT
BRANCH   1  18
HETATM   18  C   UNL     1      42.628 -16.274   2.958  1.00  0.00    -0.021 A 
HETATM   19  C   UNL     1      43.406 -16.246   4.130  1.00  0.00     0.011 A 
HETATM   20  C   UNL     1      44.037 -17.402   4.595  1.00  0.00     0.007 A 
HETATM   21  C   UNL     1      43.905 -18.611   3.903  1.00  0.00    -0.059 A 
HETATM   22  C   UNL     1      43.123 -18.648   2.742  1.00  0.00     0.007 A 
HETATM   23  C   UNL     1      42.492 -17.493   2.273  1.00  0.00     0.011 A 
BRANCH  21  24
HETATM   24  C   UNL     1      44.565 -19.865   4.421  1.00  0.00     0.034 C 
HETATM   25  C   UNL     1      43.845 -20.420   5.641  1.00  0.00     0.010 C 
ENDBRANCH  21  24
ENDBRANCH   1  18
TORSDOF 2
ENDMDL
MODEL 3
REMARK VINA RESULT:      -8.1      4.665      6.568
REMARK  2 active torsions:
REMARK  status: ('A' for Active; 'I' for Inactive)
REMARK    1  A    between atoms: C_2  and  C_3 
REMARK    2  A    between atoms: C_6  and  C_7 
ROOT
HETATM    1  C   UNL     1      42.956 -13.709   5.890  1.00  0.00     0.197 C 
HETATM    2  N   UNL     1      41.751 -12.875   5.684  1.00  0.00    -0.345 N 
HETATM    3  C   UNL     1      41.760 -11.599   6.071  1.00  0.00     0.113 C 
HETATM    4  N   UNL     1      40.698 -10.825   5.896  1.00  0.00    -0.376 N 
HETATM    5  H   UNL     1      40.777  -9.847   6.146  1.00  0.00     0.161 HD
HETATM    6  C   UNL     1      42.969 -11.033   6.694  1.00  0.00     0.029 A 
HETATM    7  C   UNL     1      44.165 -11.718   6.443  1.00  0.00     0.025 A 
HETATM    8  N   UNL     1      44.113 -12.867   5.647  1.00  0.00    -0.267 NA
HETATM    9  C   UNL     1      42.992  -9.873   7.483  1.00  0.00     0.019 A 
HETATM   10  C   UNL     1      44.207  -9.372   7.959  1.00  0.00     0.025 A 
HETATM   11  C   UNL     1      45.397 -10.020   7.639  1.00  0.00     0.035 A 
HETATM   12 CL   UNL     1      46.892  -9.385   8.198  1.00  0.00    -0.084 Cl
HETATM   13  C   UNL     1      45.382 -11.183   6.871  1.00  0.00     0.048 A 
HETATM   14  C   UNL     1      40.535 -13.485   5.117  1.00  0.00     0.128 C 
HETATM   15  C   UNL     1      39.297 -12.761   5.597  1.00  0.00     0.039 C 
HETATM   16  C   UNL     1      39.464 -11.299   5.277  1.00  0.00     0.123 C 
HETATM   17  H   UNL     1      44.975 -13.410   5.693  1.00  0.00     0.130 HD
ENDROOT
BRANCH   1  18
HETATM   18  C   UNL     1      43.020 -14.894   4.945  1.00  0.00    -0.021 A 
HETATM   19  C   UNL     1      43.145 -16.210   5.427  1.00  0.00     0.011 A 
HETATM   20  C   UNL     1      43.214 -17.290   4.545  1.00  0.00     0.007 A 
HETATM   21  C   UNL     1      43.157 -17.082   3.162  1.00  0.00    -0.059 A 
HETATM   22  C   UNL     1      43.020 -15.777   2.676  1.00  0.00     0.007 A 
HETATM   23  C   UNL     1      42.954 -14.694   3.556  1.00  0.00     0.011 A 
BRANCH  21  24
HETATM   24  C   UNL     1      43.203 -18.253   2.211  1.00  0.00     0.034 C 
HETATM   25  C   UNL     1      43.805 -19.489   2.864  1.00  0.00     0.010 C 
ENDBRANCH  21  24
ENDBRANCH   1  18
TORSDOF 2
ENDMDL
MODEL 4
REMARK VINA RESULT:      -8.1      2.881      6.627
REMARK  2 active torsions:
REMARK  status: ('A' for Active; 'I' for Inactive)
REMARK    1  A    between atoms: C_2  and  C_3 
REMARK    2  A    between atoms: C_6  and  C_7 
ROOT
HETATM    1  C   UNL     1      41.289 -15.117   3.176  1.00  0.00     0.197 C 
HETATM    2  N   UNL     1      42.111 -14.690   4.331  1.00  0.00    -0.345 N 
HETATM    3  C   UNL     1      43.041 -15.512   4.816  1.00  0.00     0.113 C 
HETATM    4  N   UNL     1      43.797 -15.156   5.846  1.00  0.00    -0.376 N 
HETATM    5  H   UNL     1      44.533 -15.789   6.135  1.00  0.00     0.161 HD
HETATM    6  C   UNL     1      43.245 -16.832   4.195  1.00  0.00     0.029 A 
HETATM    7  C   UNL     1      42.775 -16.972   2.884  1.00  0.00     0.025 A 
HETATM    8  N   UNL     1      42.152 -15.871   2.285  1.00  0.00    -0.267 NA
HETATM    9  C   UNL     1      43.880 -17.918   4.817  1.00  0.00     0.019 A 
HETATM   10  C   UNL     1      44.098 -19.104   4.111  1.00  0.00     0.025 A 
HETATM   11  C   UNL     1      43.693 -19.202   2.782  1.00  0.00     0.035 A 
HETATM   12 CL   UNL     1      43.990 -20.649   1.904  1.00  0.00    -0.084 Cl
HETATM   13  C   UNL     1      43.045 -18.136   2.161  1.00  0.00     0.048 A 
HETATM   14  C   UNL     1      41.842 -13.390   4.971  1.00  0.00     0.128 C 
HETATM   15  C   UNL     1      42.236 -13.418   6.431  1.00  0.00     0.039 C 
HETATM   16  C   UNL     1      43.672 -13.865   6.513  1.00  0.00     0.123 C 
HETATM   17  H   UNL     1      41.661 -16.122   1.428  1.00  0.00     0.130 HD
ENDROOT
BRANCH   1  18
HETATM   18  C   UNL     1      40.709 -13.948   2.403  1.00  0.00    -0.021 A 
HETATM   19  C   UNL     1      39.441 -13.421   2.714  1.00  0.00     0.011 A 
HETATM   20  C   UNL     1      38.914 -12.352   1.987  1.00  0.00     0.007 A 
HETATM   21  C   UNL     1      39.641 -11.782   0.935  1.00  0.00    -0.059 A 
HETATM   22  C   UNL     1      40.907 -12.294   0.628  1.00  0.00     0.007 A 
HETATM   23  C   UNL     1      41.436 -13.365   1.352  1.00  0.00     0.011 A 
BRANCH  21  24
HETATM   24  C   UNL     1      39.082 -10.609   0.169  1.00  0.00     0.034 C 
HETATM   25  C   UNL     1      38.629 -11.009  -1.227  1.00  0.00     0.010 C 
ENDBRANCH  21  24
ENDBRANCH   1  18
TORSDOF 2
ENDMDL
MODEL 5
REMARK VINA RESULT:      -8.0      3.079      6.799
REMARK  2 active torsions:
REMARK  status: ('A' for Active; 'I' for Inactive)
REMARK    1  A    between atoms: C_2  and  C_3 
REMARK    2  A    between atoms: C_6  and  C_7 
ROOT
HETATM    1  C   UNL     1      40.882 -15.431   2.648  1.00  0.00     0.197 C 
HETATM    2  N   UNL     1      40.858 -14.522   3.816  1.00  0.00    -0.345 N 
HETATM    3  C   UNL     1      41.492 -14.872   4.935  1.00  0.00     0.113 C 
HETATM    4  N   UNL     1      41.494 -14.077   5.997  1.00  0.00    -0.376 N 
HETATM    5  H   UNL     1      42.045 -14.358   6.799  1.00  0.00     0.161 HD
HETATM    6  C   UNL     1      42.214 -16.155   4.995  1.00  0.00     0.029 A 
HETATM    7  C   UNL     1      42.565 -16.718   3.762  1.00  0.00     0.025 A 
HETATM    8  N   UNL     1      42.200 -16.036   2.596  1.00  0.00    -0.267 NA
HETATM    9  C   UNL     1      42.573 -16.814   6.181  1.00  0.00     0.019 A 
HETATM   10  C   UNL     1      43.330 -17.987   6.130  1.00  0.00     0.025 A 
HETATM   11  C   UNL     1      43.739 -18.496   4.899  1.00  0.00     0.035 A 
HETATM   12 CL   UNL     1      44.698 -19.920   4.840  1.00  0.00    -0.084 Cl
HETATM   13  C   UNL     1      43.371 -17.859   3.716  1.00  0.00     0.048 A 
HETATM   14  C   UNL     1      40.076 -13.274   3.748  1.00  0.00     0.128 C 
HETATM   15  C   UNL     1      39.608 -12.858   5.125  1.00  0.00     0.039 C 
HETATM   16  C   UNL     1      40.817 -12.785   6.021  1.00  0.00     0.123 C 
HETATM   17  H   UNL     1      42.304 -16.612   1.762  1.00  0.00     0.130 HD
ENDROOT
BRANCH   1  18
HETATM   18  C   UNL     1      40.636 -14.710   1.336  1.00  0.00    -0.021 A 
HETATM   19  C   UNL     1      39.782 -15.247   0.355  1.00  0.00     0.011 A 
HETATM   20  C   UNL     1      39.573 -14.577  -0.853  1.00  0.00     0.007 A 
HETATM   21  C   UNL     1      40.208 -13.356  -1.107  1.00  0.00    -0.059 A 
HETATM   22  C   UNL     1      41.048 -12.811  -0.130  1.00  0.00     0.007 A 
HETATM   23  C   UNL     1      41.262 -13.479   1.078  1.00  0.00     0.011 A 
BRANCH  21  24
HETATM   24  C   UNL     1      39.959 -12.621  -2.401  1.00  0.00     0.034 C 
HETATM   25  C   UNL     1      41.257 -12.271  -3.112  1.00  0.00     0.010 C 
ENDBRANCH  21  24
ENDBRANCH   1  18
TORSDOF 2
ENDMDL
MODEL 6
REMARK VINA RESULT:      -8.0      3.086      5.762
REMARK  2 active torsions:
REMARK  status: ('A' for Active; 'I' for Inactive)
REMARK    1  A    between atoms: C_2  and  C_3 
REMARK    2  A    between atoms: C_6  and  C_7 
ROOT
HETATM    1  C   UNL     1      42.645 -13.650   5.063  1.00  0.00     0.197 C 
HETATM    2  N   UNL     1      43.098 -15.058   5.104  1.00  0.00    -0.345 N 
HETATM    3  C   UNL     1      42.698 -15.907   4.157  1.00  0.00     0.113 C 
HETATM    4  N   UNL     1      43.091 -17.173   4.164  1.00  0.00    -0.376 N 
HETATM    5  H   UNL     1      42.812 -17.761   3.387  1.00  0.00     0.161 HD
HETATM    6  C   UNL     1      41.815 -15.433   3.078  1.00  0.00     0.029 A 
HETATM    7  C   UNL     1      41.806 -14.050   2.856  1.00  0.00     0.025 A 
HETATM    8  N   UNL     1      42.613 -13.246   3.669  1.00  0.00    -0.267 NA
HETATM    9  C   UNL     1      41.020 -16.264   2.273  1.00  0.00     0.019 A 
HETATM   10  C   UNL     1      40.279 -15.721   1.220  1.00  0.00     0.025 A 
HETATM   11  C   UNL     1      40.340 -14.354   0.962  1.00  0.00     0.035 A 
HETATM   12 CL   UNL     1      39.454 -13.693  -0.354  1.00  0.00    -0.084 Cl
HETATM   13  C   UNL     1      41.111 -13.518   1.767  1.00  0.00     0.048 A 
HETATM   14  C   UNL     1      43.930 -15.519   6.230  1.00  0.00     0.128 C 
HETATM   15  C   UNL     1      43.723 -16.997   6.481  1.00  0.00     0.039 C 
HETATM   16  C   UNL     1      43.974 -17.724   5.186  1.00  0.00     0.123 C 
HETATM   17  H   UNL     1      42.387 -12.256   3.582  1.00  0.00     0.130 HD
ENDROOT
BRANCH   1  18
HETATM   18  C   UNL     1      43.573 -12.711   5.811  1.00  0.00    -0.021 A 
HETATM   19  C   UNL     1      43.402 -12.454   7.184  1.00  0.00     0.011 A 
HETATM   20  C   UNL     1      44.257 -11.579   7.857  1.00  0.00     0.007 A 
HETATM   21  C   UNL     1      45.302 -10.944   7.178  1.00  0.00    -0.059 A 
HETATM   22  C   UNL     1      45.485 -11.205   5.815  1.00  0.00     0.007 A 
HETATM   23  C   UNL     1      44.630 -12.077   5.137  1.00  0.00     0.011 A 
BRANCH  21  24
HETATM   24  C   UNL     1      46.242 -10.020   7.913  1.00  0.00     0.034 C 
HETATM   25  C   UNL     1      45.491  -8.945   8.684  1.00  0.00     0.010 C 
ENDBRANCH  21  24
ENDBRANCH   1  18
TORSDOF 2
ENDMDL
MODEL 7
REMARK VINA RESULT:      -7.9      4.490      7.151
REMARK  2 active torsions:
REMARK  status: ('A' for Active; 'I' for Inactive)
REMARK    1  A    between atoms: C_2  and  C_3 
REMARK    2  A    between atoms: C_6  and  C_7 
ROOT
HETATM    1  C   UNL     1      44.369 -13.031   5.784  1.00  0.00     0.197 C 
HETATM    2  N   UNL     1      43.307 -12.624   4.838  1.00  0.00    -0.345 N 
HETATM    3  C   UNL     1      42.651 -13.555   4.144  1.00  0.00     0.113 C 
HETATM    4  N   UNL     1      41.691 -13.222   3.292  1.00  0.00    -0.376 N 
HETATM    5  H   UNL     1      41.179 -13.970   2.839  1.00  0.00     0.161 HD
HETATM    6  C   UNL     1      42.986 -14.977   4.332  1.00  0.00     0.029 A 
HETATM    7  C   UNL     1      43.645 -15.299   5.525  1.00  0.00     0.025 A 
HETATM    8  N   UNL     1      43.935 -14.263   6.419  1.00  0.00    -0.267 NA
HETATM    9  C   UNL     1      42.677 -15.998   3.420  1.00  0.00     0.019 A 
HETATM   10  C   UNL     1      42.966 -17.329   3.731  1.00  0.00     0.025 A 
HETATM   11  C   UNL     1      43.552 -17.643   4.954  1.00  0.00     0.035 A 
HETATM   12 CL   UNL     1      43.877 -19.283   5.349  1.00  0.00    -0.084 Cl
HETATM   13  C   UNL     1      43.880 -16.635   5.858  1.00  0.00     0.048 A 
HETATM   14  C   UNL     1      43.036 -11.191   4.624  1.00  0.00     0.128 C 
HETATM   15  C   UNL     1      42.486 -10.949   3.236  1.00  0.00     0.039 C 
HETATM   16  C   UNL     1      41.285 -11.841   3.054  1.00  0.00     0.123 C 
HETATM   17  H   UNL     1      44.591 -14.549   7.145  1.00  0.00     0.130 HD
ENDROOT
BRANCH   1  18
HETATM   18  C   UNL     1      44.620 -11.998   6.867  1.00  0.00    -0.021 A 
HETATM   19  C   UNL     1      45.795 -11.226   6.883  1.00  0.00     0.011 A 
HETATM   20  C   UNL     1      46.018 -10.286   7.892  1.00  0.00     0.007 A 
HETATM   21  C   UNL     1      45.072 -10.094   8.905  1.00  0.00    -0.059 A 
HETATM   22  C   UNL     1      43.895 -10.851   8.888  1.00  0.00     0.007 A 
HETATM   23  C   UNL     1      43.670 -11.794   7.882  1.00  0.00     0.011 A 
BRANCH  21  24
HETATM   24  C   UNL     1      45.302  -9.059   9.978  1.00  0.00     0.034 C 
HETATM   25  C   UNL     1      44.211  -9.091  11.038  1.00  0.00     0.010 C 
ENDBRANCH  21  24
ENDBRANCH   1  18
TORSDOF 2
ENDMDL
MODEL 8
REMARK VINA RESULT:      -7.9      2.051      2.569
REMARK  2 active torsions:
REMARK  status: ('A' for Active; 'I' for Inactive)
REMARK    1  A    between atoms: C_2  and  C_3 
REMARK    2  A    between atoms: C_6  and  C_7 
ROOT
HETATM    1  C   UNL     1      41.164 -13.839   1.456  1.00  0.00     0.197 C 
HETATM    2  N   UNL     1      40.632 -13.159   2.657  1.00  0.00    -0.345 N 
HETATM    3  C   UNL     1      39.628 -12.292   2.532  1.00  0.00     0.113 C 
HETATM    4  N   UNL     1      39.126 -11.671   3.590  1.00  0.00    -0.376 N 
HETATM    5  H   UNL     1      38.321 -11.071   3.451  1.00  0.00     0.161 HD
HETATM    6  C   UNL     1      39.056 -12.024   1.201  1.00  0.00     0.029 A 
HETATM    7  C   UNL     1      39.288 -13.002   0.226  1.00  0.00     0.025 A 
HETATM    8  N   UNL     1      40.038 -14.127   0.585  1.00  0.00    -0.267 NA
HETATM    9  C   UNL     1      38.300 -10.889   0.871  1.00  0.00     0.019 A 
HETATM   10  C   UNL     1      37.732 -10.769  -0.400  1.00  0.00     0.025 A 
HETATM   11  C   UNL     1      37.906 -11.786  -1.336  1.00  0.00     0.035 A 
HETATM   12 CL   UNL     1      37.179 -11.652  -2.887  1.00  0.00    -0.084 Cl
HETATM   13  C   UNL     1      38.670 -12.908  -1.023  1.00  0.00     0.048 A 
HETATM   14  C   UNL     1      41.266 -13.400   3.966  1.00  0.00     0.128 C 
HETATM   15  C   UNL     1      41.093 -12.202   4.874  1.00  0.00     0.039 C 
HETATM   16  C   UNL     1      39.622 -11.885   4.946  1.00  0.00     0.123 C 
HETATM   17  H   UNL     1      40.333 -14.671  -0.225  1.00  0.00     0.130 HD
ENDROOT
BRANCH   1  18
HETATM   18  C   UNL     1      41.863 -15.146   1.780  1.00  0.00    -0.021 A 
HETATM   19  C   UNL     1      43.260 -15.275   1.673  1.00  0.00     0.011 A 
HETATM   20  C   UNL     1      43.890 -16.487   1.965  1.00  0.00     0.007 A 
HETATM   21  C   UNL     1      43.140 -17.597   2.371  1.00  0.00    -0.059 A 
HETATM   22  C   UNL     1      41.751 -17.472   2.490  1.00  0.00     0.007 A 
HETATM   23  C   UNL     1      41.118 -16.261   2.197  1.00  0.00     0.011 A 
BRANCH  21  24
HETATM   24  C   UNL     1      43.825 -18.898   2.712  1.00  0.00     0.034 C 
HETATM   25  C   UNL     1      43.269 -20.059   1.901  1.00  0.00     0.010 C 
ENDBRANCH  21  24
ENDBRANCH   1  18
TORSDOF 2
ENDMDL
MODEL 9
REMARK VINA RESULT:      -7.9      3.338      6.558
REMARK  2 active torsions:
REMARK  status: ('A' for Active; 'I' for Inactive)
REMARK    1  A    between atoms: C_2  and  C_3 
REMARK    2  A    between atoms: C_6  and  C_7 
ROOT
HETATM    1  C   UNL     1      43.035 -14.568   3.905  1.00  0.00     0.197 C 
HETATM    2  N   UNL     1      42.069 -14.777   2.804  1.00  0.00    -0.345 N 
HETATM    3  C   UNL     1      41.882 -16.003   2.316  1.00  0.00     0.113 C 
HETATM    4  N   UNL     1      41.020 -16.223   1.333  1.00  0.00    -0.376 N 
HETATM    5  H   UNL     1      40.866 -17.181   1.042  1.00  0.00     0.161 HD
HETATM    6  C   UNL     1      42.634 -17.137   2.881  1.00  0.00     0.029 A 
HETATM    7  C   UNL     1      43.157 -16.945   4.166  1.00  0.00     0.025 A 
HETATM    8  N   UNL     1      42.936 -15.713   4.792  1.00  0.00    -0.267 NA
HETATM    9  C   UNL     1      42.834 -18.365   2.233  1.00  0.00     0.019 A 
HETATM   10  C   UNL     1      43.493 -19.407   2.890  1.00  0.00     0.025 A 
HETATM   11  C   UNL     1      43.940 -19.228   4.197  1.00  0.00     0.035 A 
HETATM   12 CL   UNL     1      44.721 -20.522   5.016  1.00  0.00    -0.084 Cl
HETATM   13  C   UNL     1      43.763 -18.007   4.842  1.00  0.00     0.048 A 
HETATM   14  C   UNL     1      41.378 -13.615   2.216  1.00  0.00     0.128 C 
HETATM   15  C   UNL     1      41.014 -13.880   0.772  1.00  0.00     0.039 C 
HETATM   16  C   UNL     1      40.225 -15.162   0.723  1.00  0.00     0.123 C 
HETATM   17  H   UNL     1      43.522 -15.587   5.617  1.00  0.00     0.130 HD
ENDROOT
BRANCH   1  18
HETATM   18  C   UNL     1      42.749 -13.314   4.710  1.00  0.00    -0.021 A 
HETATM   19  C   UNL     1      41.633 -13.231   5.563  1.00  0.00     0.011 A 
HETATM   20  C   UNL     1      41.376 -12.067   6.291  1.00  0.00     0.007 A 
HETATM   21  C   UNL     1      42.227 -10.962   6.185  1.00  0.00    -0.059 A 
HETATM   22  C   UNL     1      43.345 -11.042   5.348  1.00  0.00     0.007 A 
HETATM   23  C   UNL     1      43.604 -12.204   4.617  1.00  0.00     0.011 A 
BRANCH  21  24
HETATM   24  C   UNL     1      41.963  -9.715   6.993  1.00  0.00     0.034 C 
HETATM   25  C   UNL     1      43.126  -9.381   7.915  1.00  0.00     0.010 C 
ENDBRANCH  21  24
ENDBRANCH   1  18
TORSDOF 2
ENDMDL
MODEL 10
REMARK VINA RESULT:      -7.7     15.337     17.800
REMARK  2 active torsions:
REMARK  status: ('A' for Active; 'I' for Inactive)
REMARK    1  A    between atoms: C_2  and  C_3 
REMARK    2  A    between atoms: C_6  and  C_7 
ROOT
HETATM    1  C   UNL     1      41.364  -7.287  16.639  1.00  0.00     0.197 C 
HETATM    2  N   UNL     1      40.378  -6.191  16.517  1.00  0.00    -0.345 N 
HETATM    3  C   UNL     1      40.156  -5.387  17.557  1.00  0.00     0.113 C 
HETATM    4  N   UNL     1      39.282  -4.392  17.477  1.00  0.00    -0.376 N 
HETATM    5  H   UNL     1      39.197  -3.770  18.272  1.00  0.00     0.161 HD
HETATM    6  C   UNL     1      40.898  -5.594  18.812  1.00  0.00     0.029 A 
HETATM    7  C   UNL     1      42.090  -6.321  18.706  1.00  0.00     0.025 A 
HETATM    8  N   UNL     1      42.467  -6.791  17.443  1.00  0.00    -0.267 NA
HETATM    9  C   UNL     1      40.499  -5.105  20.066  1.00  0.00     0.019 A 
HETATM   10  C   UNL     1      41.318  -5.287  21.183  1.00  0.00     0.025 A 
HETATM   11  C   UNL     1      42.538  -5.945  21.048  1.00  0.00     0.035 A 
HETATM   12 CL   UNL     1      43.559  -6.139  22.417  1.00  0.00    -0.084 Cl
HETATM   13  C   UNL     1      42.934  -6.451  19.812  1.00  0.00     0.048 A 
HETATM   14  C   UNL     1      39.605  -6.046  15.270  1.00  0.00     0.128 C 
HETATM   15  C   UNL     1      38.264  -5.401  15.541  1.00  0.00     0.039 C 
HETATM   16  C   UNL     1      38.513  -4.107  16.271  1.00  0.00     0.123 C 
HETATM   17  H   UNL     1      43.219  -7.477  17.493  1.00  0.00     0.130 HD
ENDROOT
BRANCH   1  18
HETATM   18  C   UNL     1      41.915  -7.734  15.298  1.00  0.00    -0.021 A 
HETATM   19  C   UNL     1      41.411  -8.873  14.642  1.00  0.00     0.011 A 
HETATM   20  C   UNL     1      41.935  -9.279  13.413  1.00  0.00     0.007 A 
HETATM   21  C   UNL     1      42.971  -8.558  12.810  1.00  0.00    -0.059 A 
HETATM   22  C   UNL     1      43.470  -7.418  13.451  1.00  0.00     0.007 A 
HETATM   23  C   UNL     1      42.949  -7.010  14.682  1.00  0.00     0.011 A 
BRANCH  21  24
HETATM   24  C   UNL     1      43.517  -8.983  11.469  1.00  0.00     0.034 C 
HETATM   25  C   UNL     1      43.759 -10.484  11.406  1.00  0.00     0.010 C 
ENDBRANCH  21  24
ENDBRANCH   1  18
TORSDOF 2
ENDMDL
