MODEL 1
REMARK VINA RESULT:      -7.4      0.000      0.000
REMARK  7 active torsions:
REMARK  status: ('A' for Active; 'I' for Inactive)
REMARK    1  A    between atoms: O_2  and  C_3 
REMARK    2  A    between atoms: C_4  and  O_5 
REMARK    3  A    between atoms: C_7  and  C_8 
REMARK       I    between atoms: C_8  and  N_9 
REMARK    4  A    between atoms: N_9  and  C_10 
REMARK    5  A    between atoms: C_10  and  C_11 
REMARK    6  A    between atoms: C_11  and  N_12 
REMARK    7  A    between atoms: C_11  and  C_18 
ROOT
HETATM    1  C   UNL     1      42.235 -12.420   5.649  1.00  0.00     0.239 C 
ENDROOT
BRANCH   1   2
HETATM    2  C   UNL     1      42.452 -13.761   6.431  1.00  0.00     0.161 C 
BRANCH   2   3
HETATM    3  N   UNL     1      41.270 -14.508   6.834  1.00  0.00    -0.354 N 
HETATM    4  C   UNL     1      40.749 -15.671   6.314  1.00  0.00     0.254 C 
HETATM    5  O   UNL     1      39.877 -16.263   6.935  1.00  0.00    -0.268 OA
HETATM    6  H   UNL     1      40.923 -14.370   7.780  1.00  0.00     0.162 HD
BRANCH   4   7
HETATM    7  C   UNL     1      41.214 -16.182   5.007  1.00  0.00     0.068 A 
HETATM    8  C   UNL     1      42.415 -16.920   4.934  1.00  0.00     0.117 A 
HETATM    9  C   UNL     1      42.883 -17.297   3.663  1.00  0.00     0.102 A 
HETATM   10  C   UNL     1      42.102 -17.033   2.526  1.00  0.00     0.040 A 
HETATM   11  C   UNL     1      40.903 -16.328   2.622  1.00  0.00     0.004 A 
HETATM   12  C   UNL     1      40.470 -15.873   3.862  1.00  0.00     0.020 A 
BRANCH   8  13
HETATM   13  O   UNL     1      42.974 -17.226   6.148  1.00  0.00    -0.352 OA
HETATM   14  C   UNL     1      44.276 -16.759   6.467  1.00  0.00     0.210 C 
ENDBRANCH   8  13
BRANCH   9  15
HETATM   15  O   UNL     1      44.064 -17.979   3.539  1.00  0.00    -0.353 OA
HETATM   16  C   UNL     1      43.935 -19.267   2.927  1.00  0.00     0.210 C 
ENDBRANCH   9  15
ENDBRANCH   4   7
ENDBRANCH   2   3
ENDBRANCH   1   2
BRANCH   1  17
HETATM   17  N   UNL     1      43.308 -11.362   5.908  1.00  0.00    -0.061 N 
HETATM   18  H   UNL     1      43.366 -10.848   5.018  1.00  0.00     0.280 HD
HETATM   19  C   UNL     1      44.719 -11.830   6.185  1.00  0.00     0.236 C 
HETATM   20  C   UNL     1      45.037 -11.279   7.560  1.00  0.00     0.029 C 
HETATM   21  C   UNL     1      44.292  -9.961   7.583  1.00  0.00     0.029 C 
HETATM   22  C   UNL     1      42.960 -10.314   6.947  1.00  0.00     0.236 C 
ENDBRANCH   1  17
BRANCH   1  23
HETATM   23  C   UNL     1      42.052 -12.626   4.142  1.00  0.00    -0.015 A 
HETATM   24  C   UNL     1      40.902 -12.113   3.457  1.00  0.00    -0.018 A 
HETATM   25  C   UNL     1      40.800 -12.323   2.054  1.00  0.00    -0.025 A 
HETATM   26  C   UNL     1      39.838 -11.404   4.073  1.00  0.00     0.013 A 
HETATM   27  C   UNL     1      39.692 -11.845   1.339  1.00  0.00     0.012 A 
HETATM   28  C   UNL     1      41.803 -13.014   1.365  1.00  0.00     0.012 A 
HETATM   29  C   UNL     1      38.670 -11.151   1.978  1.00  0.00     0.001 A 
HETATM   30  C   UNL     1      38.743 -10.931   3.345  1.00  0.00     0.001 A 
HETATM   31  C   UNL     1      42.919 -13.497   2.030  1.00  0.00     0.002 A 
HETATM   32  C   UNL     1      43.048 -13.298   3.401  1.00  0.00     0.010 A 
ENDBRANCH   1  23
TORSDOF 7
ENDMDL
MODEL 2
REMARK VINA RESULT:      -7.3      2.970      5.346
REMARK  7 active torsions:
REMARK  status: ('A' for Active; 'I' for Inactive)
REMARK    1  A    between atoms: O_2  and  C_3 
REMARK    2  A    between atoms: C_4  and  O_5 
REMARK    3  A    between atoms: C_7  and  C_8 
REMARK       I    between atoms: C_8  and  N_9 
REMARK    4  A    between atoms: N_9  and  C_10 
REMARK    5  A    between atoms: C_10  and  C_11 
REMARK    6  A    between atoms: C_11  and  N_12 
REMARK    7  A    between atoms: C_11  and  C_18 
ROOT
HETATM    1  C   UNL     1      42.877 -12.536   4.822  1.00  0.00     0.239 C 
ENDROOT
BRANCH   1   2
HETATM    2  C   UNL     1      42.370 -11.525   3.737  1.00  0.00     0.161 C 
BRANCH   2   3
HETATM    3  N   UNL     1      40.968 -11.136   3.779  1.00  0.00    -0.354 N 
HETATM    4  C   UNL     1      39.908 -11.601   3.035  1.00  0.00     0.254 C 
HETATM    5  O   UNL     1      38.768 -11.311   3.376  1.00  0.00    -0.268 OA
HETATM    6  H   UNL     1      40.624 -10.698   4.630  1.00  0.00     0.162 HD
BRANCH   4   7
HETATM    7  C   UNL     1      40.141 -12.414   1.823  1.00  0.00     0.068 A 
HETATM    8  C   UNL     1      40.647 -11.799   0.657  1.00  0.00     0.117 A 
HETATM    9  C   UNL     1      40.754 -12.578  -0.507  1.00  0.00     0.102 A 
HETATM   10  C   UNL     1      40.466 -13.952  -0.457  1.00  0.00     0.040 A 
HETATM   11  C   UNL     1      39.994 -14.547   0.712  1.00  0.00     0.004 A 
HETATM   12  C   UNL     1      39.801 -13.771   1.849  1.00  0.00     0.020 A 
BRANCH   8  13
HETATM   13  O   UNL     1      41.025 -10.491   0.819  1.00  0.00    -0.352 OA
HETATM   14  C   UNL     1      40.224  -9.450   0.281  1.00  0.00     0.210 C 
ENDBRANCH   8  13
BRANCH   9  15
HETATM   15  O   UNL     1      41.202 -12.015  -1.674  1.00  0.00    -0.353 OA
HETATM   16  C   UNL     1      40.778 -12.702  -2.855  1.00  0.00     0.210 C 
ENDBRANCH   9  15
ENDBRANCH   4   7
ENDBRANCH   2   3
ENDBRANCH   1   2
BRANCH   1  17
HETATM   17  N   UNL     1      42.856 -11.989   6.249  1.00  0.00    -0.061 N 
HETATM   18  H   UNL     1      41.985 -12.369   6.645  1.00  0.00     0.280 HD
HETATM   19  C   UNL     1      42.752 -10.492   6.437  1.00  0.00     0.236 C 
HETATM   20  C   UNL     1      44.002 -10.121   7.210  1.00  0.00     0.029 C 
HETATM   21  C   UNL     1      44.228 -11.327   8.098  1.00  0.00     0.029 C 
HETATM   22  C   UNL     1      43.957 -12.490   7.162  1.00  0.00     0.236 C 
ENDBRANCH   1  17
BRANCH   1  23
HETATM   23  C   UNL     1      42.158 -13.889   4.766  1.00  0.00    -0.015 A 
HETATM   24  C   UNL     1      42.428 -14.830   3.720  1.00  0.00    -0.018 A 
HETATM   25  C   UNL     1      41.739 -16.074   3.734  1.00  0.00    -0.025 A 
HETATM   26  C   UNL     1      43.337 -14.619   2.651  1.00  0.00     0.013 A 
HETATM   27  C   UNL     1      41.965 -17.028   2.730  1.00  0.00     0.012 A 
HETATM   28  C   UNL     1      40.824 -16.366   4.751  1.00  0.00     0.012 A 
HETATM   29  C   UNL     1      42.867 -16.785   1.699  1.00  0.00     0.001 A 
HETATM   30  C   UNL     1      43.553 -15.581   1.659  1.00  0.00     0.001 A 
HETATM   31  C   UNL     1      40.576 -15.457   5.767  1.00  0.00     0.002 A 
HETATM   32  C   UNL     1      41.241 -14.236   5.782  1.00  0.00     0.010 A 
ENDBRANCH   1  23
TORSDOF 7
ENDMDL
MODEL 3
REMARK VINA RESULT:      -7.3      2.421      5.381
REMARK  7 active torsions:
REMARK  status: ('A' for Active; 'I' for Inactive)
REMARK    1  A    between atoms: O_2  and  C_3 
REMARK    2  A    between atoms: C_4  and  O_5 
REMARK    3  A    between atoms: C_7  and  C_8 
REMARK       I    between atoms: C_8  and  N_9 
REMARK    4  A    between atoms: N_9  and  C_10 
REMARK    5  A    between atoms: C_10  and  C_11 
REMARK    6  A    between atoms: C_11  and  N_12 
REMARK    7  A    between atoms: C_11  and  C_18 
ROOT
HETATM    1  C   UNL     1      43.527 -12.398   5.579  1.00  0.00     0.239 C 
ENDROOT
BRANCH   1   2
HETATM    2  C   UNL     1      42.255 -11.483   5.556  1.00  0.00     0.161 C 
BRANCH   2   3
HETATM    3  N   UNL     1      41.054 -11.979   6.211  1.00  0.00    -0.354 N 
HETATM    4  C   UNL     1      39.902 -12.489   5.657  1.00  0.00     0.254 C 
HETATM    5  O   UNL     1      39.097 -13.063   6.379  1.00  0.00    -0.268 OA
HETATM    6  H   UNL     1      41.134 -12.285   7.178  1.00  0.00     0.162 HD
BRANCH   4   7
HETATM    7  C   UNL     1      39.623 -12.319   4.216  1.00  0.00     0.068 A 
HETATM    8  C   UNL     1      39.044 -11.117   3.754  1.00  0.00     0.117 A 
HETATM    9  C   UNL     1      38.694 -11.031   2.396  1.00  0.00     0.102 A 
HETATM   10  C   UNL     1      39.023 -12.081   1.523  1.00  0.00     0.040 A 
HETATM   11  C   UNL     1      39.622 -13.249   1.993  1.00  0.00     0.004 A 
HETATM   12  C   UNL     1      39.896 -13.383   3.349  1.00  0.00     0.020 A 
BRANCH   8  13
HETATM   13  O   UNL     1      38.931 -10.134   4.704  1.00  0.00    -0.352 OA
HETATM   14  C   UNL     1      39.726  -8.962   4.611  1.00  0.00     0.210 C 
ENDBRANCH   8  13
BRANCH   9  15
HETATM   15  O   UNL     1      38.092  -9.901   1.910  1.00  0.00    -0.353 OA
HETATM   16  C   UNL     1      38.854  -9.216   0.910  1.00  0.00     0.210 C 
ENDBRANCH   9  15
ENDBRANCH   4   7
ENDBRANCH   2   3
ENDBRANCH   1   2
BRANCH   1  17
HETATM   17  N   UNL     1      44.485 -12.114   6.737  1.00  0.00    -0.061 N 
HETATM   18  H   UNL     1      44.716 -13.049   7.099  1.00  0.00     0.280 HD
HETATM   19  C   UNL     1      43.955 -11.349   7.928  1.00  0.00     0.236 C 
HETATM   20  C   UNL     1      44.831 -10.115   8.006  1.00  0.00     0.029 C 
HETATM   21  C   UNL     1      46.179 -10.621   7.536  1.00  0.00     0.029 C 
HETATM   22  C   UNL     1      45.816 -11.498   6.352  1.00  0.00     0.236 C 
ENDBRANCH   1  17
BRANCH   1  23
HETATM   23  C   UNL     1      43.193 -13.893   5.528  1.00  0.00    -0.015 A 
HETATM   24  C   UNL     1      43.103 -14.591   4.279  1.00  0.00    -0.018 A 
HETATM   25  C   UNL     1      42.806 -15.982   4.301  1.00  0.00    -0.025 A 
HETATM   26  C   UNL     1      43.284 -13.999   3.002  1.00  0.00     0.013 A 
HETATM   27  C   UNL     1      42.702 -16.709   3.105  1.00  0.00     0.012 A 
HETATM   28  C   UNL     1      42.611 -16.647   5.516  1.00  0.00     0.012 A 
HETATM   29  C   UNL     1      42.890 -16.093   1.872  1.00  0.00     0.001 A 
HETATM   30  C   UNL     1      43.180 -14.739   1.820  1.00  0.00     0.001 A 
HETATM   31  C   UNL     1      42.712 -15.970   6.721  1.00  0.00     0.002 A 
HETATM   32  C   UNL     1      43.009 -14.611   6.729  1.00  0.00     0.010 A 
ENDBRANCH   1  23
TORSDOF 7
ENDMDL
MODEL 4
REMARK VINA RESULT:      -7.3      2.688      7.069
REMARK  7 active torsions:
REMARK  status: ('A' for Active; 'I' for Inactive)
REMARK    1  A    between atoms: O_2  and  C_3 
REMARK    2  A    between atoms: C_4  and  O_5 
REMARK    3  A    between atoms: C_7  and  C_8 
REMARK       I    between atoms: C_8  and  N_9 
REMARK    4  A    between atoms: N_9  and  C_10 
REMARK    5  A    between atoms: C_10  and  C_11 
REMARK    6  A    between atoms: C_11  and  N_12 
REMARK    7  A    between atoms: C_11  and  C_18 
ROOT
HETATM    1  C   UNL     1      42.281 -15.164   5.558  1.00  0.00     0.239 C 
ENDROOT
BRANCH   1   2
HETATM    2  C   UNL     1      43.290 -14.004   5.863  1.00  0.00     0.161 C 
BRANCH   2   3
HETATM    3  N   UNL     1      43.450 -12.966   4.855  1.00  0.00    -0.354 N 
HETATM    4  C   UNL     1      44.068 -11.740   4.952  1.00  0.00     0.254 C 
HETATM    5  O   UNL     1      44.297 -11.106   3.930  1.00  0.00    -0.268 OA
HETATM    6  H   UNL     1      43.385 -13.241   3.878  1.00  0.00     0.162 HD
BRANCH   4   7
HETATM    7  C   UNL     1      44.424 -11.181   6.273  1.00  0.00     0.068 A 
HETATM    8  C   UNL     1      43.421 -10.592   7.074  1.00  0.00     0.117 A 
HETATM    9  C   UNL     1      43.812  -9.975   8.274  1.00  0.00     0.102 A 
HETATM   10  C   UNL     1      45.149 -10.053   8.696  1.00  0.00     0.040 A 
HETATM   11  C   UNL     1      46.120 -10.665   7.904  1.00  0.00     0.004 A 
HETATM   12  C   UNL     1      45.765 -11.204   6.673  1.00  0.00     0.020 A 
BRANCH   8  13
HETATM   13  O   UNL     1      42.145 -10.737   6.592  1.00  0.00    -0.352 OA
HETATM   14  C   UNL     1      41.512  -9.654   5.927  1.00  0.00     0.210 C 
ENDBRANCH   8  13
BRANCH   9  15
HETATM   15  O   UNL     1      42.881  -9.355   9.065  1.00  0.00    -0.353 OA
HETATM   16  C   UNL     1      42.896  -9.781  10.431  1.00  0.00     0.210 C 
ENDBRANCH   9  15
ENDBRANCH   4   7
ENDBRANCH   2   3
ENDBRANCH   1   2
BRANCH   1  17
HETATM   17  N   UNL     1      40.851 -14.697   5.286  1.00  0.00    -0.061 N 
HETATM   18  H   UNL     1      40.283 -15.541   5.441  1.00  0.00     0.280 HD
HETATM   19  C   UNL     1      40.505 -14.241   3.886  1.00  0.00     0.236 C 
HETATM   20  C   UNL     1      40.045 -12.808   4.058  1.00  0.00     0.029 C 
HETATM   21  C   UNL     1      39.360 -12.826   5.408  1.00  0.00     0.029 C 
HETATM   22  C   UNL     1      40.300 -13.667   6.252  1.00  0.00     0.236 C 
ENDBRANCH   1  17
BRANCH   1  23
HETATM   23  C   UNL     1      42.755 -16.093   4.435  1.00  0.00    -0.015 A 
HETATM   24  C   UNL     1      43.180 -17.433   4.710  1.00  0.00    -0.018 A 
HETATM   25  C   UNL     1      43.592 -18.250   3.621  1.00  0.00    -0.025 A 
HETATM   26  C   UNL     1      43.228 -18.022   6.001  1.00  0.00     0.013 A 
HETATM   27  C   UNL     1      44.021 -19.568   3.839  1.00  0.00     0.012 A 
HETATM   28  C   UNL     1      43.577 -17.751   2.315  1.00  0.00     0.012 A 
HETATM   29  C   UNL     1      44.052 -20.110   5.120  1.00  0.00     0.001 A 
HETATM   30  C   UNL     1      43.656 -19.338   6.200  1.00  0.00     0.001 A 
HETATM   31  C   UNL     1      43.153 -16.458   2.053  1.00  0.00     0.002 A 
HETATM   32  C   UNL     1      42.737 -15.640   3.098  1.00  0.00     0.010 A 
ENDBRANCH   1  23
TORSDOF 7
ENDMDL
MODEL 5
REMARK VINA RESULT:      -7.2      6.336      9.886
REMARK  7 active torsions:
REMARK  status: ('A' for Active; 'I' for Inactive)
REMARK    1  A    between atoms: O_2  and  C_3 
REMARK    2  A    between atoms: C_4  and  O_5 
REMARK    3  A    between atoms: C_7  and  C_8 
REMARK       I    between atoms: C_8  and  N_9 
REMARK    4  A    between atoms: N_9  and  C_10 
REMARK    5  A    between atoms: C_10  and  C_11 
REMARK    6  A    between atoms: C_11  and  N_12 
REMARK    7  A    between atoms: C_11  and  C_18 
ROOT
HETATM    1  C   UNL     1      42.488  -8.878   8.736  1.00  0.00     0.239 C 
ENDROOT
BRANCH   1   2
HETATM    2  C   UNL     1      41.224  -9.145   7.848  1.00  0.00     0.161 C 
BRANCH   2   3
HETATM    3  N   UNL     1      40.257 -10.122   8.326  1.00  0.00    -0.354 N 
HETATM    4  C   UNL     1      39.220  -9.966   9.217  1.00  0.00     0.254 C 
HETATM    5  O   UNL     1      38.381 -10.851   9.316  1.00  0.00    -0.268 OA
HETATM    6  H   UNL     1      40.094 -10.946   7.751  1.00  0.00     0.162 HD
BRANCH   4   7
HETATM    7  C   UNL     1      39.137  -8.760  10.067  1.00  0.00     0.068 A 
HETATM    8  C   UNL     1      39.458  -8.850  11.439  1.00  0.00     0.117 A 
HETATM    9  C   UNL     1      39.263  -7.710  12.239  1.00  0.00     0.102 A 
HETATM   10  C   UNL     1      38.870  -6.500  11.645  1.00  0.00     0.040 A 
HETATM   11  C   UNL     1      38.586  -6.424  10.282  1.00  0.00     0.004 A 
HETATM   12  C   UNL     1      38.690  -7.564   9.494  1.00  0.00     0.020 A 
BRANCH   8  13
HETATM   13  O   UNL     1      39.975 -10.059  11.828  1.00  0.00    -0.352 OA
HETATM   14  C   UNL     1      39.354 -10.792  12.872  1.00  0.00     0.210 C 
ENDBRANCH   8  13
BRANCH   9  15
HETATM   15  O   UNL     1      39.522  -7.761  13.583  1.00  0.00    -0.353 OA
HETATM   16  C   UNL     1      39.278  -6.530  14.272  1.00  0.00     0.210 C 
ENDBRANCH   9  15
ENDBRANCH   4   7
ENDBRANCH   2   3
ENDBRANCH   1   2
BRANCH   1  17
HETATM   17  N   UNL     1      43.814  -8.968   7.981  1.00  0.00    -0.061 N 
HETATM   18  H   UNL     1      43.671  -8.365   7.159  1.00  0.00     0.280 HD
HETATM   19  C   UNL     1      44.225 -10.310   7.418  1.00  0.00     0.236 C 
HETATM   20  C   UNL     1      45.550 -10.611   8.088  1.00  0.00     0.029 C 
HETATM   21  C   UNL     1      46.180  -9.243   8.235  1.00  0.00     0.029 C 
HETATM   22  C   UNL     1      45.017  -8.383   8.695  1.00  0.00     0.236 C 
ENDBRANCH   1  17
BRANCH   1  23
HETATM   23  C   UNL     1      42.411  -7.557   9.510  1.00  0.00    -0.015 A 
HETATM   24  C   UNL     1      42.631  -7.513  10.925  1.00  0.00    -0.018 A 
HETATM   25  C   UNL     1      42.563  -6.253  11.582  1.00  0.00    -0.025 A 
HETATM   26  C   UNL     1      42.914  -8.640  11.740  1.00  0.00     0.013 A 
HETATM   27  C   UNL     1      42.766  -6.157  12.967  1.00  0.00     0.012 A 
HETATM   28  C   UNL     1      42.288  -5.089  10.856  1.00  0.00     0.012 A 
HETATM   29  C   UNL     1      43.044  -7.286  13.731  1.00  0.00     0.001 A 
HETATM   30  C   UNL     1      43.118  -8.527  13.118  1.00  0.00     0.001 A 
HETATM   31  C   UNL     1      42.088  -5.136   9.486  1.00  0.00     0.002 A 
HETATM   32  C   UNL     1      42.158  -6.353   8.817  1.00  0.00     0.010 A 
ENDBRANCH   1  23
TORSDOF 7
ENDMDL
MODEL 6
REMARK VINA RESULT:      -7.2      5.792      9.809
REMARK  7 active torsions:
REMARK  status: ('A' for Active; 'I' for Inactive)
REMARK    1  A    between atoms: O_2  and  C_3 
REMARK    2  A    between atoms: C_4  and  O_5 
REMARK    3  A    between atoms: C_7  and  C_8 
REMARK       I    between atoms: C_8  and  N_9 
REMARK    4  A    between atoms: N_9  and  C_10 
REMARK    5  A    between atoms: C_10  and  C_11 
REMARK    6  A    between atoms: C_11  and  N_12 
REMARK    7  A    between atoms: C_11  and  C_18 
ROOT
HETATM    1  C   UNL     1      40.316  -9.649   9.037  1.00  0.00     0.239 C 
ENDROOT
BRANCH   1   2
HETATM    2  C   UNL     1      39.237  -9.484  10.161  1.00  0.00     0.161 C 
BRANCH   2   3
HETATM    3  N   UNL     1      39.248 -10.444  11.254  1.00  0.00    -0.354 N 
HETATM    4  C   UNL     1      39.895 -10.383  12.468  1.00  0.00     0.254 C 
HETATM    5  O   UNL     1      39.597 -11.185  13.343  1.00  0.00    -0.268 OA
HETATM    6  H   UNL     1      38.478 -11.107  11.309  1.00  0.00     0.162 HD
BRANCH   4   7
HETATM    7  C   UNL     1      40.957  -9.383  12.702  1.00  0.00     0.068 A 
HETATM    8  C   UNL     1      40.611  -8.087  13.144  1.00  0.00     0.117 A 
HETATM    9  C   UNL     1      41.634  -7.130  13.251  1.00  0.00     0.102 A 
HETATM   10  C   UNL     1      42.968  -7.507  13.029  1.00  0.00     0.040 A 
HETATM   11  C   UNL     1      43.294  -8.800  12.622  1.00  0.00     0.004 A 
HETATM   12  C   UNL     1      42.284  -9.735  12.427  1.00  0.00     0.020 A 
BRANCH   8  13
HETATM   13  O   UNL     1      39.287  -7.927  13.464  1.00  0.00    -0.352 OA
HETATM   14  C   UNL     1      38.476  -7.043  12.707  1.00  0.00     0.210 C 
ENDBRANCH   8  13
BRANCH   9  15
HETATM   15  O   UNL     1      41.341  -5.848  13.637  1.00  0.00    -0.353 OA
HETATM   16  C   UNL     1      42.131  -4.847  12.989  1.00  0.00     0.210 C 
ENDBRANCH   9  15
ENDBRANCH   4   7
ENDBRANCH   2   3
ENDBRANCH   1   2
BRANCH   1  17
HETATM   17  N   UNL     1      39.748  -9.642   7.617  1.00  0.00    -0.061 N 
HETATM   18  H   UNL     1      38.730  -9.690   7.760  1.00  0.00     0.280 HD
HETATM   19  C   UNL     1      40.075 -10.810   6.714  1.00  0.00     0.236 C 
HETATM   20  C   UNL     1      40.786 -10.185   5.531  1.00  0.00     0.029 C 
HETATM   21  C   UNL     1      40.100  -8.843   5.387  1.00  0.00     0.029 C 
HETATM   22  C   UNL     1      39.976  -8.371   6.823  1.00  0.00     0.236 C 
ENDBRANCH   1  17
BRANCH   1  23
HETATM   23  C   UNL     1      41.462  -8.637   9.150  1.00  0.00    -0.015 A 
HETATM   24  C   UNL     1      42.814  -9.013   8.861  1.00  0.00    -0.018 A 
HETATM   25  C   UNL     1      43.830  -8.023   8.969  1.00  0.00    -0.025 A 
HETATM   26  C   UNL     1      43.232 -10.313   8.475  1.00  0.00     0.013 A 
HETATM   27  C   UNL     1      45.170  -8.342   8.702  1.00  0.00     0.012 A 
HETATM   28  C   UNL     1      43.508  -6.715   9.346  1.00  0.00     0.012 A 
HETATM   29  C   UNL     1      45.539  -9.628   8.322  1.00  0.00     0.001 A 
HETATM   30  C   UNL     1      44.571 -10.613   8.209  1.00  0.00     0.001 A 
HETATM   31  C   UNL     1      42.196  -6.354   9.611  1.00  0.00     0.002 A 
HETATM   32  C   UNL     1      41.183  -7.300   9.506  1.00  0.00     0.010 A 
ENDBRANCH   1  23
TORSDOF 7
ENDMDL
MODEL 7
REMARK VINA RESULT:      -7.1      5.981      9.575
REMARK  7 active torsions:
REMARK  status: ('A' for Active; 'I' for Inactive)
REMARK    1  A    between atoms: O_2  and  C_3 
REMARK    2  A    between atoms: C_4  and  O_5 
REMARK    3  A    between atoms: C_7  and  C_8 
REMARK       I    between atoms: C_8  and  N_9 
REMARK    4  A    between atoms: N_9  and  C_10 
REMARK    5  A    between atoms: C_10  and  C_11 
REMARK    6  A    between atoms: C_11  and  N_12 
REMARK    7  A    between atoms: C_11  and  C_18 
ROOT
HETATM    1  C   UNL     1      42.872  -9.739   9.045  1.00  0.00     0.239 C 
ENDROOT
BRANCH   1   2
HETATM    2  C   UNL     1      42.161  -9.698   7.649  1.00  0.00     0.161 C 
BRANCH   2   3
HETATM    3  N   UNL     1      40.918 -10.441   7.502  1.00  0.00    -0.354 N 
HETATM    4  C   UNL     1      39.638 -10.086   7.860  1.00  0.00     0.254 C 
HETATM    5  O   UNL     1      38.697 -10.752   7.447  1.00  0.00    -0.268 OA
HETATM    6  H   UNL     1      40.887 -11.175   6.799  1.00  0.00     0.162 HD
BRANCH   4   7
HETATM    7  C   UNL     1      39.401  -8.934   8.755  1.00  0.00     0.068 A 
HETATM    8  C   UNL     1      39.388  -7.627   8.222  1.00  0.00     0.117 A 
HETATM    9  C   UNL     1      39.269  -6.550   9.117  1.00  0.00     0.102 A 
HETATM   10  C   UNL     1      39.058  -6.797  10.483  1.00  0.00     0.040 A 
HETATM   11  C   UNL     1      39.045  -8.098  10.987  1.00  0.00     0.004 A 
HETATM   12  C   UNL     1      39.248  -9.170  10.126  1.00  0.00     0.020 A 
BRANCH   8  13
HETATM   13  O   UNL     1      39.450  -7.566   6.854  1.00  0.00    -0.352 OA
HETATM   14  C   UNL     1      38.288  -7.248   6.104  1.00  0.00     0.210 C 
ENDBRANCH   8  13
BRANCH   9  15
HETATM   15  O   UNL     1      39.291  -5.261   8.651  1.00  0.00    -0.353 OA
HETATM   16  C   UNL     1      38.042  -4.573   8.772  1.00  0.00     0.210 C 
ENDBRANCH   9  15
ENDBRANCH   4   7
ENDBRANCH   2   3
ENDBRANCH   1   2
BRANCH   1  17
HETATM   17  N   UNL     1      44.321 -10.227   8.997  1.00  0.00    -0.061 N 
HETATM   18  H   UNL     1      44.383 -10.888   9.783  1.00  0.00     0.280 HD
HETATM   19  C   UNL     1      45.421  -9.219   9.242  1.00  0.00     0.236 C 
HETATM   20  C   UNL     1      46.252  -9.251   7.976  1.00  0.00     0.029 C 
HETATM   21  C   UNL     1      46.166 -10.700   7.545  1.00  0.00     0.029 C 
HETATM   22  C   UNL     1      44.703 -11.033   7.771  1.00  0.00     0.236 C 
ENDBRANCH   1  17
BRANCH   1  23
HETATM   23  C   UNL     1      42.790  -8.407   9.800  1.00  0.00    -0.015 A 
HETATM   24  C   UNL     1      42.637  -8.371  11.225  1.00  0.00    -0.018 A 
HETATM   25  C   UNL     1      42.584  -7.104  11.868  1.00  0.00    -0.025 A 
HETATM   26  C   UNL     1      42.527  -9.513  12.060  1.00  0.00     0.013 A 
HETATM   27  C   UNL     1      42.429  -7.014  13.259  1.00  0.00     0.012 A 
HETATM   28  C   UNL     1      42.683  -5.925  11.121  1.00  0.00     0.012 A 
HETATM   29  C   UNL     1      42.328  -8.158  14.045  1.00  0.00     0.001 A 
HETATM   30  C   UNL     1      42.377  -9.407  13.446  1.00  0.00     0.001 A 
HETATM   31  C   UNL     1      42.844  -5.966   9.745  1.00  0.00     0.002 A 
HETATM   32  C   UNL     1      42.907  -7.192   9.092  1.00  0.00     0.010 A 
ENDBRANCH   1  23
TORSDOF 7
ENDMDL
MODEL 8
REMARK VINA RESULT:      -7.0      6.194      9.600
REMARK  7 active torsions:
REMARK  status: ('A' for Active; 'I' for Inactive)
REMARK    1  A    between atoms: O_2  and  C_3 
REMARK    2  A    between atoms: C_4  and  O_5 
REMARK    3  A    between atoms: C_7  and  C_8 
REMARK       I    between atoms: C_8  and  N_9 
REMARK    4  A    between atoms: N_9  and  C_10 
REMARK    5  A    between atoms: C_10  and  C_11 
REMARK    6  A    between atoms: C_11  and  N_12 
REMARK    7  A    between atoms: C_11  and  C_18 
ROOT
HETATM    1  C   UNL     1      42.822  -9.628   8.690  1.00  0.00     0.239 C 
ENDROOT
BRANCH   1   2
HETATM    2  C   UNL     1      41.507  -9.299   7.903  1.00  0.00     0.161 C 
BRANCH   2   3
HETATM    3  N   UNL     1      40.408 -10.247   7.997  1.00  0.00    -0.354 N 
HETATM    4  C   UNL     1      39.275 -10.200   8.777  1.00  0.00     0.254 C 
HETATM    5  O   UNL     1      38.360 -10.979   8.547  1.00  0.00    -0.268 OA
HETATM    6  H   UNL     1      40.258 -10.877   7.212  1.00  0.00     0.162 HD
BRANCH   4   7
HETATM    7  C   UNL     1      39.176  -9.242   9.898  1.00  0.00     0.068 A 
HETATM    8  C   UNL     1      38.734  -7.923   9.652  1.00  0.00     0.117 A 
HETATM    9  C   UNL     1      38.756  -7.010  10.720  1.00  0.00     0.102 A 
HETATM   10  C   UNL     1      39.102  -7.449  12.008  1.00  0.00     0.040 A 
HETATM   11  C   UNL     1      39.507  -8.764  12.236  1.00  0.00     0.004 A 
HETATM   12  C   UNL     1      39.574  -9.657  11.174  1.00  0.00     0.020 A 
BRANCH   8  13
HETATM   13  O   UNL     1      38.285  -7.699   8.376  1.00  0.00    -0.352 OA
HETATM   14  C   UNL     1      38.923  -6.728   7.560  1.00  0.00     0.210 C 
ENDBRANCH   8  13
BRANCH   9  15
HETATM   15  O   UNL     1      38.376  -5.708  10.521  1.00  0.00    -0.353 OA
HETATM   16  C   UNL     1      38.161  -4.970  11.728  1.00  0.00     0.210 C 
ENDBRANCH   9  15
ENDBRANCH   4   7
ENDBRANCH   2   3
ENDBRANCH   1   2
BRANCH   1  17
HETATM   17  N   UNL     1      44.107  -9.364   7.904  1.00  0.00    -0.061 N 
HETATM   18  H   UNL     1      43.833  -8.643   7.222  1.00  0.00     0.280 HD
HETATM   19  C   UNL     1      44.681 -10.491   7.077  1.00  0.00     0.236 C 
HETATM   20  C   UNL     1      46.069 -10.708   7.644  1.00  0.00     0.029 C 
HETATM   21  C   UNL     1      46.497  -9.313   8.048  1.00  0.00     0.029 C 
HETATM   22  C   UNL     1      45.246  -8.749   8.694  1.00  0.00     0.236 C 
ENDBRANCH   1  17
BRANCH   1  23
HETATM   23  C   UNL     1      42.891  -8.942  10.059  1.00  0.00    -0.015 A 
HETATM   24  C   UNL     1      42.575  -7.552  10.209  1.00  0.00    -0.018 A 
HETATM   25  C   UNL     1      42.643  -6.979  11.509  1.00  0.00    -0.025 A 
HETATM   26  C   UNL     1      42.198  -6.685   9.150  1.00  0.00     0.013 A 
HETATM   27  C   UNL     1      42.348  -5.622  11.708  1.00  0.00     0.012 A 
HETATM   28  C   UNL     1      43.007  -7.761  12.610  1.00  0.00     0.012 A 
HETATM   29  C   UNL     1      41.979  -4.804  10.644  1.00  0.00     0.001 A 
HETATM   30  C   UNL     1      41.904  -5.336   9.366  1.00  0.00     0.001 A 
HETATM   31  C   UNL     1      43.300  -9.107  12.461  1.00  0.00     0.002 A 
HETATM   32  C   UNL     1      43.233  -9.695  11.203  1.00  0.00     0.010 A 
ENDBRANCH   1  23
TORSDOF 7
ENDMDL
MODEL 9
REMARK VINA RESULT:      -7.0      2.780      5.926
REMARK  7 active torsions:
REMARK  status: ('A' for Active; 'I' for Inactive)
REMARK    1  A    between atoms: O_2  and  C_3 
REMARK    2  A    between atoms: C_4  and  O_5 
REMARK    3  A    between atoms: C_7  and  C_8 
REMARK       I    between atoms: C_8  and  N_9 
REMARK    4  A    between atoms: N_9  and  C_10 
REMARK    5  A    between atoms: C_10  and  C_11 
REMARK    6  A    between atoms: C_11  and  N_12 
REMARK    7  A    between atoms: C_11  and  C_18 
ROOT
HETATM    1  C   UNL     1      42.768 -14.675   5.405  1.00  0.00     0.239 C 
ENDROOT
BRANCH   1   2
HETATM    2  C   UNL     1      43.224 -13.957   6.721  1.00  0.00     0.161 C 
BRANCH   2   3
HETATM    3  N   UNL     1      44.460 -13.191   6.679  1.00  0.00    -0.354 N 
HETATM    4  C   UNL     1      44.685 -11.915   6.214  1.00  0.00     0.254 C 
HETATM    5  O   UNL     1      45.747 -11.365   6.474  1.00  0.00    -0.268 OA
HETATM    6  H   UNL     1      45.204 -13.458   7.319  1.00  0.00     0.162 HD
BRANCH   4   7
HETATM    7  C   UNL     1      43.671 -11.229   5.385  1.00  0.00     0.068 A 
HETATM    8  C   UNL     1      42.677 -10.443   6.008  1.00  0.00     0.117 A 
HETATM    9  C   UNL     1      41.666  -9.895   5.200  1.00  0.00     0.102 A 
HETATM   10  C   UNL     1      41.730 -10.045   3.805  1.00  0.00     0.040 A 
HETATM   11  C   UNL     1      42.738 -10.801   3.206  1.00  0.00     0.004 A 
HETATM   12  C   UNL     1      43.695 -11.422   3.999  1.00  0.00     0.020 A 
BRANCH   8  13
HETATM   13  O   UNL     1      42.847 -10.270   7.358  1.00  0.00    -0.352 OA
HETATM   14  C   UNL     1      43.301  -9.023   7.861  1.00  0.00     0.210 C 
ENDBRANCH   8  13
BRANCH   9  15
HETATM   15  O   UNL     1      40.657  -9.159   5.763  1.00  0.00    -0.353 OA
HETATM   16  C   UNL     1      40.666  -7.776   5.395  1.00  0.00     0.210 C 
ENDBRANCH   9  15
ENDBRANCH   4   7
ENDBRANCH   2   3
ENDBRANCH   1   2
BRANCH   1  17
HETATM   17  N   UNL     1      42.551 -16.181   5.555  1.00  0.00    -0.061 N 
HETATM   18  H   UNL     1      41.645 -16.346   5.094  1.00  0.00     0.280 HD
HETATM   19  C   UNL     1      42.391 -16.743   6.950  1.00  0.00     0.236 C 
HETATM   20  C   UNL     1      43.522 -17.742   7.087  1.00  0.00     0.029 C 
HETATM   21  C   UNL     1      43.659 -18.301   5.686  1.00  0.00     0.029 C 
HETATM   22  C   UNL     1      43.537 -17.064   4.816  1.00  0.00     0.236 C 
ENDBRANCH   1  17
BRANCH   1  23
HETATM   23  C   UNL     1      41.536 -14.028   4.762  1.00  0.00    -0.015 A 
HETATM   24  C   UNL     1      41.306 -14.111   3.350  1.00  0.00    -0.018 A 
HETATM   25  C   UNL     1      40.135 -13.504   2.818  1.00  0.00    -0.025 A 
HETATM   26  C   UNL     1      42.165 -14.757   2.423  1.00  0.00     0.013 A 
HETATM   27  C   UNL     1      39.867 -13.553   1.442  1.00  0.00     0.012 A 
HETATM   28  C   UNL     1      39.233 -12.844   3.660  1.00  0.00     0.012 A 
HETATM   29  C   UNL     1      40.732 -14.199   0.565  1.00  0.00     0.001 A 
HETATM   30  C   UNL     1      41.881 -14.801   1.055  1.00  0.00     0.001 A 
HETATM   31  C   UNL     1      39.455 -12.777   5.026  1.00  0.00     0.002 A 
HETATM   32  C   UNL     1      40.587 -13.370   5.574  1.00  0.00     0.010 A 
ENDBRANCH   1  23
TORSDOF 7
ENDMDL
MODEL 10
REMARK VINA RESULT:      -6.9     15.739     17.781
REMARK  7 active torsions:
REMARK  status: ('A' for Active; 'I' for Inactive)
REMARK    1  A    between atoms: O_2  and  C_3 
REMARK    2  A    between atoms: C_4  and  O_5 
REMARK    3  A    between atoms: C_7  and  C_8 
REMARK       I    between atoms: C_8  and  N_9 
REMARK    4  A    between atoms: N_9  and  C_10 
REMARK    5  A    between atoms: C_10  and  C_11 
REMARK    6  A    between atoms: C_11  and  N_12 
REMARK    7  A    between atoms: C_11  and  C_18 
ROOT
HETATM    1  C   UNL     1      46.460 -28.898   2.420  1.00  0.00     0.239 C 
ENDROOT
BRANCH   1   2
HETATM    2  C   UNL     1      45.162 -29.744   2.655  1.00  0.00     0.161 C 
BRANCH   2   3
HETATM    3  N   UNL     1      43.882 -29.106   2.390  1.00  0.00    -0.354 N 
HETATM    4  C   UNL     1      43.031 -29.263   1.319  1.00  0.00     0.254 C 
HETATM    5  O   UNL     1      41.896 -28.808   1.389  1.00  0.00    -0.268 OA
HETATM    6  H   UNL     1      43.370 -28.724   3.181  1.00  0.00     0.162 HD
BRANCH   4   7
HETATM    7  C   UNL     1      43.489 -29.942   0.089  1.00  0.00     0.068 A 
HETATM    8  C   UNL     1      43.509 -31.353   0.038  1.00  0.00     0.117 A 
HETATM    9  C   UNL     1      44.052 -31.965  -1.105  1.00  0.00     0.102 A 
HETATM   10  C   UNL     1      44.452 -31.176  -2.195  1.00  0.00     0.040 A 
HETATM   11  C   UNL     1      44.397 -29.784  -2.137  1.00  0.00     0.004 A 
HETATM   12  C   UNL     1      43.944 -29.161  -0.980  1.00  0.00     0.020 A 
BRANCH   8  13
HETATM   13  O   UNL     1      42.940 -31.973   1.121  1.00  0.00    -0.352 OA
HETATM   14  C   UNL     1      41.645 -32.542   1.013  1.00  0.00     0.210 C 
ENDBRANCH   8  13
BRANCH   9  15
HETATM   15  O   UNL     1      44.130 -33.330  -1.184  1.00  0.00    -0.353 OA
HETATM   16  C   UNL     1      43.281 -33.908  -2.181  1.00  0.00     0.210 C 
ENDBRANCH   9  15
ENDBRANCH   4   7
ENDBRANCH   2   3
ENDBRANCH   1   2
BRANCH   1  17
HETATM   17  N   UNL     1      47.559 -29.132   3.458  1.00  0.00    -0.061 N 
HETATM   18  H   UNL     1      47.372 -28.419   4.177  1.00  0.00     0.280 HD
HETATM   19  C   UNL     1      48.994 -28.905   3.041  1.00  0.00     0.236 C 
HETATM   20  C   UNL     1      49.668 -30.244   3.259  1.00  0.00     0.029 C 
HETATM   21  C   UNL     1      48.951 -30.796   4.474  1.00  0.00     0.029 C 
HETATM   22  C   UNL     1      47.499 -30.458   4.192  1.00  0.00     0.236 C 
ENDBRANCH   1  17
BRANCH   1  23
HETATM   23  C   UNL     1      47.031 -29.053   1.006  1.00  0.00    -0.015 A 
HETATM   24  C   UNL     1      47.267 -30.347   0.438  1.00  0.00    -0.018 A 
HETATM   25  C   UNL     1      47.782 -30.422  -0.885  1.00  0.00    -0.025 A 
HETATM   26  C   UNL     1      47.029 -31.580   1.099  1.00  0.00     0.013 A 
HETATM   27  C   UNL     1      48.035 -31.665  -1.484  1.00  0.00     0.012 A 
HETATM   28  C   UNL     1      48.048 -29.255  -1.610  1.00  0.00     0.012 A 
HETATM   29  C   UNL     1      47.786 -32.853  -0.805  1.00  0.00     0.001 A 
HETATM   30  C   UNL     1      47.283 -32.811   0.487  1.00  0.00     0.001 A 
HETATM   31  C   UNL     1      47.805 -28.006  -1.061  1.00  0.00     0.002 A 
HETATM   32  C   UNL     1      47.294 -27.904   0.228  1.00  0.00     0.010 A 
ENDBRANCH   1  23
TORSDOF 7
ENDMDL
