MODEL 1
REMARK VINA RESULT:      -8.1      0.000      0.000
REMARK  5 active torsions:
REMARK  status: ('A' for Active; 'I' for Inactive)
REMARK    1  A    between atoms: C_3  and  N_4 
REMARK       I    between atoms: N_4  and  C_5 
REMARK    2  A    between atoms: C_5  and  C_6 
REMARK    3  A    between atoms: C_6  and  N_7 
REMARK    4  A    between atoms: C_6  and  C_16 
REMARK       I    between atoms: N_7  and  C_8 
REMARK    5  A    between atoms: C_8  and  C_9 
ROOT
HETATM    1  C   UNL     1      39.952 -13.555   3.268  1.00  0.00     0.210 C 
ENDROOT
BRANCH   1   2
HETATM    2  C   UNL     1      41.234 -14.216   3.873  1.00  0.00     0.249 C 
HETATM    3  N   UNL     1      41.117 -15.576   4.109  1.00  0.00    -0.324 N 
HETATM    4  H   UNL     1      40.261 -15.980   3.730  1.00  0.00     0.169 HD
HETATM    5  O   UNL     1      42.279 -13.567   3.936  1.00  0.00    -0.270 OA
BRANCH   3   6
HETATM    6  C   UNL     1      42.147 -16.500   4.412  1.00  0.00     0.046 A 
HETATM    7  C   UNL     1      42.959 -17.134   3.447  1.00  0.00    -0.035 A 
HETATM    8  C   UNL     1      42.925 -16.844   1.972  1.00  0.00     0.050 C 
HETATM    9  C   UNL     1      43.914 -18.082   3.869  1.00  0.00     0.009 A 
HETATM   10  C   UNL     1      44.117 -18.355   5.217  1.00  0.00     0.001 A 
HETATM   11  C   UNL     1      43.368 -17.685   6.172  1.00  0.00     0.009 A 
HETATM   12  C   UNL     1      42.381 -16.761   5.790  1.00  0.00    -0.035 A 
HETATM   13  C   UNL     1      41.590 -16.096   6.889  1.00  0.00     0.050 C 
ENDBRANCH   3   6
ENDBRANCH   1   2
BRANCH   1  14
HETATM   14  N   UNL     1      40.029 -13.332   1.827  1.00  0.00    -0.338 N 
HETATM   15  C   UNL     1      40.023 -14.294   0.848  1.00  0.00     0.273 C 
HETATM   16  O   UNL     1      39.841 -15.486   1.071  1.00  0.00    -0.266 OA
HETATM   17  H   UNL     1      40.242 -12.396   1.494  1.00  0.00     0.164 HD
BRANCH  15  18
HETATM   18  C   UNL     1      40.268 -13.755  -0.498  1.00  0.00     0.145 A 
HETATM   19  N   UNL     1      41.047 -12.671  -0.700  1.00  0.00    -0.170 NA
HETATM   20  N   UNL     1      41.036 -12.505  -2.035  1.00  0.00    -0.289 N 
HETATM   21  H   UNL     1      41.567 -11.735  -2.431  1.00  0.00     0.188 HD
HETATM   22  C   UNL     1      40.286 -13.431  -2.694  1.00  0.00     0.112 A 
HETATM   23  C   UNL     1      39.773 -14.261  -1.727  1.00  0.00     0.058 A 
ENDBRANCH  15  18
ENDBRANCH   1  14
BRANCH   1  24
HETATM   24  C   UNL     1      39.461 -12.363   4.094  1.00  0.00    -0.026 A 
HETATM   25  C   UNL     1      39.407 -12.380   5.497  1.00  0.00     0.010 A 
HETATM   26  C   UNL     1      38.954 -11.268   6.217  1.00  0.00     0.001 A 
HETATM   27  C   UNL     1      38.573 -10.108   5.549  1.00  0.00     0.000 A 
HETATM   28  C   UNL     1      38.657 -10.053   4.162  1.00  0.00     0.001 A 
HETATM   29  C   UNL     1      39.104 -11.164   3.445  1.00  0.00     0.010 A 
ENDBRANCH   1  24
TORSDOF 5
ENDMDL
MODEL 2
REMARK VINA RESULT:      -8.0     15.688     17.419
REMARK  5 active torsions:
REMARK  status: ('A' for Active; 'I' for Inactive)
REMARK    1  A    between atoms: C_3  and  N_4 
REMARK       I    between atoms: N_4  and  C_5 
REMARK    2  A    between atoms: C_5  and  C_6 
REMARK    3  A    between atoms: C_6  and  N_7 
REMARK    4  A    between atoms: C_6  and  C_16 
REMARK       I    between atoms: N_7  and  C_8 
REMARK    5  A    between atoms: C_8  and  C_9 
ROOT
HETATM    1  C   UNL     1      44.622 -28.950   0.264  1.00  0.00     0.210 C 
ENDROOT
BRANCH   1   2
HETATM    2  C   UNL     1      46.060 -29.017   0.876  1.00  0.00     0.249 C 
HETATM    3  N   UNL     1      46.803 -30.111   0.463  1.00  0.00    -0.324 N 
HETATM    4  H   UNL     1      46.360 -30.644  -0.285  1.00  0.00     0.169 HD
HETATM    5  O   UNL     1      46.494 -28.057   1.513  1.00  0.00    -0.270 OA
BRANCH   3   6
HETATM    6  C   UNL     1      48.192 -30.333   0.631  1.00  0.00     0.046 A 
HETATM    7  C   UNL     1      48.791 -30.774   1.831  1.00  0.00    -0.035 A 
HETATM    8  C   UNL     1      48.037 -31.176   3.068  1.00  0.00     0.050 C 
HETATM    9  C   UNL     1      50.194 -30.903   1.892  1.00  0.00     0.009 A 
HETATM   10  C   UNL     1      50.992 -30.667   0.779  1.00  0.00     0.001 A 
HETATM   11  C   UNL     1      50.403 -30.298  -0.420  1.00  0.00     0.009 A 
HETATM   12  C   UNL     1      49.012 -30.124  -0.512  1.00  0.00    -0.035 A 
HETATM   13  C   UNL     1      48.452 -29.693  -1.845  1.00  0.00     0.050 C 
ENDBRANCH   3   6
ENDBRANCH   1   2
BRANCH   1  14
HETATM   14  N   UNL     1      43.680 -29.890   0.866  1.00  0.00    -0.338 N 
HETATM   15  C   UNL     1      42.409 -29.609   1.301  1.00  0.00     0.273 C 
HETATM   16  O   UNL     1      41.860 -28.525   1.134  1.00  0.00    -0.266 OA
HETATM   17  H   UNL     1      44.017 -30.814   1.123  1.00  0.00     0.164 HD
BRANCH  15  18
HETATM   18  C   UNL     1      41.773 -30.735   2.001  1.00  0.00     0.145 A 
HETATM   19  N   UNL     1      40.553 -31.195   1.648  1.00  0.00    -0.170 NA
HETATM   20  N   UNL     1      40.330 -32.215   2.496  1.00  0.00    -0.289 N 
HETATM   21  H   UNL     1      39.457 -32.727   2.418  1.00  0.00     0.188 HD
HETATM   22  C   UNL     1      41.350 -32.427   3.374  1.00  0.00     0.112 A 
HETATM   23  C   UNL     1      42.305 -31.484   3.081  1.00  0.00     0.058 A 
ENDBRANCH  15  18
ENDBRANCH   1  14
BRANCH   1  24
HETATM   24  C   UNL     1      44.638 -28.924  -1.268  1.00  0.00    -0.026 A 
HETATM   25  C   UNL     1      45.218 -27.879  -2.005  1.00  0.00     0.010 A 
HETATM   26  C   UNL     1      45.214 -27.893  -3.404  1.00  0.00     0.001 A 
HETATM   27  C   UNL     1      44.656 -28.966  -4.093  1.00  0.00     0.000 A 
HETATM   28  C   UNL     1      44.113 -30.031  -3.386  1.00  0.00     0.001 A 
HETATM   29  C   UNL     1      44.112 -30.014  -1.989  1.00  0.00     0.010 A 
ENDBRANCH   1  24
TORSDOF 5
ENDMDL
MODEL 3
REMARK VINA RESULT:      -7.9      2.933      5.549
REMARK  5 active torsions:
REMARK  status: ('A' for Active; 'I' for Inactive)
REMARK    1  A    between atoms: C_3  and  N_4 
REMARK       I    between atoms: N_4  and  C_5 
REMARK    2  A    between atoms: C_5  and  C_6 
REMARK    3  A    between atoms: C_6  and  N_7 
REMARK    4  A    between atoms: C_6  and  C_16 
REMARK       I    between atoms: N_7  and  C_8 
REMARK    5  A    between atoms: C_8  and  C_9 
ROOT
HETATM    1  C   UNL     1      42.408 -14.673   3.286  1.00  0.00     0.210 C 
ENDROOT
BRANCH   1   2
HETATM    2  C   UNL     1      42.195 -16.169   3.691  1.00  0.00     0.249 C 
HETATM    3  N   UNL     1      43.363 -16.908   3.775  1.00  0.00    -0.324 N 
HETATM    4  H   UNL     1      44.208 -16.342   3.694  1.00  0.00     0.169 HD
HETATM    5  O   UNL     1      41.084 -16.543   4.067  1.00  0.00    -0.270 OA
BRANCH   3   6
HETATM    6  C   UNL     1      43.542 -18.193   4.342  1.00  0.00     0.046 A 
HETATM    7  C   UNL     1      43.584 -18.455   5.729  1.00  0.00    -0.035 A 
HETATM    8  C   UNL     1      43.339 -17.432   6.803  1.00  0.00     0.050 C 
HETATM    9  C   UNL     1      43.827 -19.771   6.172  1.00  0.00     0.009 A 
HETATM   10  C   UNL     1      43.959 -20.825   5.276  1.00  0.00     0.001 A 
HETATM   11  C   UNL     1      43.852 -20.584   3.915  1.00  0.00     0.009 A 
HETATM   12  C   UNL     1      43.648 -19.281   3.432  1.00  0.00    -0.035 A 
HETATM   13  C   UNL     1      43.570 -19.098   1.936  1.00  0.00     0.050 C 
ENDBRANCH   3   6
ENDBRANCH   1   2
BRANCH   1  14
HETATM   14  N   UNL     1      42.596 -13.776   4.423  1.00  0.00    -0.338 N 
HETATM   15  C   UNL     1      43.347 -12.628   4.445  1.00  0.00     0.273 C 
HETATM   16  O   UNL     1      43.883 -12.150   3.450  1.00  0.00    -0.266 OA
HETATM   17  H   UNL     1      42.259 -14.074   5.334  1.00  0.00     0.164 HD
BRANCH  15  18
HETATM   18  C   UNL     1      43.459 -12.032   5.785  1.00  0.00     0.145 A 
HETATM   19  N   UNL     1      42.438 -11.350   6.348  1.00  0.00    -0.170 NA
HETATM   20  N   UNL     1      42.915 -10.983   7.552  1.00  0.00    -0.289 N 
HETATM   21  H   UNL     1      42.310 -10.450   8.169  1.00  0.00     0.188 HD
HETATM   22  C   UNL     1      44.192 -11.398   7.782  1.00  0.00     0.112 A 
HETATM   23  C   UNL     1      44.577 -12.083   6.655  1.00  0.00     0.058 A 
ENDBRANCH  15  18
ENDBRANCH   1  14
BRANCH   1  24
HETATM   24  C   UNL     1      41.402 -14.200   2.233  1.00  0.00    -0.026 A 
HETATM   25  C   UNL     1      40.576 -13.079   2.418  1.00  0.00     0.010 A 
HETATM   26  C   UNL     1      39.670 -12.677   1.430  1.00  0.00     0.001 A 
HETATM   27  C   UNL     1      39.593 -13.370   0.226  1.00  0.00     0.000 A 
HETATM   28  C   UNL     1      40.429 -14.458   0.002  1.00  0.00     0.001 A 
HETATM   29  C   UNL     1      41.329 -14.862   0.991  1.00  0.00     0.010 A 
ENDBRANCH   1  24
TORSDOF 5
ENDMDL
MODEL 4
REMARK VINA RESULT:      -7.9      2.100      3.069
REMARK  5 active torsions:
REMARK  status: ('A' for Active; 'I' for Inactive)
REMARK    1  A    between atoms: C_3  and  N_4 
REMARK       I    between atoms: N_4  and  C_5 
REMARK    2  A    between atoms: C_5  and  C_6 
REMARK    3  A    between atoms: C_6  and  N_7 
REMARK    4  A    between atoms: C_6  and  C_16 
REMARK       I    between atoms: N_7  and  C_8 
REMARK    5  A    between atoms: C_8  and  C_9 
ROOT
HETATM    1  C   UNL     1      41.153 -14.060   3.118  1.00  0.00     0.210 C 
ENDROOT
BRANCH   1   2
HETATM    2  C   UNL     1      41.280 -15.556   3.555  1.00  0.00     0.249 C 
HETATM    3  N   UNL     1      42.580 -15.970   3.793  1.00  0.00    -0.324 N 
HETATM    4  H   UNL     1      43.257 -15.208   3.781  1.00  0.00     0.169 HD
HETATM    5  O   UNL     1      40.265 -16.198   3.825  1.00  0.00    -0.270 OA
BRANCH   3   6
HETATM    6  C   UNL     1      43.013 -17.161   4.427  1.00  0.00     0.046 A 
HETATM    7  C   UNL     1      42.987 -17.378   5.821  1.00  0.00    -0.035 A 
HETATM    8  C   UNL     1      42.400 -16.427   6.827  1.00  0.00     0.050 C 
HETATM    9  C   UNL     1      43.500 -18.585   6.338  1.00  0.00     0.009 A 
HETATM   10  C   UNL     1      43.970 -19.591   5.501  1.00  0.00     0.001 A 
HETATM   11  C   UNL     1      43.936 -19.409   4.127  1.00  0.00     0.009 A 
HETATM   12  C   UNL     1      43.466 -18.206   3.575  1.00  0.00    -0.035 A 
HETATM   13  C   UNL     1      43.487 -18.076   2.071  1.00  0.00     0.050 C 
ENDBRANCH   3   6
ENDBRANCH   1   2
BRANCH   1  14
HETATM   14  N   UNL     1      41.087 -13.873   1.670  1.00  0.00    -0.338 N 
HETATM   15  C   UNL     1      40.149 -13.147   0.980  1.00  0.00     0.273 C 
HETATM   16  O   UNL     1      39.288 -12.463   1.524  1.00  0.00    -0.266 OA
HETATM   17  H   UNL     1      41.702 -14.429   1.083  1.00  0.00     0.164 HD
BRANCH  15  18
HETATM   18  C   UNL     1      40.269 -13.280  -0.479  1.00  0.00     0.145 A 
HETATM   19  N   UNL     1      41.007 -12.421  -1.215  1.00  0.00    -0.170 NA
HETATM   20  N   UNL     1      40.879 -12.876  -2.474  1.00  0.00    -0.289 N 
HETATM   21  H   UNL     1      41.359 -12.380  -3.218  1.00  0.00     0.188 HD
HETATM   22  C   UNL     1      40.095 -13.985  -2.576  1.00  0.00     0.112 A 
HETATM   23  C   UNL     1      39.682 -14.277  -1.299  1.00  0.00     0.058 A 
ENDBRANCH  15  18
ENDBRANCH   1  14
BRANCH   1  24
HETATM   24  C   UNL     1      42.136 -13.147   3.856  1.00  0.00    -0.026 A 
HETATM   25  C   UNL     1      43.147 -12.427   3.198  1.00  0.00     0.010 A 
HETATM   26  C   UNL     1      44.025 -11.600   3.908  1.00  0.00     0.001 A 
HETATM   27  C   UNL     1      43.891 -11.454   5.285  1.00  0.00     0.000 A 
HETATM   28  C   UNL     1      42.872 -12.123   5.953  1.00  0.00     0.001 A 
HETATM   29  C   UNL     1      41.999 -12.953   5.245  1.00  0.00     0.010 A 
ENDBRANCH   1  24
TORSDOF 5
ENDMDL
MODEL 5
REMARK VINA RESULT:      -7.8      2.679      7.321
REMARK  5 active torsions:
REMARK  status: ('A' for Active; 'I' for Inactive)
REMARK    1  A    between atoms: C_3  and  N_4 
REMARK       I    between atoms: N_4  and  C_5 
REMARK    2  A    between atoms: C_5  and  C_6 
REMARK    3  A    between atoms: C_6  and  N_7 
REMARK    4  A    between atoms: C_6  and  C_16 
REMARK       I    between atoms: N_7  and  C_8 
REMARK    5  A    between atoms: C_8  and  C_9 
ROOT
HETATM    1  C   UNL     1      42.230 -15.330   3.482  1.00  0.00     0.210 C 
ENDROOT
BRANCH   1   2
HETATM    2  C   UNL     1      42.252 -14.653   2.072  1.00  0.00     0.249 C 
HETATM    3  N   UNL     1      41.138 -13.878   1.797  1.00  0.00    -0.324 N 
HETATM    4  H   UNL     1      40.525 -13.747   2.602  1.00  0.00     0.169 HD
HETATM    5  O   UNL     1      43.278 -14.696   1.393  1.00  0.00    -0.270 OA
BRANCH   3   6
HETATM    6  C   UNL     1      40.960 -12.953   0.738  1.00  0.00     0.046 A 
HETATM    7  C   UNL     1      40.362 -13.266  -0.502  1.00  0.00    -0.035 A 
HETATM    8  C   UNL     1      39.732 -14.588  -0.842  1.00  0.00     0.050 C 
HETATM    9  C   UNL     1      40.295 -12.274  -1.502  1.00  0.00     0.009 A 
HETATM   10  C   UNL     1      40.744 -10.979  -1.269  1.00  0.00     0.001 A 
HETATM   11  C   UNL     1      41.271 -10.649  -0.030  1.00  0.00     0.009 A 
HETATM   12  C   UNL     1      41.389 -11.620   0.980  1.00  0.00    -0.035 A 
HETATM   13  C   UNL     1      41.998 -11.187   2.291  1.00  0.00     0.050 C 
ENDBRANCH   3   6
ENDBRANCH   1   2
BRANCH   1  14
HETATM   14  N   UNL     1      42.634 -14.441   4.569  1.00  0.00    -0.338 N 
HETATM   15  C   UNL     1      41.862 -13.479   5.169  1.00  0.00     0.273 C 
HETATM   16  O   UNL     1      40.670 -13.318   4.926  1.00  0.00    -0.266 OA
HETATM   17  H   UNL     1      43.615 -14.418   4.835  1.00  0.00     0.164 HD
BRANCH  15  18
HETATM   18  C   UNL     1      42.608 -12.648   6.126  1.00  0.00     0.145 A 
HETATM   19  N   UNL     1      42.167 -11.429   6.505  1.00  0.00    -0.170 NA
HETATM   20  N   UNL     1      43.097 -11.003   7.379  1.00  0.00    -0.289 N 
HETATM   21  H   UNL     1      42.975 -10.091   7.808  1.00  0.00     0.188 HD
HETATM   22  C   UNL     1      44.109 -11.893   7.575  1.00  0.00     0.112 A 
HETATM   23  C   UNL     1      43.824 -12.974   6.778  1.00  0.00     0.058 A 
ENDBRANCH  15  18
ENDBRANCH   1  14
BRANCH   1  24
HETATM   24  C   UNL     1      42.892 -16.711   3.481  1.00  0.00    -0.026 A 
HETATM   25  C   UNL     1      43.746 -17.146   4.508  1.00  0.00     0.010 A 
HETATM   26  C   UNL     1      44.330 -18.417   4.471  1.00  0.00     0.001 A 
HETATM   27  C   UNL     1      44.050 -19.289   3.423  1.00  0.00     0.000 A 
HETATM   28  C   UNL     1      43.175 -18.896   2.416  1.00  0.00     0.001 A 
HETATM   29  C   UNL     1      42.597 -17.625   2.450  1.00  0.00     0.010 A 
ENDBRANCH   1  24
TORSDOF 5
ENDMDL
MODEL 6
REMARK VINA RESULT:      -7.8      2.975      7.401
REMARK  5 active torsions:
REMARK  status: ('A' for Active; 'I' for Inactive)
REMARK    1  A    between atoms: C_3  and  N_4 
REMARK       I    between atoms: N_4  and  C_5 
REMARK    2  A    between atoms: C_5  and  C_6 
REMARK    3  A    between atoms: C_6  and  N_7 
REMARK    4  A    between atoms: C_6  and  C_16 
REMARK       I    between atoms: N_7  and  C_8 
REMARK    5  A    between atoms: C_8  and  C_9 
ROOT
HETATM    1  C   UNL     1      42.383 -14.671   4.109  1.00  0.00     0.210 C 
ENDROOT
BRANCH   1   2
HETATM    2  C   UNL     1      41.897 -13.933   2.819  1.00  0.00     0.249 C 
HETATM    3  N   UNL     1      40.520 -13.857   2.691  1.00  0.00    -0.324 N 
HETATM    4  H   UNL     1      40.018 -14.172   3.521  1.00  0.00     0.169 HD
HETATM    5  O   UNL     1      42.714 -13.336   2.117  1.00  0.00    -0.270 OA
BRANCH   3   6
HETATM    6  C   UNL     1      39.772 -13.060   1.790  1.00  0.00     0.046 A 
HETATM    7  C   UNL     1      39.600 -13.352   0.420  1.00  0.00    -0.035 A 
HETATM    8  C   UNL     1      40.092 -14.600  -0.260  1.00  0.00     0.050 C 
HETATM    9  C   UNL     1      38.880 -12.450  -0.390  1.00  0.00     0.009 A 
HETATM   10  C   UNL     1      38.282 -11.315   0.144  1.00  0.00     0.001 A 
HETATM   11  C   UNL     1      38.391 -11.059   1.502  1.00  0.00     0.009 A 
HETATM   12  C   UNL     1      39.131 -11.914   2.335  1.00  0.00    -0.035 A 
HETATM   13  C   UNL     1      39.225 -11.549   3.797  1.00  0.00     0.050 C 
ENDBRANCH   3   6
ENDBRANCH   1   2
BRANCH   1  14
HETATM   14  N   UNL     1      43.232 -13.853   4.972  1.00  0.00    -0.338 N 
HETATM   15  C   UNL     1      42.814 -12.913   5.879  1.00  0.00     0.273 C 
HETATM   16  O   UNL     1      41.635 -12.717   6.156  1.00  0.00    -0.266 OA
HETATM   17  H   UNL     1      44.236 -13.864   4.811  1.00  0.00     0.164 HD
BRANCH  15  18
HETATM   18  C   UNL     1      43.920 -12.152   6.480  1.00  0.00     0.145 A 
HETATM   19  N   UNL     1      44.035 -11.999   7.817  1.00  0.00    -0.170 NA
HETATM   20  N   UNL     1      45.157 -11.271   7.966  1.00  0.00    -0.289 N 
HETATM   21  H   UNL     1      45.453 -11.028   8.906  1.00  0.00     0.188 HD
HETATM   22  C   UNL     1      45.761 -10.953   6.788  1.00  0.00     0.112 A 
HETATM   23  C   UNL     1      44.986 -11.510   5.801  1.00  0.00     0.058 A 
ENDBRANCH  15  18
ENDBRANCH   1  14
BRANCH   1  24
HETATM   24  C   UNL     1      42.904 -16.081   3.818  1.00  0.00    -0.026 A 
HETATM   25  C   UNL     1      42.635 -16.759   2.618  1.00  0.00     0.010 A 
HETATM   26  C   UNL     1      43.131 -18.047   2.388  1.00  0.00     0.001 A 
HETATM   27  C   UNL     1      43.930 -18.671   3.341  1.00  0.00     0.000 A 
HETATM   28  C   UNL     1      44.244 -18.004   4.520  1.00  0.00     0.001 A 
HETATM   29  C   UNL     1      43.744 -16.721   4.751  1.00  0.00     0.010 A 
ENDBRANCH   1  24
TORSDOF 5
ENDMDL
MODEL 7
REMARK VINA RESULT:      -7.7      3.381      5.660
REMARK  5 active torsions:
REMARK  status: ('A' for Active; 'I' for Inactive)
REMARK    1  A    between atoms: C_3  and  N_4 
REMARK       I    between atoms: N_4  and  C_5 
REMARK    2  A    between atoms: C_5  and  C_6 
REMARK    3  A    between atoms: C_6  and  N_7 
REMARK    4  A    between atoms: C_6  and  C_16 
REMARK       I    between atoms: N_7  and  C_8 
REMARK    5  A    between atoms: C_8  and  C_9 
ROOT
HETATM    1  C   UNL     1      42.135 -12.556   4.090  1.00  0.00     0.210 C 
ENDROOT
BRANCH   1   2
HETATM    2  C   UNL     1      42.011 -14.114   4.153  1.00  0.00     0.249 C 
HETATM    3  N   UNL     1      43.128 -14.792   3.695  1.00  0.00    -0.324 N 
HETATM    4  H   UNL     1      43.924 -14.183   3.508  1.00  0.00     0.169 HD
HETATM    5  O   UNL     1      41.055 -14.623   4.740  1.00  0.00    -0.270 OA
BRANCH   3   6
HETATM    6  C   UNL     1      43.433 -16.168   3.843  1.00  0.00     0.046 A 
HETATM    7  C   UNL     1      43.839 -16.770   5.054  1.00  0.00    -0.035 A 
HETATM    8  C   UNL     1      43.903 -16.068   6.382  1.00  0.00     0.050 C 
HETATM    9  C   UNL     1      44.172 -18.140   5.062  1.00  0.00     0.009 A 
HETATM   10  C   UNL     1      44.046 -18.923   3.920  1.00  0.00     0.001 A 
HETATM   11  C   UNL     1      43.584 -18.351   2.745  1.00  0.00     0.009 A 
HETATM   12  C   UNL     1      43.277 -16.981   2.687  1.00  0.00    -0.035 A 
HETATM   13  C   UNL     1      42.807 -16.430   1.364  1.00  0.00     0.050 C 
ENDBRANCH   3   6
ENDBRANCH   1   2
BRANCH   1  14
HETATM   14  N   UNL     1      42.779 -11.968   5.261  1.00  0.00    -0.338 N 
HETATM   15  C   UNL     1      44.049 -11.453   5.325  1.00  0.00     0.273 C 
HETATM   16  O   UNL     1      44.780 -11.328   4.347  1.00  0.00    -0.266 OA
HETATM   17  H   UNL     1      42.316 -12.055   6.162  1.00  0.00     0.164 HD
BRANCH  15  18
HETATM   18  C   UNL     1      44.457 -11.077   6.687  1.00  0.00     0.145 A 
HETATM   19  N   UNL     1      43.554 -10.880   7.671  1.00  0.00    -0.170 NA
HETATM   20  N   UNL     1      44.303 -10.571   8.745  1.00  0.00    -0.289 N 
HETATM   21  H   UNL     1      43.833 -10.379   9.624  1.00  0.00     0.188 HD
HETATM   22  C   UNL     1      45.641 -10.561   8.491  1.00  0.00     0.112 A 
HETATM   23  C   UNL     1      45.778 -10.886   7.164  1.00  0.00     0.058 A 
ENDBRANCH  15  18
ENDBRANCH   1  14
BRANCH   1  24
HETATM   24  C   UNL     1      40.834 -11.881   3.645  1.00  0.00    -0.026 A 
HETATM   25  C   UNL     1      40.221 -12.148   2.410  1.00  0.00     0.010 A 
HETATM   26  C   UNL     1      39.031 -11.513   2.041  1.00  0.00     0.001 A 
HETATM   27  C   UNL     1      38.414 -10.620   2.911  1.00  0.00     0.000 A 
HETATM   28  C   UNL     1      38.979 -10.370   4.156  1.00  0.00     0.001 A 
HETATM   29  C   UNL     1      40.170 -11.000   4.522  1.00  0.00     0.010 A 
ENDBRANCH   1  24
TORSDOF 5
ENDMDL
MODEL 8
REMARK VINA RESULT:      -7.5      2.088      5.607
REMARK  5 active torsions:
REMARK  status: ('A' for Active; 'I' for Inactive)
REMARK    1  A    between atoms: C_3  and  N_4 
REMARK       I    between atoms: N_4  and  C_5 
REMARK    2  A    between atoms: C_5  and  C_6 
REMARK    3  A    between atoms: C_6  and  N_7 
REMARK    4  A    between atoms: C_6  and  C_16 
REMARK       I    between atoms: N_7  and  C_8 
REMARK    5  A    between atoms: C_8  and  C_9 
ROOT
HETATM    1  C   UNL     1      41.529 -13.534   0.769  1.00  0.00     0.210 C 
ENDROOT
BRANCH   1   2
HETATM    2  C   UNL     1      41.189 -12.391   1.781  1.00  0.00     0.249 C 
HETATM    3  N   UNL     1      40.019 -12.593   2.494  1.00  0.00    -0.324 N 
HETATM    4  H   UNL     1      39.616 -13.520   2.358  1.00  0.00     0.169 HD
HETATM    5  O   UNL     1      42.023 -11.514   2.008  1.00  0.00    -0.270 OA
BRANCH   3   6
HETATM    6  C   UNL     1      39.564 -11.891   3.637  1.00  0.00     0.046 A 
HETATM    7  C   UNL     1      38.860 -10.668   3.595  1.00  0.00    -0.035 A 
HETATM    8  C   UNL     1      38.398  -9.988   2.336  1.00  0.00     0.050 C 
HETATM    9  C   UNL     1      38.510 -10.034   4.804  1.00  0.00     0.009 A 
HETATM   10  C   UNL     1      38.785 -10.619   6.035  1.00  0.00     0.001 A 
HETATM   11  C   UNL     1      39.417 -11.852   6.081  1.00  0.00     0.009 A 
HETATM   12  C   UNL     1      39.814 -12.498   4.898  1.00  0.00    -0.035 A 
HETATM   13  C   UNL     1      40.521 -13.825   5.035  1.00  0.00     0.050 C 
ENDBRANCH   3   6
ENDBRANCH   1   2
BRANCH   1  14
HETATM   14  N   UNL     1      40.539 -13.695  -0.293  1.00  0.00    -0.338 N 
HETATM   15  C   UNL     1      40.395 -12.906  -1.406  1.00  0.00     0.273 C 
HETATM   16  O   UNL     1      41.174 -12.006  -1.702  1.00  0.00    -0.266 OA
HETATM   17  H   UNL     1      39.787 -14.365  -0.154  1.00  0.00     0.164 HD
BRANCH  15  18
HETATM   18  C   UNL     1      39.206 -13.237  -2.205  1.00  0.00     0.145 A 
HETATM   19  N   UNL     1      39.291 -13.962  -3.341  1.00  0.00    -0.170 NA
HETATM   20  N   UNL     1      38.016 -14.061  -3.761  1.00  0.00    -0.289 N 
HETATM   21  H   UNL     1      37.828 -14.576  -4.616  1.00  0.00     0.188 HD
HETATM   22  C   UNL     1      37.124 -13.433  -2.947  1.00  0.00     0.112 A 
HETATM   23  C   UNL     1      37.861 -12.888  -1.924  1.00  0.00     0.058 A 
ENDBRANCH  15  18
ENDBRANCH   1  14
BRANCH   1  24
HETATM   24  C   UNL     1      41.963 -14.827   1.467  1.00  0.00    -0.026 A 
HETATM   25  C   UNL     1      43.294 -15.082   1.837  1.00  0.00     0.010 A 
HETATM   26  C   UNL     1      43.650 -16.275   2.476  1.00  0.00     0.001 A 
HETATM   27  C   UNL     1      42.679 -17.223   2.783  1.00  0.00     0.000 A 
HETATM   28  C   UNL     1      41.349 -16.975   2.464  1.00  0.00     0.001 A 
HETATM   29  C   UNL     1      40.994 -15.786   1.822  1.00  0.00     0.010 A 
ENDBRANCH   1  24
TORSDOF 5
ENDMDL
MODEL 9
REMARK VINA RESULT:      -7.5      2.442      5.703
REMARK  5 active torsions:
REMARK  status: ('A' for Active; 'I' for Inactive)
REMARK    1  A    between atoms: C_3  and  N_4 
REMARK       I    between atoms: N_4  and  C_5 
REMARK    2  A    between atoms: C_5  and  C_6 
REMARK    3  A    between atoms: C_6  and  N_7 
REMARK    4  A    between atoms: C_6  and  C_16 
REMARK       I    between atoms: N_7  and  C_8 
REMARK    5  A    between atoms: C_8  and  C_9 
ROOT
HETATM    1  C   UNL     1      42.531 -14.527   2.855  1.00  0.00     0.210 C 
ENDROOT
BRANCH   1   2
HETATM    2  C   UNL     1      42.117 -13.771   4.160  1.00  0.00     0.249 C 
HETATM    3  N   UNL     1      42.817 -12.596   4.383  1.00  0.00    -0.324 N 
HETATM    4  H   UNL     1      43.407 -12.321   3.598  1.00  0.00     0.169 HD
HETATM    5  O   UNL     1      41.125 -14.142   4.788  1.00  0.00    -0.270 OA
BRANCH   3   6
HETATM    6  C   UNL     1      42.524 -11.572   5.316  1.00  0.00     0.046 A 
HETATM    7  C   UNL     1      41.450 -10.664   5.195  1.00  0.00    -0.035 A 
HETATM    8  C   UNL     1      40.399 -10.717   4.121  1.00  0.00     0.050 C 
HETATM    9  C   UNL     1      41.296  -9.649   6.160  1.00  0.00     0.009 A 
HETATM   10  C   UNL     1      42.139  -9.563   7.263  1.00  0.00     0.001 A 
HETATM   11  C   UNL     1      43.155 -10.493   7.422  1.00  0.00     0.009 A 
HETATM   12  C   UNL     1      43.363 -11.497   6.462  1.00  0.00    -0.035 A 
HETATM   13  C   UNL     1      44.508 -12.453   6.694  1.00  0.00     0.050 C 
ENDBRANCH   3   6
ENDBRANCH   1   2
BRANCH   1  14
HETATM   14  N   UNL     1      41.591 -14.354   1.750  1.00  0.00    -0.338 N 
HETATM   15  C   UNL     1      41.270 -13.176   1.126  1.00  0.00     0.273 C 
HETATM   16  O   UNL     1      41.830 -12.110   1.361  1.00  0.00    -0.266 OA
HETATM   17  H   UNL     1      41.006 -15.142   1.486  1.00  0.00     0.164 HD
BRANCH  15  18
HETATM   18  C   UNL     1      40.176 -13.313   0.153  1.00  0.00     0.145 A 
HETATM   19  N   UNL     1      39.110 -12.484   0.159  1.00  0.00    -0.170 NA
HETATM   20  N   UNL     1      38.355 -12.915  -0.868  1.00  0.00    -0.289 N 
HETATM   21  H   UNL     1      37.484 -12.432  -1.064  1.00  0.00     0.188 HD
HETATM   22  C   UNL     1      38.890 -13.979  -1.529  1.00  0.00     0.112 A 
HETATM   23  C   UNL     1      40.074 -14.264  -0.893  1.00  0.00     0.058 A 
ENDBRANCH  15  18
ENDBRANCH   1  14
BRANCH   1  24
HETATM   24  C   UNL     1      42.970 -15.969   3.127  1.00  0.00    -0.026 A 
HETATM   25  C   UNL     1      42.863 -16.991   2.169  1.00  0.00     0.010 A 
HETATM   26  C   UNL     1      43.277 -18.296   2.454  1.00  0.00     0.001 A 
HETATM   27  C   UNL     1      43.835 -18.600   3.693  1.00  0.00     0.000 A 
HETATM   28  C   UNL     1      43.990 -17.597   4.642  1.00  0.00     0.001 A 
HETATM   29  C   UNL     1      43.571 -16.295   4.359  1.00  0.00     0.010 A 
ENDBRANCH   1  24
TORSDOF 5
ENDMDL
MODEL 10
REMARK VINA RESULT:      -7.5      1.851      2.060
REMARK  5 active torsions:
REMARK  status: ('A' for Active; 'I' for Inactive)
REMARK    1  A    between atoms: C_3  and  N_4 
REMARK       I    between atoms: N_4  and  C_5 
REMARK    2  A    between atoms: C_5  and  C_6 
REMARK    3  A    between atoms: C_6  and  N_7 
REMARK    4  A    between atoms: C_6  and  C_16 
REMARK       I    between atoms: N_7  and  C_8 
REMARK    5  A    between atoms: C_8  and  C_9 
ROOT
HETATM    1  C   UNL     1      40.659 -13.664   2.697  1.00  0.00     0.210 C 
ENDROOT
BRANCH   1   2
HETATM    2  C   UNL     1      41.052 -15.110   3.145  1.00  0.00     0.249 C 
HETATM    3  N   UNL     1      42.406 -15.285   3.379  1.00  0.00    -0.324 N 
HETATM    4  H   UNL     1      42.937 -14.415   3.356  1.00  0.00     0.169 HD
HETATM    5  O   UNL     1      40.168 -15.920   3.426  1.00  0.00    -0.270 OA
BRANCH   3   6
HETATM    6  C   UNL     1      43.046 -16.375   4.018  1.00  0.00     0.046 A 
HETATM    7  C   UNL     1      43.275 -17.631   3.416  1.00  0.00    -0.035 A 
HETATM    8  C   UNL     1      42.974 -17.962   1.981  1.00  0.00     0.050 C 
HETATM    9  C   UNL     1      43.871 -18.658   4.176  1.00  0.00     0.009 A 
HETATM   10  C   UNL     1      44.296 -18.441   5.482  1.00  0.00     0.001 A 
HETATM   11  C   UNL     1      44.133 -17.190   6.055  1.00  0.00     0.009 A 
HETATM   12  C   UNL     1      43.511 -16.151   5.343  1.00  0.00    -0.035 A 
HETATM   13  C   UNL     1      43.347 -14.826   6.048  1.00  0.00     0.050 C 
ENDBRANCH   3   6
ENDBRANCH   1   2
BRANCH   1  14
HETATM   14  N   UNL     1      40.864 -13.413   1.272  1.00  0.00    -0.338 N 
HETATM   15  C   UNL     1      39.994 -12.784   0.418  1.00  0.00     0.273 C 
HETATM   16  O   UNL     1      38.952 -12.250   0.785  1.00  0.00    -0.266 OA
HETATM   17  H   UNL     1      41.659 -13.851   0.814  1.00  0.00     0.164 HD
BRANCH  15  18
HETATM   18  C   UNL     1      40.426 -12.825  -0.986  1.00  0.00     0.145 A 
HETATM   19  N   UNL     1      40.292 -13.936  -1.741  1.00  0.00    -0.170 NA
HETATM   20  N   UNL     1      40.779 -13.576  -2.943  1.00  0.00    -0.289 N 
HETATM   21  H   UNL     1      40.780 -14.264  -3.690  1.00  0.00     0.188 HD
HETATM   22  C   UNL     1      41.218 -12.288  -2.989  1.00  0.00     0.112 A 
HETATM   23  C   UNL     1      41.003 -11.768  -1.736  1.00  0.00     0.058 A 
ENDBRANCH  15  18
ENDBRANCH   1  14
BRANCH   1  24
HETATM   24  C   UNL     1      41.204 -12.588   3.641  1.00  0.00    -0.026 A 
HETATM   25  C   UNL     1      40.726 -12.411   4.949  1.00  0.00     0.010 A 
HETATM   26  C   UNL     1      41.252 -11.418   5.783  1.00  0.00     0.001 A 
HETATM   27  C   UNL     1      42.286 -10.602   5.335  1.00  0.00     0.000 A 
HETATM   28  C   UNL     1      42.804 -10.785   4.058  1.00  0.00     0.001 A 
HETATM   29  C   UNL     1      42.275 -11.773   3.224  1.00  0.00     0.010 A 
ENDBRANCH   1  24
TORSDOF 5
ENDMDL
