MODEL 1
REMARK VINA RESULT:      -7.8      0.000      0.000
REMARK  5 active torsions:
REMARK  status: ('A' for Active; 'I' for Inactive)
REMARK    1  A    between atoms: C_2  and  C_3 
REMARK    2  A    between atoms: C_3  and  N_4 
REMARK    3  A    between atoms: C_3  and  C_19 
REMARK       I    between atoms: N_4  and  C_5 
REMARK       I    between atoms: C_5  and  N_6 
REMARK    4  A    between atoms: N_6  and  C_7 
REMARK    5  A    between atoms: C_12  and  C_13 
ROOT
HETATM    1  N   UNL     1      42.276 -12.866   5.725  1.00  0.00    -0.334 N 
HETATM    2  C   UNL     1      41.056 -13.433   5.606  1.00  0.00     0.321 C 
HETATM    3  N   UNL     1      40.957 -14.790   5.620  1.00  0.00    -0.306 N 
HETATM    4  O   UNL     1      40.015 -12.776   5.590  1.00  0.00    -0.247 OA
HETATM    5  H   UNL     1      43.073 -13.412   5.445  1.00  0.00     0.165 HD
HETATM    6  H   UNL     1      39.986 -15.046   5.752  1.00  0.00     0.171 HD
ENDROOT
BRANCH   1   7
HETATM    7  C   UNL     1      42.461 -11.428   5.772  1.00  0.00     0.122 C 
BRANCH   7   8
HETATM    8  C   UNL     1      42.888 -10.841   4.415  1.00  0.00     0.026 C 
HETATM    9  C   UNL     1      43.718 -11.772   3.538  1.00  0.00     0.007 C 
ENDBRANCH   7   8
BRANCH   7  10
HETATM   10  C   UNL     1      43.403 -11.102   6.892  1.00  0.00     0.001 A 
HETATM   11  C   UNL     1      43.289 -10.179   7.917  1.00  0.00     0.122 A 
HETATM   12  N   UNL     1      44.439 -10.265   8.647  1.00  0.00    -0.285 N 
HETATM   13  C   UNL     1      44.803  -9.470   9.793  1.00  0.00     0.179 C 
HETATM   14  N   UNL     1      45.290 -11.199   8.192  1.00  0.00    -0.185 NA
HETATM   15  C   UNL     1      44.665 -11.701   7.125  1.00  0.00     0.149 A 
ENDBRANCH   7  10
ENDBRANCH   1   7
BRANCH   3  16
HETATM   16  C   UNL     1      41.882 -15.852   5.560  1.00  0.00     0.075 A 
HETATM   17  C   UNL     1      42.527 -16.452   6.645  1.00  0.00     0.143 A 
HETATM   18  F   UNL     1      42.337 -16.024   7.901  1.00  0.00    -0.204 F 
HETATM   19  C   UNL     1      43.443 -17.490   6.465  1.00  0.00     0.045 A 
HETATM   20  C   UNL     1      43.734 -17.952   5.184  1.00  0.00     0.019 A 
HETATM   21  C   UNL     1      43.117 -17.366   4.071  1.00  0.00     0.050 A 
HETATM   22  C   UNL     1      42.205 -16.312   4.272  1.00  0.00     0.049 A 
BRANCH  21  23
HETATM   23  C   UNL     1      43.406 -17.852   2.669  1.00  0.00     0.417 C 
HETATM   24  F   UNL     1      43.611 -16.846   1.775  1.00  0.00    -0.166 F 
HETATM   25  F   UNL     1      44.516 -18.636   2.614  1.00  0.00    -0.166 F 
HETATM   26  F   UNL     1      42.389 -18.603   2.164  1.00  0.00    -0.166 F 
ENDBRANCH  21  23
ENDBRANCH   3  16
TORSDOF 5
ENDMDL
MODEL 2
REMARK VINA RESULT:      -7.8      1.657      2.422
REMARK  5 active torsions:
REMARK  status: ('A' for Active; 'I' for Inactive)
REMARK    1  A    between atoms: C_2  and  C_3 
REMARK    2  A    between atoms: C_3  and  N_4 
REMARK    3  A    between atoms: C_3  and  C_19 
REMARK       I    between atoms: N_4  and  C_5 
REMARK       I    between atoms: C_5  and  N_6 
REMARK    4  A    between atoms: N_6  and  C_7 
REMARK    5  A    between atoms: C_12  and  C_13 
ROOT
HETATM    1  N   UNL     1      41.395 -12.915   5.310  1.00  0.00    -0.334 N 
HETATM    2  C   UNL     1      40.341 -13.680   5.669  1.00  0.00     0.321 C 
HETATM    3  N   UNL     1      40.320 -14.987   5.296  1.00  0.00    -0.306 N 
HETATM    4  O   UNL     1      39.446 -13.273   6.409  1.00  0.00    -0.247 OA
HETATM    5  H   UNL     1      41.919 -13.196   4.498  1.00  0.00     0.165 HD
HETATM    6  H   UNL     1      39.600 -15.467   5.824  1.00  0.00     0.171 HD
ENDROOT
BRANCH   1   7
HETATM    7  C   UNL     1      41.519 -11.527   5.713  1.00  0.00     0.122 C 
BRANCH   7   8
HETATM    8  C   UNL     1      41.453 -10.556   4.521  1.00  0.00     0.026 C 
HETATM    9  C   UNL     1      42.450 -10.835   3.402  1.00  0.00     0.007 C 
ENDBRANCH   7   8
BRANCH   7  10
HETATM   10  C   UNL     1      42.758 -11.378   6.544  1.00  0.00     0.001 A 
HETATM   11  C   UNL     1      43.222 -10.297   7.273  1.00  0.00     0.122 A 
HETATM   12  N   UNL     1      44.413 -10.678   7.818  1.00  0.00    -0.285 N 
HETATM   13  C   UNL     1      45.296  -9.875   8.627  1.00  0.00     0.179 C 
HETATM   14  N   UNL     1      44.755 -11.943   7.522  1.00  0.00    -0.185 NA
HETATM   15  C   UNL     1      43.756 -12.364   6.743  1.00  0.00     0.149 A 
ENDBRANCH   7  10
ENDBRANCH   1   7
BRANCH   3  16
HETATM   16  C   UNL     1      41.092 -15.783   4.426  1.00  0.00     0.075 A 
HETATM   17  C   UNL     1      40.833 -16.026   3.074  1.00  0.00     0.143 A 
HETATM   18  F   UNL     1      39.752 -15.521   2.464  1.00  0.00    -0.204 F 
HETATM   19  C   UNL     1      41.660 -16.851   2.310  1.00  0.00     0.045 A 
HETATM   20  C   UNL     1      42.774 -17.456   2.890  1.00  0.00     0.019 A 
HETATM   21  C   UNL     1      43.057 -17.247   4.246  1.00  0.00     0.050 A 
HETATM   22  C   UNL     1      42.205 -16.421   5.002  1.00  0.00     0.049 A 
BRANCH  21  23
HETATM   23  C   UNL     1      44.263 -17.882   4.900  1.00  0.00     0.417 C 
HETATM   24  F   UNL     1      45.040 -18.592   4.037  1.00  0.00    -0.166 F 
HETATM   25  F   UNL     1      45.084 -16.960   5.473  1.00  0.00    -0.166 F 
HETATM   26  F   UNL     1      43.916 -18.746   5.893  1.00  0.00    -0.166 F 
ENDBRANCH  21  23
ENDBRANCH   3  16
TORSDOF 5
ENDMDL
MODEL 3
REMARK VINA RESULT:      -7.4      4.212      6.753
REMARK  5 active torsions:
REMARK  status: ('A' for Active; 'I' for Inactive)
REMARK    1  A    between atoms: C_2  and  C_3 
REMARK    2  A    between atoms: C_3  and  N_4 
REMARK    3  A    between atoms: C_3  and  C_19 
REMARK       I    between atoms: N_4  and  C_5 
REMARK       I    between atoms: C_5  and  N_6 
REMARK    4  A    between atoms: N_6  and  C_7 
REMARK    5  A    between atoms: C_12  and  C_13 
ROOT
HETATM    1  N   UNL     1      41.105 -13.523   1.977  1.00  0.00    -0.334 N 
HETATM    2  C   UNL     1      42.277 -13.036   2.438  1.00  0.00     0.321 C 
HETATM    3  N   UNL     1      43.238 -13.909   2.844  1.00  0.00    -0.306 N 
HETATM    4  O   UNL     1      42.557 -11.838   2.411  1.00  0.00    -0.247 OA
HETATM    5  H   UNL     1      40.827 -14.439   2.287  1.00  0.00     0.165 HD
HETATM    6  H   UNL     1      44.115 -13.411   2.939  1.00  0.00     0.171 HD
ENDROOT
BRANCH   1   7
HETATM    7  C   UNL     1      40.051 -12.661   1.476  1.00  0.00     0.122 C 
BRANCH   7   8
HETATM    8  C   UNL     1      38.945 -12.411   2.517  1.00  0.00     0.026 C 
HETATM    9  C   UNL     1      39.103 -11.136   3.337  1.00  0.00     0.007 C 
ENDBRANCH   7   8
BRANCH   7  10
HETATM   10  C   UNL     1      39.544 -13.226   0.183  1.00  0.00     0.001 A 
HETATM   11  C   UNL     1      38.654 -12.698  -0.736  1.00  0.00     0.122 A 
HETATM   12  N   UNL     1      38.514 -13.631  -1.721  1.00  0.00    -0.285 N 
HETATM   13  C   UNL     1      37.657 -13.553  -2.878  1.00  0.00     0.179 C 
HETATM   14  N   UNL     1      39.269 -14.725  -1.530  1.00  0.00    -0.185 NA
HETATM   15  C   UNL     1      39.887 -14.483  -0.372  1.00  0.00     0.149 A 
ENDBRANCH   7  10
ENDBRANCH   1   7
BRANCH   3  16
HETATM   16  C   UNL     1      43.279 -15.298   3.081  1.00  0.00     0.075 A 
HETATM   17  C   UNL     1      43.269 -16.306   2.113  1.00  0.00     0.143 A 
HETATM   18  F   UNL     1      43.181 -16.023   0.805  1.00  0.00    -0.204 F 
HETATM   19  C   UNL     1      43.294 -17.656   2.466  1.00  0.00     0.045 A 
HETATM   20  C   UNL     1      43.330 -18.028   3.808  1.00  0.00     0.019 A 
HETATM   21  C   UNL     1      43.327 -17.046   4.807  1.00  0.00     0.050 A 
HETATM   22  C   UNL     1      43.290 -15.690   4.431  1.00  0.00     0.049 A 
BRANCH  21  23
HETATM   23  C   UNL     1      43.375 -17.419   6.271  1.00  0.00     0.417 C 
HETATM   24  F   UNL     1      44.489 -16.969   6.911  1.00  0.00    -0.166 F 
HETATM   25  F   UNL     1      42.316 -16.920   6.965  1.00  0.00    -0.166 F 
HETATM   26  F   UNL     1      43.349 -18.766   6.462  1.00  0.00    -0.166 F 
ENDBRANCH  21  23
ENDBRANCH   3  16
TORSDOF 5
ENDMDL
MODEL 4
REMARK VINA RESULT:      -7.1      3.291      7.567
REMARK  5 active torsions:
REMARK  status: ('A' for Active; 'I' for Inactive)
REMARK    1  A    between atoms: C_2  and  C_3 
REMARK    2  A    between atoms: C_3  and  N_4 
REMARK    3  A    between atoms: C_3  and  C_19 
REMARK       I    between atoms: N_4  and  C_5 
REMARK       I    between atoms: C_5  and  N_6 
REMARK    4  A    between atoms: N_6  and  C_7 
REMARK    5  A    between atoms: C_12  and  C_13 
ROOT
HETATM    1  N   UNL     1      41.934 -13.579   6.261  1.00  0.00    -0.334 N 
HETATM    2  C   UNL     1      41.331 -12.372   6.307  1.00  0.00     0.321 C 
HETATM    3  N   UNL     1      42.083 -11.271   6.570  1.00  0.00    -0.306 N 
HETATM    4  O   UNL     1      40.145 -12.209   6.018  1.00  0.00    -0.247 OA
HETATM    5  H   UNL     1      42.792 -13.691   6.773  1.00  0.00     0.165 HD
HETATM    6  H   UNL     1      41.543 -10.443   6.347  1.00  0.00     0.171 HD
ENDROOT
BRANCH   1   7
HETATM    7  C   UNL     1      41.212 -14.795   5.934  1.00  0.00     0.122 C 
BRANCH   7   8
HETATM    8  C   UNL     1      41.483 -15.932   6.935  1.00  0.00     0.026 C 
HETATM    9  C   UNL     1      42.783 -15.808   7.721  1.00  0.00     0.007 C 
ENDBRANCH   7   8
BRANCH   7  10
HETATM   10  C   UNL     1      41.510 -15.162   4.511  1.00  0.00     0.001 A 
HETATM   11  C   UNL     1      42.687 -15.599   3.928  1.00  0.00     0.122 A 
HETATM   12  N   UNL     1      42.425 -15.761   2.599  1.00  0.00    -0.285 N 
HETATM   13  C   UNL     1      43.353 -16.163   1.571  1.00  0.00     0.179 C 
HETATM   14  N   UNL     1      41.151 -15.489   2.270  1.00  0.00    -0.185 NA
HETATM   15  C   UNL     1      40.600 -15.118   3.427  1.00  0.00     0.149 A 
ENDBRANCH   7  10
ENDBRANCH   1   7
BRANCH   3  16
HETATM   16  C   UNL     1      43.408 -11.054   7.001  1.00  0.00     0.075 A 
HETATM   17  C   UNL     1      44.570 -11.293   6.262  1.00  0.00     0.143 A 
HETATM   18  F   UNL     1      44.524 -11.805   5.025  1.00  0.00    -0.204 F 
HETATM   19  C   UNL     1      45.836 -11.058   6.801  1.00  0.00     0.045 A 
HETATM   20  C   UNL     1      45.966 -10.577   8.102  1.00  0.00     0.019 A 
HETATM   21  C   UNL     1      44.824 -10.340   8.878  1.00  0.00     0.050 A 
HETATM   22  C   UNL     1      43.556 -10.594   8.321  1.00  0.00     0.049 A 
BRANCH  21  23
HETATM   23  C   UNL     1      44.933  -9.810  10.289  1.00  0.00     0.417 C 
HETATM   24  F   UNL     1      44.593 -10.721  11.241  1.00  0.00    -0.166 F 
HETATM   25  F   UNL     1      46.196  -9.403  10.591  1.00  0.00    -0.166 F 
HETATM   26  F   UNL     1      44.130  -8.731  10.497  1.00  0.00    -0.166 F 
ENDBRANCH  21  23
ENDBRANCH   3  16
TORSDOF 5
ENDMDL
MODEL 5
REMARK VINA RESULT:      -7.0      1.147      1.744
REMARK  5 active torsions:
REMARK  status: ('A' for Active; 'I' for Inactive)
REMARK    1  A    between atoms: C_2  and  C_3 
REMARK    2  A    between atoms: C_3  and  N_4 
REMARK    3  A    between atoms: C_3  and  C_19 
REMARK       I    between atoms: N_4  and  C_5 
REMARK       I    between atoms: C_5  and  N_6 
REMARK    4  A    between atoms: N_6  and  C_7 
REMARK    5  A    between atoms: C_12  and  C_13 
ROOT
HETATM    1  N   UNL     1      41.445 -13.088   5.456  1.00  0.00    -0.334 N 
HETATM    2  C   UNL     1      40.495 -13.892   5.980  1.00  0.00     0.321 C 
HETATM    3  N   UNL     1      40.808 -15.185   6.260  1.00  0.00    -0.306 N 
HETATM    4  O   UNL     1      39.384 -13.479   6.314  1.00  0.00    -0.247 OA
HETATM    5  H   UNL     1      42.197 -13.524   4.950  1.00  0.00     0.165 HD
HETATM    6  H   UNL     1      40.081 -15.580   6.845  1.00  0.00     0.171 HD
ENDROOT
BRANCH   1   7
HETATM    7  C   UNL     1      41.207 -11.684   5.180  1.00  0.00     0.122 C 
BRANCH   7   8
HETATM    8  C   UNL     1      41.511 -11.308   3.718  1.00  0.00     0.026 C 
HETATM    9  C   UNL     1      41.345  -9.831   3.382  1.00  0.00     0.007 C 
ENDBRANCH   7   8
BRANCH   7  10
HETATM   10  C   UNL     1      41.962 -10.863   6.182  1.00  0.00     0.001 A 
HETATM   11  C   UNL     1      43.321 -10.783   6.432  1.00  0.00     0.122 A 
HETATM   12  N   UNL     1      43.474  -9.910   7.469  1.00  0.00    -0.285 N 
HETATM   13  C   UNL     1      44.708  -9.534   8.114  1.00  0.00     0.179 C 
HETATM   14  N   UNL     1      42.315  -9.387   7.902  1.00  0.00    -0.185 NA
HETATM   15  C   UNL     1      41.399  -9.971   7.128  1.00  0.00     0.149 A 
ENDBRANCH   7  10
ENDBRANCH   1   7
BRANCH   3  16
HETATM   16  C   UNL     1      41.905 -16.023   5.977  1.00  0.00     0.075 A 
HETATM   17  C   UNL     1      42.893 -16.430   6.878  1.00  0.00     0.143 A 
HETATM   18  F   UNL     1      42.899 -16.009   8.151  1.00  0.00    -0.204 F 
HETATM   19  C   UNL     1      43.950 -17.250   6.480  1.00  0.00     0.045 A 
HETATM   20  C   UNL     1      44.041 -17.683   5.159  1.00  0.00     0.019 A 
HETATM   21  C   UNL     1      43.077 -17.285   4.224  1.00  0.00     0.050 A 
HETATM   22  C   UNL     1      42.025 -16.447   4.642  1.00  0.00     0.049 A 
BRANCH  21  23
HETATM   23  C   UNL     1      43.144 -17.746   2.786  1.00  0.00     0.417 C 
HETATM   24  F   UNL     1      43.793 -18.931   2.624  1.00  0.00    -0.166 F 
HETATM   25  F   UNL     1      41.909 -17.916   2.242  1.00  0.00    -0.166 F 
HETATM   26  F   UNL     1      43.788 -16.852   1.987  1.00  0.00    -0.166 F 
ENDBRANCH  21  23
ENDBRANCH   3  16
TORSDOF 5
ENDMDL
MODEL 6
REMARK VINA RESULT:      -7.0      2.620      3.080
REMARK  5 active torsions:
REMARK  status: ('A' for Active; 'I' for Inactive)
REMARK    1  A    between atoms: C_2  and  C_3 
REMARK    2  A    between atoms: C_3  and  N_4 
REMARK    3  A    between atoms: C_3  and  C_19 
REMARK       I    between atoms: N_4  and  C_5 
REMARK       I    between atoms: C_5  and  N_6 
REMARK    4  A    between atoms: N_6  and  C_7 
REMARK    5  A    between atoms: C_12  and  C_13 
ROOT
HETATM    1  N   UNL     1      40.489 -12.338   4.335  1.00  0.00    -0.334 N 
HETATM    2  C   UNL     1      39.708 -13.064   3.507  1.00  0.00     0.321 C 
HETATM    3  N   UNL     1      39.822 -14.419   3.515  1.00  0.00    -0.306 N 
HETATM    4  O   UNL     1      38.821 -12.561   2.817  1.00  0.00    -0.247 OA
HETATM    5  H   UNL     1      41.356 -12.749   4.637  1.00  0.00     0.165 HD
HETATM    6  H   UNL     1      39.030 -14.818   3.024  1.00  0.00     0.171 HD
ENDROOT
BRANCH   1   7
HETATM    7  C   UNL     1      40.392 -10.893   4.425  1.00  0.00     0.122 C 
BRANCH   7   8
HETATM    8  C   UNL     1      41.691 -10.184   4.003  1.00  0.00     0.026 C 
HETATM    9  C   UNL     1      42.943 -11.054   4.034  1.00  0.00     0.007 C 
ENDBRANCH   7   8
BRANCH   7  10
HETATM   10  C   UNL     1      39.927 -10.529   5.803  1.00  0.00     0.001 A 
HETATM   11  C   UNL     1      40.336  -9.510   6.645  1.00  0.00     0.122 A 
HETATM   12  N   UNL     1      39.614  -9.643   7.795  1.00  0.00    -0.285 N 
HETATM   13  C   UNL     1      39.718  -8.836   8.986  1.00  0.00     0.179 C 
HETATM   14  N   UNL     1      38.737 -10.659   7.759  1.00  0.00    -0.185 NA
HETATM   15  C   UNL     1      38.933 -11.201   6.555  1.00  0.00     0.149 A 
ENDBRANCH   7  10
ENDBRANCH   1   7
BRANCH   3  16
HETATM   16  C   UNL     1      40.726 -15.335   4.090  1.00  0.00     0.075 A 
HETATM   17  C   UNL     1      40.903 -15.579   5.455  1.00  0.00     0.143 A 
HETATM   18  F   UNL     1      40.213 -14.904   6.386  1.00  0.00    -0.204 F 
HETATM   19  C   UNL     1      41.846 -16.500   5.914  1.00  0.00     0.045 A 
HETATM   20  C   UNL     1      42.639 -17.201   5.008  1.00  0.00     0.019 A 
HETATM   21  C   UNL     1      42.500 -16.973   3.633  1.00  0.00     0.050 A 
HETATM   22  C   UNL     1      41.551 -16.031   3.190  1.00  0.00     0.049 A 
BRANCH  21  23
HETATM   23  C   UNL     1      43.338 -17.724   2.625  1.00  0.00     0.417 C 
HETATM   24  F   UNL     1      44.435 -18.322   3.167  1.00  0.00    -0.166 F 
HETATM   25  F   UNL     1      42.638 -18.713   2.007  1.00  0.00    -0.166 F 
HETATM   26  F   UNL     1      43.802 -16.915   1.634  1.00  0.00    -0.166 F 
ENDBRANCH  21  23
ENDBRANCH   3  16
TORSDOF 5
ENDMDL
MODEL 7
REMARK VINA RESULT:      -7.0      2.897      5.235
REMARK  5 active torsions:
REMARK  status: ('A' for Active; 'I' for Inactive)
REMARK    1  A    between atoms: C_2  and  C_3 
REMARK    2  A    between atoms: C_3  and  N_4 
REMARK    3  A    between atoms: C_3  and  C_19 
REMARK       I    between atoms: N_4  and  C_5 
REMARK       I    between atoms: C_5  and  N_6 
REMARK    4  A    between atoms: N_6  and  C_7 
REMARK    5  A    between atoms: C_12  and  C_13 
ROOT
HETATM    1  N   UNL     1      41.557 -13.923   4.049  1.00  0.00    -0.334 N 
HETATM    2  C   UNL     1      42.363 -13.469   5.032  1.00  0.00     0.321 C 
HETATM    3  N   UNL     1      43.174 -14.349   5.678  1.00  0.00    -0.306 N 
HETATM    4  O   UNL     1      42.475 -12.272   5.301  1.00  0.00    -0.247 OA
HETATM    5  H   UNL     1      41.295 -14.894   4.073  1.00  0.00     0.165 HD
HETATM    6  H   UNL     1      43.863 -13.831   6.211  1.00  0.00     0.171 HD
ENDROOT
BRANCH   1   7
HETATM    7  C   UNL     1      40.704 -13.041   3.276  1.00  0.00     0.122 C 
BRANCH   7   8
HETATM    8  C   UNL     1      39.457 -12.589   4.057  1.00  0.00     0.026 C 
HETATM    9  C   UNL     1      39.202 -11.086   4.058  1.00  0.00     0.007 C 
ENDBRANCH   7   8
BRANCH   7  10
HETATM   10  C   UNL     1      40.388 -13.704   1.969  1.00  0.00     0.001 A 
HETATM   11  C   UNL     1      40.277 -13.168   0.697  1.00  0.00     0.122 A 
HETATM   12  N   UNL     1      39.943 -14.199  -0.131  1.00  0.00    -0.285 N 
HETATM   13  C   UNL     1      39.677 -14.126  -1.547  1.00  0.00     0.179 C 
HETATM   14  N   UNL     1      39.853 -15.381   0.499  1.00  0.00    -0.185 NA
HETATM   15  C   UNL     1      40.115 -15.080   1.772  1.00  0.00     0.149 A 
ENDBRANCH   7  10
ENDBRANCH   1   7
BRANCH   3  16
HETATM   16  C   UNL     1      43.289 -15.753   5.707  1.00  0.00     0.075 A 
HETATM   17  C   UNL     1      43.276 -16.564   6.845  1.00  0.00     0.143 A 
HETATM   18  F   UNL     1      43.178 -16.045   8.077  1.00  0.00    -0.204 F 
HETATM   19  C   UNL     1      43.418 -17.950   6.755  1.00  0.00     0.045 A 
HETATM   20  C   UNL     1      43.579 -18.558   5.512  1.00  0.00     0.019 A 
HETATM   21  C   UNL     1      43.612 -17.776   4.349  1.00  0.00     0.050 A 
HETATM   22  C   UNL     1      43.479 -16.379   4.462  1.00  0.00     0.049 A 
BRANCH  21  23
HETATM   23  C   UNL     1      43.776 -18.407   2.986  1.00  0.00     0.417 C 
HETATM   24  F   UNL     1      42.927 -19.447   2.761  1.00  0.00    -0.166 F 
HETATM   25  F   UNL     1      43.560 -17.520   1.978  1.00  0.00    -0.166 F 
HETATM   26  F   UNL     1      45.031 -18.898   2.792  1.00  0.00    -0.166 F 
ENDBRANCH  21  23
ENDBRANCH   3  16
TORSDOF 5
ENDMDL
MODEL 8
REMARK VINA RESULT:      -6.9      3.629      5.847
REMARK  5 active torsions:
REMARK  status: ('A' for Active; 'I' for Inactive)
REMARK    1  A    between atoms: C_2  and  C_3 
REMARK    2  A    between atoms: C_3  and  N_4 
REMARK    3  A    between atoms: C_3  and  C_19 
REMARK       I    between atoms: N_4  and  C_5 
REMARK       I    between atoms: C_5  and  N_6 
REMARK    4  A    between atoms: N_6  and  C_7 
REMARK    5  A    between atoms: C_12  and  C_13 
ROOT
HETATM    1  N   UNL     1      41.800 -13.959   5.294  1.00  0.00    -0.334 N 
HETATM    2  C   UNL     1      40.462 -13.778   5.332  1.00  0.00     0.321 C 
HETATM    3  N   UNL     1      39.818 -13.393   4.198  1.00  0.00    -0.306 N 
HETATM    4  O   UNL     1      39.782 -14.047   6.323  1.00  0.00    -0.247 OA
HETATM    5  H   UNL     1      42.317 -13.463   4.589  1.00  0.00     0.165 HD
HETATM    6  H   UNL     1      38.822 -13.522   4.327  1.00  0.00     0.171 HD
ENDROOT
BRANCH   1   7
HETATM    7  C   UNL     1      42.553 -14.420   6.445  1.00  0.00     0.122 C 
BRANCH   7   8
HETATM    8  C   UNL     1      43.685 -13.454   6.838  1.00  0.00     0.026 C 
HETATM    9  C   UNL     1      43.855 -12.248   5.921  1.00  0.00     0.007 C 
ENDBRANCH   7   8
BRANCH   7  10
HETATM   10  C   UNL     1      43.021 -15.820   6.183  1.00  0.00     0.001 A 
HETATM   11  C   UNL     1      43.612 -16.370   5.059  1.00  0.00     0.122 A 
HETATM   12  N   UNL     1      43.810 -17.692   5.332  1.00  0.00    -0.285 N 
HETATM   13  C   UNL     1      44.362 -18.690   4.449  1.00  0.00     0.179 C 
HETATM   14  N   UNL     1      43.417 -18.046   6.567  1.00  0.00    -0.185 NA
HETATM   15  C   UNL     1      42.931 -16.914   7.079  1.00  0.00     0.149 A 
ENDBRANCH   7  10
ENDBRANCH   1   7
BRANCH   3  16
HETATM   16  C   UNL     1      40.230 -12.940   2.929  1.00  0.00     0.075 A 
HETATM   17  C   UNL     1      40.981 -11.792   2.662  1.00  0.00     0.143 A 
HETATM   18  F   UNL     1      41.367 -10.960   3.640  1.00  0.00    -0.204 F 
HETATM   19  C   UNL     1      41.317 -11.428   1.356  1.00  0.00     0.045 A 
HETATM   20  C   UNL     1      40.904 -12.214   0.282  1.00  0.00     0.019 A 
HETATM   21  C   UNL     1      40.138 -13.365   0.510  1.00  0.00     0.050 A 
HETATM   22  C   UNL     1      39.799 -13.708   1.833  1.00  0.00     0.049 A 
BRANCH  21  23
HETATM   23  C   UNL     1      39.683 -14.242  -0.633  1.00  0.00     0.417 C 
HETATM   24  F   UNL     1      38.506 -13.845  -1.189  1.00  0.00    -0.166 F 
HETATM   25  F   UNL     1      40.587 -14.274  -1.649  1.00  0.00    -0.166 F 
HETATM   26  F   UNL     1      39.501 -15.535  -0.250  1.00  0.00    -0.166 F 
ENDBRANCH  21  23
ENDBRANCH   3  16
TORSDOF 5
ENDMDL
MODEL 9
REMARK VINA RESULT:      -6.8      3.845      5.416
REMARK  5 active torsions:
REMARK  status: ('A' for Active; 'I' for Inactive)
REMARK    1  A    between atoms: C_2  and  C_3 
REMARK    2  A    between atoms: C_3  and  N_4 
REMARK    3  A    between atoms: C_3  and  C_19 
REMARK       I    between atoms: N_4  and  C_5 
REMARK       I    between atoms: C_5  and  N_6 
REMARK    4  A    between atoms: N_6  and  C_7 
REMARK    5  A    between atoms: C_12  and  C_13 
ROOT
HETATM    1  N   UNL     1      40.338 -13.513   1.636  1.00  0.00    -0.334 N 
HETATM    2  C   UNL     1      39.529 -13.488   2.716  1.00  0.00     0.321 C 
HETATM    3  N   UNL     1      39.975 -14.020   3.885  1.00  0.00    -0.306 N 
HETATM    4  O   UNL     1      38.441 -12.910   2.719  1.00  0.00    -0.247 OA
HETATM    5  H   UNL     1      41.051 -14.222   1.603  1.00  0.00     0.165 HD
HETATM    6  H   UNL     1      39.362 -13.724   4.635  1.00  0.00     0.171 HD
ENDROOT
BRANCH   1   7
HETATM    7  C   UNL     1      39.958 -12.919   0.368  1.00  0.00     0.122 C 
BRANCH   7   8
HETATM    8  C   UNL     1      40.084 -13.904  -0.809  1.00  0.00     0.026 C 
HETATM    9  C   UNL     1      38.850 -14.013  -1.697  1.00  0.00     0.007 C 
ENDBRANCH   7   8
BRANCH   7  10
HETATM   10  C   UNL     1      40.738 -11.652   0.178  1.00  0.00     0.001 A 
HETATM   11  C   UNL     1      41.015 -10.935  -0.973  1.00  0.00     0.122 A 
HETATM   12  N   UNL     1      41.788  -9.877  -0.595  1.00  0.00    -0.285 N 
HETATM   13  C   UNL     1      42.362  -8.869  -1.452  1.00  0.00     0.179 C 
HETATM   14  N   UNL     1      42.017  -9.830   0.728  1.00  0.00    -0.185 NA
HETATM   15  C   UNL     1      41.388 -10.910   1.195  1.00  0.00     0.149 A 
ENDBRANCH   7  10
ENDBRANCH   1   7
BRANCH   3  16
HETATM   16  C   UNL     1      41.089 -14.798   4.259  1.00  0.00     0.075 A 
HETATM   17  C   UNL     1      41.774 -14.735   5.475  1.00  0.00     0.143 A 
HETATM   18  F   UNL     1      41.431 -13.860   6.431  1.00  0.00    -0.204 F 
HETATM   19  C   UNL     1      42.881 -15.546   5.731  1.00  0.00     0.045 A 
HETATM   20  C   UNL     1      43.330 -16.443   4.764  1.00  0.00     0.019 A 
HETATM   21  C   UNL     1      42.678 -16.524   3.527  1.00  0.00     0.050 A 
HETATM   22  C   UNL     1      41.569 -15.690   3.284  1.00  0.00     0.049 A 
BRANCH  21  23
HETATM   23  C   UNL     1      43.135 -17.494   2.462  1.00  0.00     0.417 C 
HETATM   24  F   UNL     1      42.204 -18.434   2.145  1.00  0.00    -0.166 F 
HETATM   25  F   UNL     1      43.450 -16.868   1.296  1.00  0.00    -0.166 F 
HETATM   26  F   UNL     1      44.251 -18.179   2.834  1.00  0.00    -0.166 F 
ENDBRANCH  21  23
ENDBRANCH   3  16
TORSDOF 5
ENDMDL
MODEL 10
REMARK VINA RESULT:      -6.7     16.409     18.325
REMARK  5 active torsions:
REMARK  status: ('A' for Active; 'I' for Inactive)
REMARK    1  A    between atoms: C_2  and  C_3 
REMARK    2  A    between atoms: C_3  and  N_4 
REMARK    3  A    between atoms: C_3  and  C_19 
REMARK       I    between atoms: N_4  and  C_5 
REMARK       I    between atoms: C_5  and  N_6 
REMARK    4  A    between atoms: N_6  and  C_7 
REMARK    5  A    between atoms: C_12  and  C_13 
ROOT
HETATM    1  N   UNL     1      49.571 -30.195  -0.305  1.00  0.00    -0.334 N 
HETATM    2  C   UNL     1      49.805 -29.829  -1.584  1.00  0.00     0.321 C 
HETATM    3  N   UNL     1      48.837 -29.160  -2.264  1.00  0.00    -0.306 N 
HETATM    4  O   UNL     1      50.898 -29.982  -2.130  1.00  0.00    -0.247 OA
HETATM    5  H   UNL     1      48.613 -30.310  -0.022  1.00  0.00     0.165 HD
HETATM    6  H   UNL     1      49.240 -28.764  -3.105  1.00  0.00     0.171 HD
ENDROOT
BRANCH   1   7
HETATM    7  C   UNL     1      50.571 -30.864   0.506  1.00  0.00     0.122 C 
BRANCH   7   8
HETATM    8  C   UNL     1      50.862 -32.297   0.025  1.00  0.00     0.026 C 
HETATM    9  C   UNL     1      52.327 -32.594  -0.276  1.00  0.00     0.007 C 
ENDBRANCH   7   8
BRANCH   7  10
HETATM   10  C   UNL     1      50.154 -30.784   1.943  1.00  0.00     0.001 A 
HETATM   11  C   UNL     1      48.960 -31.135   2.550  1.00  0.00     0.122 A 
HETATM   12  N   UNL     1      49.093 -30.833   3.873  1.00  0.00    -0.285 N 
HETATM   13  C   UNL     1      48.096 -30.982   4.904  1.00  0.00     0.179 C 
HETATM   14  N   UNL     1      50.300 -30.333   4.188  1.00  0.00    -0.185 NA
HETATM   15  C   UNL     1      50.939 -30.296   3.017  1.00  0.00     0.149 A 
ENDBRANCH   7  10
ENDBRANCH   1   7
BRANCH   3  16
HETATM   16  C   UNL     1      47.480 -28.862  -2.023  1.00  0.00     0.075 A 
HETATM   17  C   UNL     1      46.974 -28.103  -0.964  1.00  0.00     0.143 A 
HETATM   18  F   UNL     1      47.775 -27.591  -0.019  1.00  0.00    -0.204 F 
HETATM   19  C   UNL     1      45.602 -27.888  -0.813  1.00  0.00     0.045 A 
HETATM   20  C   UNL     1      44.703 -28.434  -1.726  1.00  0.00     0.019 A 
HETATM   21  C   UNL     1      45.173 -29.213  -2.791  1.00  0.00     0.050 A 
HETATM   22  C   UNL     1      46.558 -29.428  -2.921  1.00  0.00     0.049 A 
BRANCH  21  23
HETATM   23  C   UNL     1      44.222 -29.811  -3.803  1.00  0.00     0.417 C 
HETATM   24  F   UNL     1      44.691 -29.771  -5.080  1.00  0.00    -0.166 F 
HETATM   25  F   UNL     1      43.949 -31.118  -3.543  1.00  0.00    -0.166 F 
HETATM   26  F   UNL     1      43.021 -29.171  -3.823  1.00  0.00    -0.166 F 
ENDBRANCH  21  23
ENDBRANCH   3  16
TORSDOF 5
ENDMDL
