MODEL 1
REMARK VINA RESULT:      -8.9      0.000      0.000
REMARK  3 active torsions:
REMARK  status: ('A' for Active; 'I' for Inactive)
REMARK    1  A    between atoms: C_3  and  C_4 
REMARK    2  A    between atoms: C_8  and  C_9 
REMARK       I    between atoms: C_9  and  N_10 
REMARK    3  A    between atoms: N_10  and  N_11 
ROOT
HETATM    1  C   UNL     1      40.445 -13.600   0.205  1.00  0.00     0.291 C 
HETATM    2  N   UNL     1      39.283 -13.833  -0.496  1.00  0.00    -0.251 N 
HETATM    3  O   UNL     1      41.165 -12.616   0.049  1.00  0.00    -0.264 OA
HETATM    4  H   UNL     1      38.749 -14.677  -0.322  1.00  0.00     0.191 HD
ENDROOT
BRANCH   1   5
HETATM    5  C   UNL     1      40.738 -14.660   1.177  1.00  0.00     0.148 A 
HETATM    6  N   UNL     1      39.848 -15.033   2.118  1.00  0.00    -0.169 NA
HETATM    7  N   UNL     1      40.476 -16.019   2.785  1.00  0.00    -0.277 N 
HETATM    8  C   UNL     1      41.753 -16.272   2.351  1.00  0.00     0.064 A 
HETATM    9  H   UNL     1      39.983 -16.485   3.539  1.00  0.00     0.189 HD
HETATM   10  C   UNL     1      41.938 -15.405   1.293  1.00  0.00     0.071 A 
BRANCH   8  11
HETATM   11  C   UNL     1      42.659 -17.237   2.981  1.00  0.00     0.014 A 
HETATM   12  C   UNL     1      42.909 -18.444   2.306  1.00  0.00     0.015 A 
HETATM   13  C   UNL     1      43.775 -19.405   2.835  1.00  0.00     0.001 A 
HETATM   14  C   UNL     1      44.401 -19.178   4.057  1.00  0.00     0.002 A 
HETATM   15  C   UNL     1      44.163 -17.992   4.747  1.00  0.00     0.025 A 
HETATM   16  C   UNL     1      43.299 -17.024   4.216  1.00  0.00     0.046 A 
HETATM   17 CL   UNL     1      43.055 -15.593   5.160  1.00  0.00    -0.083 Cl
ENDBRANCH   8  11
ENDBRANCH   1   5
BRANCH   2  18
HETATM   18  N   UNL     1      38.832 -12.903  -1.405  1.00  0.00    -0.167 N 
HETATM   19  C   UNL     1      39.065 -12.980  -2.753  1.00  0.00     0.345 A 
HETATM   20  O   UNL     1      39.773 -13.765  -3.363  1.00  0.00    -0.245 OA
HETATM   21  N   UNL     1      38.352 -11.959  -3.355  1.00  0.00    -0.323 N 
HETATM   22  C   UNL     1      37.591 -11.174  -2.399  1.00  0.00     0.117 A 
HETATM   23  H   UNL     1      38.358 -11.846  -4.361  1.00  0.00     0.165 HD
HETATM   24  C   UNL     1      36.083 -11.287  -2.643  1.00  0.00     0.041 C 
HETATM   25  C   UNL     1      38.071  -9.719  -2.373  1.00  0.00     0.041 C 
HETATM   26  C   UNL     1      37.969 -11.888  -1.084  1.00  0.00     0.275 A 
HETATM   27  C   UNL     1      35.635 -10.494  -3.869  1.00  0.00     0.003 C 
HETATM   28  C   UNL     1      36.103  -9.043  -3.807  1.00  0.00     0.000 C 
HETATM   29  C   UNL     1      37.612  -8.943  -3.608  1.00  0.00     0.003 C 
HETATM   30  O   UNL     1      37.569 -11.580   0.032  1.00  0.00    -0.268 OA
ENDBRANCH   2  18
TORSDOF 3
ENDMDL
MODEL 2
REMARK VINA RESULT:      -8.9      8.063     10.593
REMARK  3 active torsions:
REMARK  status: ('A' for Active; 'I' for Inactive)
REMARK    1  A    between atoms: C_3  and  C_4 
REMARK    2  A    between atoms: C_8  and  C_9 
REMARK       I    between atoms: C_9  and  N_10 
REMARK    3  A    between atoms: N_10  and  N_11 
ROOT
HETATM    1  C   UNL     1      44.170 -11.734   7.302  1.00  0.00     0.291 C 
HETATM    2  N   UNL     1      42.856 -11.931   6.942  1.00  0.00    -0.251 N 
HETATM    3  O   UNL     1      45.130 -12.265   6.747  1.00  0.00    -0.264 OA
HETATM    4  H   UNL     1      42.116 -11.469   7.459  1.00  0.00     0.191 HD
ENDROOT
BRANCH   1   5
HETATM    5  C   UNL     1      44.311 -10.806   8.431  1.00  0.00     0.148 A 
HETATM    6  N   UNL     1      45.457 -10.705   9.134  1.00  0.00    -0.169 NA
HETATM    7  N   UNL     1      45.189  -9.758  10.053  1.00  0.00    -0.277 N 
HETATM    8  C   UNL     1      43.905  -9.274  10.011  1.00  0.00     0.064 A 
HETATM    9  H   UNL     1      45.926  -9.484  10.694  1.00  0.00     0.189 HD
HETATM   10  C   UNL     1      43.321  -9.936   8.950  1.00  0.00     0.071 A 
BRANCH   8  11
HETATM   11  C   UNL     1      43.361  -8.307  10.967  1.00  0.00     0.014 A 
HETATM   12  C   UNL     1      43.404  -8.634  12.334  1.00  0.00     0.015 A 
HETATM   13  C   UNL     1      42.920  -7.753  13.305  1.00  0.00     0.001 A 
HETATM   14  C   UNL     1      42.376  -6.531  12.926  1.00  0.00     0.002 A 
HETATM   15  C   UNL     1      42.316  -6.188  11.577  1.00  0.00     0.025 A 
HETATM   16  C   UNL     1      42.805  -7.066  10.601  1.00  0.00     0.046 A 
HETATM   17 CL   UNL     1      42.668  -6.555   8.952  1.00  0.00    -0.083 Cl
ENDBRANCH   8  11
ENDBRANCH   1   5
BRANCH   2  18
HETATM   18  N   UNL     1      42.553 -12.726   5.860  1.00  0.00    -0.167 N 
HETATM   19  C   UNL     1      42.582 -12.290   4.561  1.00  0.00     0.345 A 
HETATM   20  O   UNL     1      42.750 -11.157   4.140  1.00  0.00    -0.245 OA
HETATM   21  N   UNL     1      42.357 -13.388   3.751  1.00  0.00    -0.323 N 
HETATM   22  C   UNL     1      42.191 -14.615   4.510  1.00  0.00     0.117 A 
HETATM   23  H   UNL     1      42.364 -13.298   2.743  1.00  0.00     0.165 HD
HETATM   24  C   UNL     1      43.301 -15.625   4.207  1.00  0.00     0.041 C 
HETATM   25  C   UNL     1      40.792 -15.205   4.308  1.00  0.00     0.041 C 
HETATM   26  C   UNL     1      42.345 -14.078   5.950  1.00  0.00     0.275 A 
HETATM   27  C   UNL     1      43.127 -16.280   2.837  1.00  0.00     0.003 C 
HETATM   28  C   UNL     1      41.735 -16.882   2.670  1.00  0.00     0.000 C 
HETATM   29  C   UNL     1      40.638 -15.855   2.932  1.00  0.00     0.003 C 
HETATM   30  O   UNL     1      42.277 -14.752   6.970  1.00  0.00    -0.268 OA
ENDBRANCH   2  18
TORSDOF 3
ENDMDL
MODEL 3
REMARK VINA RESULT:      -8.9      1.553      1.864
REMARK  3 active torsions:
REMARK  status: ('A' for Active; 'I' for Inactive)
REMARK    1  A    between atoms: C_3  and  C_4 
REMARK    2  A    between atoms: C_8  and  C_9 
REMARK       I    between atoms: C_9  and  N_10 
REMARK    3  A    between atoms: N_10  and  N_11 
ROOT
HETATM    1  C   UNL     1      40.685 -14.332   1.005  1.00  0.00     0.291 C 
HETATM    2  N   UNL     1      40.933 -13.965  -0.299  1.00  0.00    -0.251 N 
HETATM    3  O   UNL     1      39.701 -13.978   1.650  1.00  0.00    -0.264 OA
HETATM    4  H   UNL     1      41.777 -14.285  -0.762  1.00  0.00     0.191 HD
ENDROOT
BRANCH   1   5
HETATM    5  C   UNL     1      41.729 -15.207   1.551  1.00  0.00     0.148 A 
HETATM    6  N   UNL     1      43.028 -14.845   1.572  1.00  0.00    -0.169 NA
HETATM    7  N   UNL     1      43.646 -15.891   2.151  1.00  0.00    -0.277 N 
HETATM    8  C   UNL     1      42.816 -16.938   2.463  1.00  0.00     0.064 A 
HETATM    9  H   UNL     1      44.648 -15.837   2.304  1.00  0.00     0.189 HD
HETATM   10  C   UNL     1      41.559 -16.506   2.092  1.00  0.00     0.071 A 
BRANCH   8  11
HETATM   11  C   UNL     1      43.277 -18.214   3.016  1.00  0.00     0.014 A 
HETATM   12  C   UNL     1      43.188 -19.357   2.202  1.00  0.00     0.015 A 
HETATM   13  C   UNL     1      43.625 -20.605   2.654  1.00  0.00     0.001 A 
HETATM   14  C   UNL     1      44.151 -20.735   3.935  1.00  0.00     0.002 A 
HETATM   15  C   UNL     1      44.242 -19.618   4.763  1.00  0.00     0.025 A 
HETATM   16  C   UNL     1      43.810 -18.364   4.310  1.00  0.00     0.046 A 
HETATM   17 CL   UNL     1      43.949 -17.042   5.422  1.00  0.00    -0.083 Cl
ENDBRANCH   8  11
ENDBRANCH   1   5
BRANCH   2  18
HETATM   18  N   UNL     1      40.019 -13.194  -0.980  1.00  0.00    -0.167 N 
HETATM   19  C   UNL     1      38.995 -13.711  -1.730  1.00  0.00     0.345 A 
HETATM   20  O   UNL     1      38.775 -14.874  -2.024  1.00  0.00    -0.245 OA
HETATM   21  N   UNL     1      38.211 -12.649  -2.147  1.00  0.00    -0.323 N 
HETATM   22  C   UNL     1      38.697 -11.373  -1.654  1.00  0.00     0.117 A 
HETATM   23  H   UNL     1      37.376 -12.807  -2.696  1.00  0.00     0.165 HD
HETATM   24  C   UNL     1      37.688 -10.706  -0.714  1.00  0.00     0.041 C 
HETATM   25  C   UNL     1      39.114 -10.456  -2.808  1.00  0.00     0.041 C 
HETATM   26  C   UNL     1      39.937 -11.832  -0.857  1.00  0.00     0.275 A 
HETATM   27  C   UNL     1      36.494 -10.123  -1.468  1.00  0.00     0.003 C 
HETATM   28  C   UNL     1      36.934  -9.195  -2.596  1.00  0.00     0.000 C 
HETATM   29  C   UNL     1      37.905  -9.884  -3.550  1.00  0.00     0.003 C 
HETATM   30  O   UNL     1      40.700 -11.095  -0.244  1.00  0.00    -0.268 OA
ENDBRANCH   2  18
TORSDOF 3
ENDMDL
MODEL 4
REMARK VINA RESULT:      -8.8      7.977     10.447
REMARK  3 active torsions:
REMARK  status: ('A' for Active; 'I' for Inactive)
REMARK    1  A    between atoms: C_3  and  C_4 
REMARK    2  A    between atoms: C_8  and  C_9 
REMARK       I    between atoms: C_9  and  N_10 
REMARK    3  A    between atoms: N_10  and  N_11 
ROOT
HETATM    1  C   UNL     1      44.530 -11.804   7.165  1.00  0.00     0.291 C 
HETATM    2  N   UNL     1      43.381 -12.562   7.157  1.00  0.00    -0.251 N 
HETATM    3  O   UNL     1      45.416 -11.876   6.316  1.00  0.00    -0.264 OA
HETATM    4  H   UNL     1      42.701 -12.457   7.902  1.00  0.00     0.191 HD
ENDROOT
BRANCH   1   5
HETATM    5  C   UNL     1      44.588 -10.881   8.306  1.00  0.00     0.148 A 
HETATM    6  N   UNL     1      45.686 -10.769   9.079  1.00  0.00    -0.169 NA
HETATM    7  N   UNL     1      45.349  -9.832   9.985  1.00  0.00    -0.277 N 
HETATM    8  C   UNL     1      44.064  -9.365   9.865  1.00  0.00     0.064 A 
HETATM    9  H   UNL     1      46.040  -9.551  10.672  1.00  0.00     0.189 HD
HETATM   10  C   UNL     1      43.555 -10.028   8.766  1.00  0.00     0.071 A 
BRANCH   8  11
HETATM   11  C   UNL     1      43.448  -8.411  10.790  1.00  0.00     0.014 A 
HETATM   12  C   UNL     1      43.397  -8.752  12.154  1.00  0.00     0.015 A 
HETATM   13  C   UNL     1      42.841  -7.885  13.098  1.00  0.00     0.001 A 
HETATM   14  C   UNL     1      42.317  -6.661  12.695  1.00  0.00     0.002 A 
HETATM   15  C   UNL     1      42.350  -6.304  11.348  1.00  0.00     0.025 A 
HETATM   16  C   UNL     1      42.912  -7.169  10.399  1.00  0.00     0.046 A 
HETATM   17 CL   UNL     1      42.888  -6.641   8.750  1.00  0.00    -0.083 Cl
ENDBRANCH   8  11
ENDBRANCH   1   5
BRANCH   2  18
HETATM   18  N   UNL     1      43.142 -13.435   6.120  1.00  0.00    -0.167 N 
HETATM   19  C   UNL     1      43.383 -14.783   6.188  1.00  0.00     0.345 A 
HETATM   20  O   UNL     1      43.934 -15.417   7.072  1.00  0.00    -0.245 OA
HETATM   21  N   UNL     1      42.899 -15.348   5.021  1.00  0.00    -0.323 N 
HETATM   22  C   UNL     1      42.290 -14.368   4.140  1.00  0.00     0.117 A 
HETATM   23  H   UNL     1      42.948 -16.348   4.871  1.00  0.00     0.165 HD
HETATM   24  C   UNL     1      40.795 -14.635   3.941  1.00  0.00     0.041 C 
HETATM   25  C   UNL     1      43.048 -14.273   2.812  1.00  0.00     0.041 C 
HETATM   26  C   UNL     1      42.491 -13.081   4.968  1.00  0.00     0.275 A 
HETATM   27  C   UNL     1      40.538 -15.831   3.025  1.00  0.00     0.003 C 
HETATM   28  C   UNL     1      41.283 -15.700   1.700  1.00  0.00     0.000 C 
HETATM   29  C   UNL     1      42.777 -15.478   1.911  1.00  0.00     0.003 C 
HETATM   30  O   UNL     1      42.137 -11.958   4.631  1.00  0.00    -0.268 OA
ENDBRANCH   2  18
TORSDOF 3
ENDMDL
MODEL 5
REMARK VINA RESULT:      -8.2      7.682      9.617
REMARK  3 active torsions:
REMARK  status: ('A' for Active; 'I' for Inactive)
REMARK    1  A    between atoms: C_3  and  C_4 
REMARK    2  A    between atoms: C_8  and  C_9 
REMARK       I    between atoms: C_9  and  N_10 
REMARK    3  A    between atoms: N_10  and  N_11 
ROOT
HETATM    1  C   UNL     1      42.185 -10.707   6.229  1.00  0.00     0.291 C 
HETATM    2  N   UNL     1      41.793 -12.011   6.438  1.00  0.00    -0.251 N 
HETATM    3  O   UNL     1      42.063 -10.107   5.164  1.00  0.00    -0.264 OA
HETATM    4  H   UNL     1      41.941 -12.444   7.343  1.00  0.00     0.191 HD
ENDROOT
BRANCH   1   5
HETATM    5  C   UNL     1      42.769 -10.097   7.430  1.00  0.00     0.148 A 
HETATM    6  N   UNL     1      44.099 -10.091   7.655  1.00  0.00    -0.169 NA
HETATM    7  N   UNL     1      44.225  -9.440   8.826  1.00  0.00    -0.277 N 
HETATM    8  C   UNL     1      43.036  -9.065   9.397  1.00  0.00     0.064 A 
HETATM    9  H   UNL     1      45.158  -9.283   9.195  1.00  0.00     0.189 HD
HETATM   10  C   UNL     1      42.074  -9.473   8.495  1.00  0.00     0.071 A 
BRANCH   8  11
HETATM   11  C   UNL     1      42.921  -8.425  10.710  1.00  0.00     0.014 A 
HETATM   12  C   UNL     1      42.613  -7.054  10.752  1.00  0.00     0.015 A 
HETATM   13  C   UNL     1      42.470  -6.379  11.967  1.00  0.00     0.001 A 
HETATM   14  C   UNL     1      42.641  -7.063  13.166  1.00  0.00     0.002 A 
HETATM   15  C   UNL     1      42.953  -8.421  13.150  1.00  0.00     0.025 A 
HETATM   16  C   UNL     1      43.092  -9.102  11.933  1.00  0.00     0.046 A 
HETATM   17 CL   UNL     1      43.499 -10.783  12.021  1.00  0.00    -0.083 Cl
ENDBRANCH   8  11
ENDBRANCH   1   5
BRANCH   2  18
HETATM   18  N   UNL     1      41.169 -12.709   5.429  1.00  0.00    -0.167 N 
HETATM   19  C   UNL     1      39.810 -12.757   5.264  1.00  0.00     0.345 A 
HETATM   20  O   UNL     1      38.935 -12.324   5.995  1.00  0.00    -0.245 OA
HETATM   21  N   UNL     1      39.561 -13.431   4.081  1.00  0.00    -0.323 N 
HETATM   22  C   UNL     1      40.781 -13.837   3.405  1.00  0.00     0.117 A 
HETATM   23  H   UNL     1      38.614 -13.558   3.747  1.00  0.00     0.165 HD
HETATM   24  C   UNL     1      40.933 -13.149   2.046  1.00  0.00     0.041 C 
HETATM   25  C   UNL     1      40.874 -15.363   3.301  1.00  0.00     0.041 C 
HETATM   26  C   UNL     1      41.841 -13.299   4.391  1.00  0.00     0.275 A 
HETATM   27  C   UNL     1      39.988 -13.729   0.995  1.00  0.00     0.003 C 
HETATM   28  C   UNL     1      40.117 -15.246   0.893  1.00  0.00     0.000 C 
HETATM   29  C   UNL     1      39.920 -15.923   2.246  1.00  0.00     0.003 C 
HETATM   30  O   UNL     1      43.054 -13.404   4.256  1.00  0.00    -0.268 OA
ENDBRANCH   2  18
TORSDOF 3
ENDMDL
MODEL 6
REMARK VINA RESULT:      -8.1      1.937      2.669
REMARK  3 active torsions:
REMARK  status: ('A' for Active; 'I' for Inactive)
REMARK    1  A    between atoms: C_3  and  C_4 
REMARK    2  A    between atoms: C_8  and  C_9 
REMARK       I    between atoms: C_9  and  N_10 
REMARK    3  A    between atoms: N_10  and  N_11 
ROOT
HETATM    1  C   UNL     1      40.338 -13.038   0.751  1.00  0.00     0.291 C 
HETATM    2  N   UNL     1      41.114 -12.651  -0.318  1.00  0.00    -0.251 N 
HETATM    3  O   UNL     1      39.423 -12.368   1.224  1.00  0.00    -0.264 OA
HETATM    4  H   UNL     1      41.863 -13.254  -0.643  1.00  0.00     0.191 HD
ENDROOT
BRANCH   1   5
HETATM    5  C   UNL     1      40.717 -14.357   1.273  1.00  0.00     0.148 A 
HETATM    6  N   UNL     1      39.873 -15.409   1.241  1.00  0.00    -0.169 NA
HETATM    7  N   UNL     1      40.585 -16.411   1.788  1.00  0.00    -0.277 N 
HETATM    8  C   UNL     1      41.836 -16.048   2.220  1.00  0.00     0.064 A 
HETATM    9  H   UNL     1      40.160 -17.330   1.848  1.00  0.00     0.189 HD
HETATM   10  C   UNL     1      41.946 -14.714   1.880  1.00  0.00     0.071 A 
BRANCH   8  11
HETATM   11  C   UNL     1      42.753 -16.946   2.926  1.00  0.00     0.014 A 
HETATM   12  C   UNL     1      43.104 -18.155   2.301  1.00  0.00     0.015 A 
HETATM   13  C   UNL     1      43.988 -19.054   2.904  1.00  0.00     0.001 A 
HETATM   14  C   UNL     1      44.532 -18.763   4.151  1.00  0.00     0.002 A 
HETATM   15  C   UNL     1      44.193 -17.573   4.793  1.00  0.00     0.025 A 
HETATM   16  C   UNL     1      43.312 -16.667   4.188  1.00  0.00     0.046 A 
HETATM   17 CL   UNL     1      42.940 -15.228   5.076  1.00  0.00    -0.083 Cl
ENDBRANCH   8  11
ENDBRANCH   1   5
BRANCH   2  18
HETATM   18  N   UNL     1      40.850 -11.466  -0.964  1.00  0.00    -0.167 N 
HETATM   19  C   UNL     1      41.382 -10.259  -0.591  1.00  0.00     0.345 A 
HETATM   20  O   UNL     1      42.052  -9.991   0.393  1.00  0.00    -0.245 OA
HETATM   21  N   UNL     1      41.006  -9.328  -1.543  1.00  0.00    -0.323 N 
HETATM   22  C   UNL     1      40.214  -9.915  -2.610  1.00  0.00     0.117 A 
HETATM   23  H   UNL     1      41.316  -8.367  -1.479  1.00  0.00     0.165 HD
HETATM   24  C   UNL     1      40.926  -9.822  -3.963  1.00  0.00     0.041 C 
HETATM   25  C   UNL     1      38.806  -9.311  -2.648  1.00  0.00     0.041 C 
HETATM   26  C   UNL     1      40.156 -11.385  -2.143  1.00  0.00     0.275 A 
HETATM   27  C   UNL     1      40.905  -8.404  -4.531  1.00  0.00     0.003 C 
HETATM   28  C   UNL     1      39.490  -7.835  -4.582  1.00  0.00     0.000 C 
HETATM   29  C   UNL     1      38.807  -7.892  -3.219  1.00  0.00     0.003 C 
HETATM   30  O   UNL     1      39.579 -12.293  -2.728  1.00  0.00    -0.268 OA
ENDBRANCH   2  18
TORSDOF 3
ENDMDL
MODEL 7
REMARK VINA RESULT:      -8.0      8.344     10.740
REMARK  3 active torsions:
REMARK  status: ('A' for Active; 'I' for Inactive)
REMARK    1  A    between atoms: C_3  and  C_4 
REMARK    2  A    between atoms: C_8  and  C_9 
REMARK       I    between atoms: C_9  and  N_10 
REMARK    3  A    between atoms: N_10  and  N_11 
ROOT
HETATM    1  C   UNL     1      43.709 -11.113   7.289  1.00  0.00     0.291 C 
HETATM    2  N   UNL     1      43.165  -9.852   7.394  1.00  0.00    -0.251 N 
HETATM    3  O   UNL     1      44.365 -11.661   8.172  1.00  0.00    -0.264 OA
HETATM    4  H   UNL     1      42.648  -9.460   6.614  1.00  0.00     0.191 HD
ENDROOT
BRANCH   1   5
HETATM    5  C   UNL     1      43.417 -11.747   5.998  1.00  0.00     0.148 A 
HETATM    6  N   UNL     1      43.910 -11.267   4.838  1.00  0.00    -0.169 NA
HETATM    7  N   UNL     1      43.434 -12.117   3.909  1.00  0.00    -0.277 N 
HETATM    8  C   UNL     1      42.614 -13.098   4.406  1.00  0.00     0.064 A 
HETATM    9  H   UNL     1      43.699 -11.973   2.940  1.00  0.00     0.189 HD
HETATM   10  C   UNL     1      42.602 -12.882   5.769  1.00  0.00     0.071 A 
BRANCH   8  11
HETATM   11  C   UNL     1      41.911 -14.079   3.575  1.00  0.00     0.014 A 
HETATM   12  C   UNL     1      40.857 -13.623   2.764  1.00  0.00     0.015 A 
HETATM   13  C   UNL     1      40.152 -14.496   1.931  1.00  0.00     0.001 A 
HETATM   14  C   UNL     1      40.484 -15.846   1.900  1.00  0.00     0.002 A 
HETATM   15  C   UNL     1      41.521 -16.323   2.699  1.00  0.00     0.025 A 
HETATM   16  C   UNL     1      42.234 -15.449   3.531  1.00  0.00     0.046 A 
HETATM   17 CL   UNL     1      43.491 -16.143   4.499  1.00  0.00    -0.083 Cl
ENDBRANCH   8  11
ENDBRANCH   1   5
BRANCH   2  18
HETATM   18  N   UNL     1      43.294  -9.144   8.566  1.00  0.00    -0.167 N 
HETATM   19  C   UNL     1      44.355  -8.323   8.847  1.00  0.00     0.345 A 
HETATM   20  O   UNL     1      45.385  -8.161   8.214  1.00  0.00    -0.245 OA
HETATM   21  N   UNL     1      44.076  -7.682  10.042  1.00  0.00    -0.323 N 
HETATM   22  C   UNL     1      42.782  -8.055  10.584  1.00  0.00     0.117 A 
HETATM   23  H   UNL     1      44.719  -7.001  10.426  1.00  0.00     0.165 HD
HETATM   24  C   UNL     1      41.826  -6.860  10.646  1.00  0.00     0.041 C 
HETATM   25  C   UNL     1      42.931  -8.755  11.939  1.00  0.00     0.041 C 
HETATM   26  C   UNL     1      42.305  -9.057   9.511  1.00  0.00     0.275 A 
HETATM   27  C   UNL     1      42.182  -5.894  11.775  1.00  0.00     0.003 C 
HETATM   28  C   UNL     1      42.300  -6.610  13.117  1.00  0.00     0.000 C 
HETATM   29  C   UNL     1      43.287  -7.771  13.054  1.00  0.00     0.003 C 
HETATM   30  O   UNL     1      41.240  -9.661   9.527  1.00  0.00    -0.268 OA
ENDBRANCH   2  18
TORSDOF 3
ENDMDL
MODEL 8
REMARK VINA RESULT:      -8.0      6.719      8.604
REMARK  3 active torsions:
REMARK  status: ('A' for Active; 'I' for Inactive)
REMARK    1  A    between atoms: C_3  and  C_4 
REMARK    2  A    between atoms: C_8  and  C_9 
REMARK       I    between atoms: C_9  and  N_10 
REMARK    3  A    between atoms: N_10  and  N_11 
ROOT
HETATM    1  C   UNL     1      41.540 -11.779   5.234  1.00  0.00     0.291 C 
HETATM    2  N   UNL     1      41.241 -11.679   6.574  1.00  0.00    -0.251 N 
HETATM    3  O   UNL     1      41.783 -10.821   4.504  1.00  0.00    -0.264 OA
HETATM    4  H   UNL     1      41.036 -12.516   7.109  1.00  0.00     0.191 HD
ENDROOT
BRANCH   1   5
HETATM    5  C   UNL     1      41.544 -13.169   4.760  1.00  0.00     0.148 A 
HETATM    6  N   UNL     1      40.408 -13.816   4.434  1.00  0.00    -0.169 NA
HETATM    7  N   UNL     1      40.830 -15.033   4.043  1.00  0.00    -0.277 N 
HETATM    8  C   UNL     1      42.185 -15.222   4.146  1.00  0.00     0.064 A 
HETATM    9  H   UNL     1      40.141 -15.703   3.718  1.00  0.00     0.189 HD
HETATM   10  C   UNL     1      42.671 -14.012   4.599  1.00  0.00     0.071 A 
BRANCH   8  11
HETATM   11  C   UNL     1      42.860 -16.492   3.863  1.00  0.00     0.014 A 
HETATM   12  C   UNL     1      42.518 -17.172   2.682  1.00  0.00     0.015 A 
HETATM   13  C   UNL     1      43.132 -18.379   2.336  1.00  0.00     0.001 A 
HETATM   14  C   UNL     1      44.097 -18.932   3.171  1.00  0.00     0.002 A 
HETATM   15  C   UNL     1      44.448 -18.279   4.351  1.00  0.00     0.025 A 
HETATM   16  C   UNL     1      43.838 -17.066   4.698  1.00  0.00     0.046 A 
HETATM   17 CL   UNL     1      44.330 -16.344   6.193  1.00  0.00    -0.083 Cl
ENDBRANCH   8  11
ENDBRANCH   1   5
BRANCH   2  18
HETATM   18  N   UNL     1      41.255 -10.449   7.191  1.00  0.00    -0.167 N 
HETATM   19  C   UNL     1      40.127  -9.722   7.467  1.00  0.00     0.345 A 
HETATM   20  O   UNL     1      38.974  -9.945   7.135  1.00  0.00    -0.245 OA
HETATM   21  N   UNL     1      40.516  -8.618   8.204  1.00  0.00    -0.323 N 
HETATM   22  C   UNL     1      41.946  -8.597   8.461  1.00  0.00     0.117 A 
HETATM   23  H   UNL     1      39.832  -7.953   8.542  1.00  0.00     0.165 HD
HETATM   24  C   UNL     1      42.256  -8.704   9.957  1.00  0.00     0.041 C 
HETATM   25  C   UNL     1      42.606  -7.376   7.813  1.00  0.00     0.041 C 
HETATM   26  C   UNL     1      42.380  -9.890   7.738  1.00  0.00     0.275 A 
HETATM   27  C   UNL     1      41.957  -7.404  10.703  1.00  0.00     0.003 C 
HETATM   28  C   UNL     1      42.646  -6.207  10.053  1.00  0.00     0.000 C 
HETATM   29  C   UNL     1      42.295  -6.086   8.574  1.00  0.00     0.003 C 
HETATM   30  O   UNL     1      43.528 -10.313   7.668  1.00  0.00    -0.268 OA
ENDBRANCH   2  18
TORSDOF 3
ENDMDL
MODEL 9
REMARK VINA RESULT:      -7.8      7.223      9.251
REMARK  3 active torsions:
REMARK  status: ('A' for Active; 'I' for Inactive)
REMARK    1  A    between atoms: C_3  and  C_4 
REMARK    2  A    between atoms: C_8  and  C_9 
REMARK       I    between atoms: C_9  and  N_10 
REMARK    3  A    between atoms: N_10  and  N_11 
ROOT
HETATM    1  C   UNL     1      42.554 -11.406   5.724  1.00  0.00     0.291 C 
HETATM    2  N   UNL     1      42.673 -11.576   7.085  1.00  0.00    -0.251 N 
HETATM    3  O   UNL     1      42.594 -10.318   5.154  1.00  0.00    -0.264 OA
HETATM    4  H   UNL     1      42.614 -12.507   7.485  1.00  0.00     0.191 HD
ENDROOT
BRANCH   1   5
HETATM    5  C   UNL     1      42.376 -12.677   5.011  1.00  0.00     0.148 A 
HETATM    6  N   UNL     1      41.284 -12.930   4.262  1.00  0.00    -0.169 NA
HETATM    7  N   UNL     1      41.504 -14.167   3.778  1.00  0.00    -0.277 N 
HETATM    8  C   UNL     1      42.666 -14.749   4.216  1.00  0.00     0.064 A 
HETATM    9  H   UNL     1      40.816 -14.570   3.150  1.00  0.00     0.189 HD
HETATM   10  C   UNL     1      43.257 -13.787   5.012  1.00  0.00     0.071 A 
BRANCH   8  11
HETATM   11  C   UNL     1      43.071 -16.119   3.894  1.00  0.00     0.014 A 
HETATM   12  C   UNL     1      42.642 -16.664   2.670  1.00  0.00     0.015 A 
HETATM   13  C   UNL     1      43.003 -17.958   2.286  1.00  0.00     0.001 A 
HETATM   14  C   UNL     1      43.794 -18.736   3.124  1.00  0.00     0.002 A 
HETATM   15  C   UNL     1      44.226 -18.221   4.345  1.00  0.00     0.025 A 
HETATM   16  C   UNL     1      43.870 -16.922   4.730  1.00  0.00     0.046 A 
HETATM   17 CL   UNL     1      44.441 -16.381   6.274  1.00  0.00    -0.083 Cl
ENDBRANCH   8  11
ENDBRANCH   1   5
BRANCH   2  18
HETATM   18  N   UNL     1      42.907 -10.489   7.895  1.00  0.00    -0.167 N 
HETATM   19  C   UNL     1      44.157 -10.089   8.292  1.00  0.00     0.345 A 
HETATM   20  O   UNL     1      45.227 -10.648   8.123  1.00  0.00    -0.245 OA
HETATM   21  N   UNL     1      44.011  -8.895   8.976  1.00  0.00    -0.323 N 
HETATM   22  C   UNL     1      42.629  -8.451   9.030  1.00  0.00     0.117 A 
HETATM   23  H   UNL     1      44.818  -8.403   9.337  1.00  0.00     0.165 HD
HETATM   24  C   UNL     1      42.429  -7.125   8.290  1.00  0.00     0.041 C 
HETATM   25  C   UNL     1      42.123  -8.395  10.475  1.00  0.00     0.041 C 
HETATM   26  C   UNL     1      41.935  -9.595   8.261  1.00  0.00     0.275 A 
HETATM   27  C   UNL     1      42.993  -5.937   9.069  1.00  0.00     0.003 C 
HETATM   28  C   UNL     1      42.455  -5.890  10.496  1.00  0.00     0.000 C 
HETATM   29  C   UNL     1      42.699  -7.200  11.237  1.00  0.00     0.003 C 
HETATM   30  O   UNL     1      40.733  -9.676   8.041  1.00  0.00    -0.268 OA
ENDBRANCH   2  18
TORSDOF 3
ENDMDL
MODEL 10
REMARK VINA RESULT:      -7.8      3.498      9.577
REMARK  3 active torsions:
REMARK  status: ('A' for Active; 'I' for Inactive)
REMARK    1  A    between atoms: C_3  and  C_4 
REMARK    2  A    between atoms: C_8  and  C_9 
REMARK       I    between atoms: C_9  and  N_10 
REMARK    3  A    between atoms: N_10  and  N_11 
ROOT
HETATM    1  C   UNL     1      41.136 -12.873   0.737  1.00  0.00     0.291 C 
HETATM    2  N   UNL     1      41.455 -14.180   0.441  1.00  0.00    -0.251 N 
HETATM    3  O   UNL     1      41.010 -12.430   1.876  1.00  0.00    -0.264 OA
HETATM    4  H   UNL     1      41.526 -14.475  -0.527  1.00  0.00     0.191 HD
ENDROOT
BRANCH   1   5
HETATM    5  C   UNL     1      40.964 -12.049  -0.466  1.00  0.00     0.148 A 
HETATM    6  N   UNL     1      40.511 -12.565  -1.627  1.00  0.00    -0.169 NA
HETATM    7  N   UNL     1      40.484 -11.509  -2.460  1.00  0.00    -0.277 N 
HETATM    8  C   UNL     1      40.944 -10.339  -1.909  1.00  0.00     0.064 A 
HETATM    9  H   UNL     1      40.144 -11.647  -3.406  1.00  0.00     0.189 HD
HETATM   10  C   UNL     1      41.249 -10.669  -0.603  1.00  0.00     0.071 A 
BRANCH   8  11
HETATM   11  C   UNL     1      41.089  -9.084  -2.650  1.00  0.00     0.014 A 
HETATM   12  C   UNL     1      42.205  -8.276  -2.366  1.00  0.00     0.015 A 
HETATM   13  C   UNL     1      42.421  -7.074  -3.045  1.00  0.00     0.001 A 
HETATM   14  C   UNL     1      41.518  -6.652  -4.016  1.00  0.00     0.002 A 
HETATM   15  C   UNL     1      40.401  -7.432  -4.309  1.00  0.00     0.025 A 
HETATM   16  C   UNL     1      40.185  -8.641  -3.634  1.00  0.00     0.046 A 
HETATM   17 CL   UNL     1      38.759  -9.528  -4.058  1.00  0.00    -0.083 Cl
ENDBRANCH   8  11
ENDBRANCH   1   5
BRANCH   2  18
HETATM   18  N   UNL     1      41.710 -15.071   1.458  1.00  0.00    -0.167 N 
HETATM   19  C   UNL     1      40.760 -15.890   2.009  1.00  0.00     0.345 A 
HETATM   20  O   UNL     1      39.557 -15.907   1.809  1.00  0.00    -0.245 OA
HETATM   21  N   UNL     1      41.405 -16.733   2.897  1.00  0.00    -0.323 N 
HETATM   22  C   UNL     1      42.838 -16.502   2.941  1.00  0.00     0.117 A 
HETATM   23  H   UNL     1      40.892 -17.446   3.400  1.00  0.00     0.165 HD
HETATM   24  C   UNL     1      43.626 -17.723   2.456  1.00  0.00     0.041 C 
HETATM   25  C   UNL     1      43.281 -16.036   4.332  1.00  0.00     0.041 C 
HETATM   26  C   UNL     1      42.969 -15.350   1.921  1.00  0.00     0.275 A 
HETATM   27  C   UNL     1      43.631 -18.853   3.484  1.00  0.00     0.003 C 
HETATM   28  C   UNL     1      44.099 -18.369   4.854  1.00  0.00     0.000 C 
HETATM   29  C   UNL     1      43.279 -17.181   5.345  1.00  0.00     0.003 C 
HETATM   30  O   UNL     1      44.015 -14.794   1.608  1.00  0.00    -0.268 OA
ENDBRANCH   2  18
TORSDOF 3
ENDMDL
