MODEL 1
REMARK VINA RESULT:      -9.4      0.000      0.000
REMARK  7 active torsions:
REMARK  status: ('A' for Active; 'I' for Inactive)
REMARK    1  A    between atoms: C_2  and  C_3 
REMARK    2  A    between atoms: C_3  and  C_4 
REMARK       I    between atoms: C_4  and  N_5 
REMARK    3  A    between atoms: N_8  and  C_9 
REMARK    4  A    between atoms: C_12  and  N_13 
REMARK    5  A    between atoms: N_13  and  C_14 
REMARK    6  A    between atoms: C_14  and  N_15 
REMARK       I    between atoms: N_15  and  C_16 
REMARK    7  A    between atoms: C_16  and  C_17 
ROOT
HETATM    1  N   UNL     1      43.985 -11.742   4.076  1.00  0.00    -0.333 N 
HETATM    2  H   UNL     1      44.838 -11.463   3.590  1.00  0.00     0.168 HD
ENDROOT
BRANCH   1   3
HETATM    3  C   UNL     1      43.742 -11.085   5.304  1.00  0.00     0.034 C 
HETATM    4  C   UNL     1      44.603 -11.158   6.393  1.00  0.00     0.032 C 
HETATM    5  C   UNL     1      44.215 -10.666   7.643  1.00  0.00     0.031 C 
HETATM    6  C   UNL     1      42.964 -10.074   7.844  1.00  0.00     0.030 C 
HETATM    7  C   UNL     1      42.178  -9.860   6.702  1.00  0.00     0.031 C 
HETATM    8  C   UNL     1      42.567 -10.347   5.442  1.00  0.00     0.032 C 
BRANCH   6   9
HETATM    9  N   UNL     1      42.453  -9.818   9.114  1.00  0.00    -0.378 N 
HETATM   10  C   UNL     1      41.179  -9.083   9.227  1.00  0.00     0.143 C 
HETATM   11  C   UNL     1      40.536  -9.332  10.611  1.00  0.00     0.145 C 
HETATM   12  N   UNL     1      41.464  -9.192  11.746  1.00  0.00    -0.349 N 
HETATM   13  C   UNL     1      40.906  -9.006  13.012  1.00  0.00     0.219 C 
HETATM   14  C   UNL     1      42.780  -9.812  11.555  1.00  0.00     0.145 C 
HETATM   15  O   UNL     1      39.714  -8.749  13.171  1.00  0.00    -0.273 OA
HETATM   16  C   UNL     1      43.402  -9.492  10.191  1.00  0.00     0.143 C 
BRANCH  13  17
HETATM   17  C   UNL     1      41.865  -9.122  14.193  1.00  0.00     0.103 C 
BRANCH  17  18
HETATM   18  C   UNL     1      42.206  -7.776  14.827  1.00  0.00     0.005 C 
HETATM   19  C   UNL     1      43.294  -7.061  14.040  1.00  0.00     0.005 C 
ENDBRANCH  17  18
ENDBRANCH  13  17
ENDBRANCH   6   9
ENDBRANCH   1   3
BRANCH   1  20
HETATM   20  C   UNL     1      43.100 -12.456   3.297  1.00  0.00     0.179 C 
HETATM   21  S   UNL     1      41.973 -11.912   2.180  1.00  0.00    -0.040 SA
BRANCH  20  22
HETATM   22  N   UNL     1      43.178 -13.831   3.399  1.00  0.00    -0.299 N 
HETATM   23  C   UNL     1      43.049 -14.678   4.493  1.00  0.00     0.266 C 
HETATM   24  O   UNL     1      42.755 -14.243   5.606  1.00  0.00    -0.267 OA
HETATM   25  H   UNL     1      43.437 -14.256   2.519  1.00  0.00     0.171 HD
BRANCH  23  26
HETATM   26  C   UNL     1      43.272 -16.088   4.193  1.00  0.00     0.096 A 
HETATM   27  S   UNL     1      43.809 -17.114   5.454  1.00  0.00    -0.082 SA
HETATM   28  C   UNL     1      43.787 -18.514   4.458  1.00  0.00     0.017 A 
HETATM   29  C   UNL     1      43.407 -18.204   3.151  1.00  0.00     0.004 A 
HETATM   30  C   UNL     1      44.104 -19.832   4.843  1.00  0.00     0.020 A 
HETATM   31  C   UNL     1      43.126 -16.799   3.015  1.00  0.00     0.068 A 
HETATM   32  C   UNL     1      43.356 -19.265   2.207  1.00  0.00     0.014 A 
HETATM   33 CL   UNL     1      42.663 -16.135   1.493  1.00  0.00    -0.082 Cl
HETATM   34  C   UNL     1      43.669 -20.573   2.584  1.00  0.00     0.001 A 
HETATM   35  C   UNL     1      44.037 -20.852   3.891  1.00  0.00     0.001 A 
ENDBRANCH  23  26
ENDBRANCH  20  22
ENDBRANCH   1  20
TORSDOF 7
ENDMDL
MODEL 2
REMARK VINA RESULT:      -9.2      1.173      1.495
REMARK  7 active torsions:
REMARK  status: ('A' for Active; 'I' for Inactive)
REMARK    1  A    between atoms: C_2  and  C_3 
REMARK    2  A    between atoms: C_3  and  C_4 
REMARK       I    between atoms: C_4  and  N_5 
REMARK    3  A    between atoms: N_8  and  C_9 
REMARK    4  A    between atoms: C_12  and  N_13 
REMARK    5  A    between atoms: N_13  and  C_14 
REMARK    6  A    between atoms: C_14  and  N_15 
REMARK       I    between atoms: N_15  and  C_16 
REMARK    7  A    between atoms: C_16  and  C_17 
ROOT
HETATM    1  N   UNL     1      44.016 -11.827   4.088  1.00  0.00    -0.333 N 
HETATM    2  H   UNL     1      44.872 -11.609   3.577  1.00  0.00     0.168 HD
ENDROOT
BRANCH   1   3
HETATM    3  C   UNL     1      43.836 -11.123   5.301  1.00  0.00     0.034 C 
HETATM    4  C   UNL     1      44.717 -11.211   6.372  1.00  0.00     0.032 C 
HETATM    5  C   UNL     1      44.383 -10.663   7.615  1.00  0.00     0.031 C 
HETATM    6  C   UNL     1      43.170 -10.000   7.825  1.00  0.00     0.030 C 
HETATM    7  C   UNL     1      42.371  -9.778   6.694  1.00  0.00     0.031 C 
HETATM    8  C   UNL     1      42.704 -10.321   5.441  1.00  0.00     0.032 C 
BRANCH   6   9
HETATM    9  N   UNL     1      42.702  -9.680   9.098  1.00  0.00    -0.378 N 
HETATM   10  C   UNL     1      41.412  -8.975   9.218  1.00  0.00     0.143 C 
HETATM   11  C   UNL     1      40.832  -9.157  10.640  1.00  0.00     0.145 C 
HETATM   12  N   UNL     1      41.799  -8.922  11.725  1.00  0.00    -0.349 N 
HETATM   13  C   UNL     1      41.287  -8.675  13.000  1.00  0.00     0.219 C 
HETATM   14  C   UNL     1      43.125  -9.517  11.517  1.00  0.00     0.145 C 
HETATM   15  O   UNL     1      40.095  -8.441  13.192  1.00  0.00    -0.273 OA
HETATM   16  C   UNL     1      43.683  -9.264  10.113  1.00  0.00     0.143 C 
BRANCH  13  17
HETATM   17  C   UNL     1      42.295  -8.693  14.146  1.00  0.00     0.103 C 
BRANCH  17  18
HETATM   18  C   UNL     1      42.790  -7.302  14.534  1.00  0.00     0.005 C 
HETATM   19  C   UNL     1      42.221  -6.874  15.878  1.00  0.00     0.005 C 
ENDBRANCH  17  18
ENDBRANCH  13  17
ENDBRANCH   6   9
ENDBRANCH   1   3
BRANCH   1  20
HETATM   20  C   UNL     1      43.077 -12.514   3.347  1.00  0.00     0.179 C 
HETATM   21  S   UNL     1      41.916 -11.934   2.285  1.00  0.00    -0.040 SA
BRANCH  20  22
HETATM   22  N   UNL     1      43.120 -13.890   3.442  1.00  0.00    -0.299 N 
HETATM   23  C   UNL     1      43.020 -14.738   4.539  1.00  0.00     0.266 C 
HETATM   24  O   UNL     1      42.792 -14.299   5.667  1.00  0.00    -0.267 OA
HETATM   25  H   UNL     1      43.325 -14.319   2.550  1.00  0.00     0.171 HD
BRANCH  23  26
HETATM   26  C   UNL     1      43.189 -16.152   4.226  1.00  0.00     0.096 A 
HETATM   27  S   UNL     1      42.813 -16.686   2.643  1.00  0.00    -0.082 SA
HETATM   28  C   UNL     1      43.281 -18.307   2.973  1.00  0.00     0.017 A 
HETATM   29  C   UNL     1      43.692 -18.460   4.298  1.00  0.00     0.004 A 
HETATM   30  C   UNL     1      43.272 -19.390   2.072  1.00  0.00     0.020 A 
HETATM   31  C   UNL     1      43.621 -17.209   5.008  1.00  0.00     0.068 A 
HETATM   32  C   UNL     1      44.098 -19.754   4.720  1.00  0.00     0.014 A 
HETATM   33 CL   UNL     1      44.043 -17.116   6.677  1.00  0.00    -0.082 Cl
HETATM   34  C   UNL     1      44.091 -20.831   3.831  1.00  0.00     0.001 A 
HETATM   35  C   UNL     1      43.684 -20.648   2.518  1.00  0.00     0.001 A 
ENDBRANCH  23  26
ENDBRANCH  20  22
ENDBRANCH   1  20
TORSDOF 7
ENDMDL
MODEL 3
REMARK VINA RESULT:      -9.1      1.736      2.230
REMARK  7 active torsions:
REMARK  status: ('A' for Active; 'I' for Inactive)
REMARK    1  A    between atoms: C_2  and  C_3 
REMARK    2  A    between atoms: C_3  and  C_4 
REMARK       I    between atoms: C_4  and  N_5 
REMARK    3  A    between atoms: N_8  and  C_9 
REMARK    4  A    between atoms: C_12  and  N_13 
REMARK    5  A    between atoms: N_13  and  C_14 
REMARK    6  A    between atoms: C_14  and  N_15 
REMARK       I    between atoms: N_15  and  C_16 
REMARK    7  A    between atoms: C_16  and  C_17 
ROOT
HETATM    1  N   UNL     1      44.040 -11.599   4.996  1.00  0.00    -0.333 N 
HETATM    2  H   UNL     1      44.978 -11.308   4.717  1.00  0.00     0.168 HD
ENDROOT
BRANCH   1   3
HETATM    3  C   UNL     1      43.592 -11.097   6.239  1.00  0.00     0.034 C 
HETATM    4  C   UNL     1      42.441 -10.333   6.385  1.00  0.00     0.032 C 
HETATM    5  C   UNL     1      42.160  -9.690   7.594  1.00  0.00     0.031 C 
HETATM    6  C   UNL     1      43.011  -9.800   8.700  1.00  0.00     0.030 C 
HETATM    7  C   UNL     1      44.076 -10.704   8.587  1.00  0.00     0.031 C 
HETATM    8  C   UNL     1      44.359 -11.358   7.375  1.00  0.00     0.032 C 
BRANCH   6   9
HETATM    9  N   UNL     1      42.898  -8.972   9.815  1.00  0.00    -0.378 N 
HETATM   10  C   UNL     1      42.585  -7.546   9.606  1.00  0.00     0.143 C 
HETATM   11  C   UNL     1      42.014  -6.926  10.902  1.00  0.00     0.145 C 
HETATM   12  N   UNL     1      42.781  -7.246  12.117  1.00  0.00    -0.349 N 
HETATM   13  C   UNL     1      42.584  -6.432  13.234  1.00  0.00     0.219 C 
HETATM   14  C   UNL     1      43.205  -8.646  12.236  1.00  0.00     0.145 C 
HETATM   15  O   UNL     1      41.976  -5.365  13.167  1.00  0.00    -0.273 OA
HETATM   16  C   UNL     1      43.814  -9.201  10.944  1.00  0.00     0.143 C 
BRANCH  13  17
HETATM   17  C   UNL     1      43.185  -6.930  14.545  1.00  0.00     0.103 C 
BRANCH  17  18
HETATM   18  C   UNL     1      42.198  -6.901  15.709  1.00  0.00     0.005 C 
HETATM   19  C   UNL     1      41.309  -8.136  15.703  1.00  0.00     0.005 C 
ENDBRANCH  17  18
ENDBRANCH  13  17
ENDBRANCH   6   9
ENDBRANCH   1   3
BRANCH   1  20
HETATM   20  C   UNL     1      43.295 -12.152   3.975  1.00  0.00     0.179 C 
HETATM   21  S   UNL     1      42.463 -11.401   2.727  1.00  0.00    -0.040 SA
BRANCH  20  22
HETATM   22  N   UNL     1      43.263 -13.531   3.928  1.00  0.00    -0.299 N 
HETATM   23  C   UNL     1      42.830 -14.470   4.855  1.00  0.00     0.266 C 
HETATM   24  O   UNL     1      42.309 -14.127   5.916  1.00  0.00    -0.267 OA
HETATM   25  H   UNL     1      43.696 -13.885   3.086  1.00  0.00     0.171 HD
BRANCH  23  26
HETATM   26  C   UNL     1      43.032 -15.856   4.448  1.00  0.00     0.096 A 
HETATM   27  S   UNL     1      42.502 -16.334   2.892  1.00  0.00    -0.082 SA
HETATM   28  C   UNL     1      43.087 -17.940   3.078  1.00  0.00     0.017 A 
HETATM   29  C   UNL     1      43.655 -18.133   4.338  1.00  0.00     0.004 A 
HETATM   30  C   UNL     1      43.027 -18.978   2.127  1.00  0.00     0.020 A 
HETATM   31  C   UNL     1      43.604 -16.924   5.118  1.00  0.00     0.068 A 
HETATM   32  C   UNL     1      44.172 -19.421   4.641  1.00  0.00     0.014 A 
HETATM   33 CL   UNL     1      44.211 -16.888   6.731  1.00  0.00    -0.082 Cl
HETATM   34  C   UNL     1      44.116 -20.453   3.701  1.00  0.00     0.001 A 
HETATM   35  C   UNL     1      43.551 -20.231   2.455  1.00  0.00     0.001 A 
ENDBRANCH  23  26
ENDBRANCH  20  22
ENDBRANCH   1  20
TORSDOF 7
ENDMDL
MODEL 4
REMARK VINA RESULT:      -9.0      2.811      4.498
REMARK  7 active torsions:
REMARK  status: ('A' for Active; 'I' for Inactive)
REMARK    1  A    between atoms: C_2  and  C_3 
REMARK    2  A    between atoms: C_3  and  C_4 
REMARK       I    between atoms: C_4  and  N_5 
REMARK    3  A    between atoms: N_8  and  C_9 
REMARK    4  A    between atoms: C_12  and  N_13 
REMARK    5  A    between atoms: N_13  and  C_14 
REMARK    6  A    between atoms: C_14  and  N_15 
REMARK       I    between atoms: N_15  and  C_16 
REMARK    7  A    between atoms: C_16  and  C_17 
ROOT
HETATM    1  N   UNL     1      43.314 -10.597   8.285  1.00  0.00    -0.333 N 
HETATM    2  H   UNL     1      42.399 -10.927   7.973  1.00  0.00     0.168 HD
ENDROOT
BRANCH   1   3
HETATM    3  C   UNL     1      43.336  -9.977   9.555  1.00  0.00     0.034 C 
HETATM    4  C   UNL     1      43.664 -10.647  10.727  1.00  0.00     0.032 C 
HETATM    5  C   UNL     1      43.466 -10.043  11.972  1.00  0.00     0.031 C 
HETATM    6  C   UNL     1      42.950  -8.747  12.088  1.00  0.00     0.030 C 
HETATM    7  C   UNL     1      42.782  -8.029  10.896  1.00  0.00     0.031 C 
HETATM    8  C   UNL     1      42.985  -8.629   9.642  1.00  0.00     0.032 C 
BRANCH   6   9
HETATM    9  N   UNL     1      42.502  -8.227  13.300  1.00  0.00    -0.378 N 
HETATM   10  C   UNL     1      43.346  -7.239  13.998  1.00  0.00     0.143 C 
HETATM   11  C   UNL     1      42.500  -6.425  15.005  1.00  0.00     0.145 C 
HETATM   12  N   UNL     1      41.622  -7.243  15.859  1.00  0.00    -0.349 N 
HETATM   13  C   UNL     1      41.139  -6.656  17.031  1.00  0.00     0.219 C 
HETATM   14  C   UNL     1      40.897  -8.313  15.165  1.00  0.00     0.145 C 
HETATM   15  O   UNL     1      41.584  -5.594  17.462  1.00  0.00    -0.273 OA
HETATM   16  C   UNL     1      41.788  -9.127  14.220  1.00  0.00     0.143 C 
BRANCH  13  17
HETATM   17  C   UNL     1      40.037  -7.418  17.761  1.00  0.00     0.103 C 
BRANCH  17  18
HETATM   18  C   UNL     1      40.510  -8.062  19.062  1.00  0.00     0.005 C 
HETATM   19  C   UNL     1      39.337  -8.626  19.850  1.00  0.00     0.005 C 
ENDBRANCH  17  18
ENDBRANCH  13  17
ENDBRANCH   6   9
ENDBRANCH   1   3
BRANCH   1  20
HETATM   20  C   UNL     1      44.372 -11.100   7.557  1.00  0.00     0.179 C 
HETATM   21  S   UNL     1      45.997 -10.690   7.605  1.00  0.00    -0.040 SA
BRANCH  20  22
HETATM   22  N   UNL     1      44.074 -12.134   6.692  1.00  0.00    -0.299 N 
HETATM   23  C   UNL     1      42.885 -12.496   6.070  1.00  0.00     0.266 C 
HETATM   24  O   UNL     1      41.868 -11.813   6.190  1.00  0.00    -0.267 OA
HETATM   25  H   UNL     1      44.865 -12.751   6.562  1.00  0.00     0.171 HD
BRANCH  23  26
HETATM   26  C   UNL     1      42.969 -13.715   5.273  1.00  0.00     0.096 A 
HETATM   27  S   UNL     1      42.801 -13.590   3.574  1.00  0.00    -0.082 SA
HETATM   28  C   UNL     1      43.057 -15.271   3.327  1.00  0.00     0.017 A 
HETATM   29  C   UNL     1      43.236 -15.944   4.536  1.00  0.00     0.004 A 
HETATM   30  C   UNL     1      43.090 -15.950   2.092  1.00  0.00     0.020 A 
HETATM   31  C   UNL     1      43.169 -15.031   5.649  1.00  0.00     0.068 A 
HETATM   32  C   UNL     1      43.447 -17.348   4.489  1.00  0.00     0.014 A 
HETATM   33 CL   UNL     1      43.327 -15.601   7.268  1.00  0.00    -0.082 Cl
HETATM   34  C   UNL     1      43.481 -18.025   3.268  1.00  0.00     0.001 A 
HETATM   35  C   UNL     1      43.306 -17.330   2.081  1.00  0.00     0.001 A 
ENDBRANCH  23  26
ENDBRANCH  20  22
ENDBRANCH   1  20
TORSDOF 7
ENDMDL
MODEL 5
REMARK VINA RESULT:      -8.5      1.694      2.256
REMARK  7 active torsions:
REMARK  status: ('A' for Active; 'I' for Inactive)
REMARK    1  A    between atoms: C_2  and  C_3 
REMARK    2  A    between atoms: C_3  and  C_4 
REMARK       I    between atoms: C_4  and  N_5 
REMARK    3  A    between atoms: N_8  and  C_9 
REMARK    4  A    between atoms: C_12  and  N_13 
REMARK    5  A    between atoms: N_13  and  C_14 
REMARK    6  A    between atoms: C_14  and  N_15 
REMARK       I    between atoms: N_15  and  C_16 
REMARK    7  A    between atoms: C_16  and  C_17 
ROOT
HETATM    1  N   UNL     1      42.451 -10.384   3.196  1.00  0.00    -0.333 N 
HETATM    2  H   UNL     1      42.878  -9.530   2.834  1.00  0.00     0.168 HD
ENDROOT
BRANCH   1   3
HETATM    3  C   UNL     1      42.114 -10.359   4.569  1.00  0.00     0.034 C 
HETATM    4  C   UNL     1      40.907  -9.867   5.051  1.00  0.00     0.032 C 
HETATM    5  C   UNL     1      40.713  -9.673   6.422  1.00  0.00     0.031 C 
HETATM    6  C   UNL     1      41.709  -9.976   7.356  1.00  0.00     0.030 C 
HETATM    7  C   UNL     1      42.853 -10.623   6.868  1.00  0.00     0.031 C 
HETATM    8  C   UNL     1      43.051 -10.826   5.491  1.00  0.00     0.032 C 
BRANCH   6   9
HETATM    9  N   UNL     1      41.645  -9.553   8.682  1.00  0.00    -0.378 N 
HETATM   10  C   UNL     1      40.462  -8.789   9.121  1.00  0.00     0.143 C 
HETATM   11  C   UNL     1      40.324  -8.851  10.660  1.00  0.00     0.145 C 
HETATM   12  N   UNL     1      41.573  -8.584  11.393  1.00  0.00    -0.349 N 
HETATM   13  C   UNL     1      41.465  -8.230  12.739  1.00  0.00     0.219 C 
HETATM   14  C   UNL     1      42.767  -9.244  10.851  1.00  0.00     0.145 C 
HETATM   15  O   UNL     1      40.387  -7.935  13.253  1.00  0.00    -0.273 OA
HETATM   16  C   UNL     1      42.890  -9.109   9.330  1.00  0.00     0.143 C 
BRANCH  13  17
HETATM   17  C   UNL     1      42.765  -8.212  13.537  1.00  0.00     0.103 C 
BRANCH  17  18
HETATM   18  C   UNL     1      43.025  -6.879  14.234  1.00  0.00     0.005 C 
HETATM   19  C   UNL     1      42.477  -6.888  15.653  1.00  0.00     0.005 C 
ENDBRANCH  17  18
ENDBRANCH  13  17
ENDBRANCH   6   9
ENDBRANCH   1   3
BRANCH   1  20
HETATM   20  C   UNL     1      42.009 -11.251   2.220  1.00  0.00     0.179 C 
HETATM   21  S   UNL     1      41.319 -10.923   0.727  1.00  0.00    -0.040 SA
BRANCH  20  22
HETATM   22  N   UNL     1      42.205 -12.594   2.470  1.00  0.00    -0.299 N 
HETATM   23  C   UNL     1      41.392 -13.542   3.081  1.00  0.00     0.266 C 
HETATM   24  O   UNL     1      40.252 -13.262   3.450  1.00  0.00    -0.267 OA
HETATM   25  H   UNL     1      43.135 -12.890   2.207  1.00  0.00     0.171 HD
BRANCH  23  26
HETATM   26  C   UNL     1      42.002 -14.860   3.218  1.00  0.00     0.096 A 
HETATM   27  S   UNL     1      41.683 -16.034   2.014  1.00  0.00    -0.082 SA
HETATM   28  C   UNL     1      42.703 -17.206   2.748  1.00  0.00     0.017 A 
HETATM   29  C   UNL     1      43.263 -16.726   3.932  1.00  0.00     0.004 A 
HETATM   30  C   UNL     1      42.978 -18.505   2.274  1.00  0.00     0.020 A 
HETATM   31  C   UNL     1      42.838 -15.375   4.193  1.00  0.00     0.068 A 
HETATM   32  C   UNL     1      44.123 -17.593   4.659  1.00  0.00     0.014 A 
HETATM   33 CL   UNL     1      43.357 -14.544   5.612  1.00  0.00    -0.082 Cl
HETATM   34  C   UNL     1      44.399 -18.881   4.192  1.00  0.00     0.001 A 
HETATM   35  C   UNL     1      43.833 -19.330   3.009  1.00  0.00     0.001 A 
ENDBRANCH  23  26
ENDBRANCH  20  22
ENDBRANCH   1  20
TORSDOF 7
ENDMDL
MODEL 6
REMARK VINA RESULT:      -8.5      2.638      4.058
REMARK  7 active torsions:
REMARK  status: ('A' for Active; 'I' for Inactive)
REMARK    1  A    between atoms: C_2  and  C_3 
REMARK    2  A    between atoms: C_3  and  C_4 
REMARK       I    between atoms: C_4  and  N_5 
REMARK    3  A    between atoms: N_8  and  C_9 
REMARK    4  A    between atoms: C_12  and  N_13 
REMARK    5  A    between atoms: N_13  and  C_14 
REMARK    6  A    between atoms: C_14  and  N_15 
REMARK       I    between atoms: N_15  and  C_16 
REMARK    7  A    between atoms: C_16  and  C_17 
ROOT
HETATM    1  N   UNL     1      43.206 -10.757   8.225  1.00  0.00    -0.333 N 
HETATM    2  H   UNL     1      42.331 -11.180   7.910  1.00  0.00     0.168 HD
ENDROOT
BRANCH   1   3
HETATM    3  C   UNL     1      43.128 -10.024   9.430  1.00  0.00     0.034 C 
HETATM    4  C   UNL     1      43.542 -10.526  10.658  1.00  0.00     0.032 C 
HETATM    5  C   UNL     1      43.250  -9.843  11.843  1.00  0.00     0.031 C 
HETATM    6  C   UNL     1      42.548  -8.633  11.840  1.00  0.00     0.030 C 
HETATM    7  C   UNL     1      42.284  -8.062  10.587  1.00  0.00     0.031 C 
HETATM    8  C   UNL     1      42.581  -8.741   9.393  1.00  0.00     0.032 C 
BRANCH   6   9
HETATM    9  N   UNL     1      42.019  -8.072  13.001  1.00  0.00    -0.378 N 
HETATM   10  C   UNL     1      41.536  -8.975  14.062  1.00  0.00     0.143 C 
HETATM   11  C   UNL     1      41.470  -8.227  15.415  1.00  0.00     0.145 C 
HETATM   12  N   UNL     1      40.823  -6.906  15.346  1.00  0.00    -0.349 N 
HETATM   13  C   UNL     1      40.370  -6.350  16.544  1.00  0.00     0.219 C 
HETATM   14  C   UNL     1      41.215  -6.078  14.200  1.00  0.00     0.145 C 
HETATM   15  O   UNL     1      40.304  -7.003  17.584  1.00  0.00    -0.273 OA
HETATM   16  C   UNL     1      41.212  -6.847  12.874  1.00  0.00     0.143 C 
BRANCH  13  17
HETATM   17  C   UNL     1      39.943  -4.886  16.489  1.00  0.00     0.103 C 
BRANCH  17  18
HETATM   18  C   UNL     1      38.430  -4.704  16.397  1.00  0.00     0.005 C 
HETATM   19  C   UNL     1      38.027  -4.157  15.035  1.00  0.00     0.005 C 
ENDBRANCH  17  18
ENDBRANCH  13  17
ENDBRANCH   6   9
ENDBRANCH   1   3
BRANCH   1  20
HETATM   20  C   UNL     1      44.327 -11.246   7.589  1.00  0.00     0.179 C 
HETATM   21  S   UNL     1      45.919 -10.721   7.667  1.00  0.00    -0.040 SA
BRANCH  20  22
HETATM   22  N   UNL     1      44.140 -12.369   6.809  1.00  0.00    -0.299 N 
HETATM   23  C   UNL     1      43.011 -12.861   6.165  1.00  0.00     0.266 C 
HETATM   24  O   UNL     1      41.949 -12.237   6.172  1.00  0.00    -0.267 OA
HETATM   25  H   UNL     1      44.972 -12.943   6.774  1.00  0.00     0.171 HD
BRANCH  23  26
HETATM   26  C   UNL     1      43.210 -14.137   5.488  1.00  0.00     0.096 A 
HETATM   27  S   UNL     1      43.835 -15.450   6.392  1.00  0.00    -0.082 SA
HETATM   28  C   UNL     1      43.739 -16.537   5.065  1.00  0.00     0.017 A 
HETATM   29  C   UNL     1      43.266 -15.901   3.916  1.00  0.00     0.004 A 
HETATM   30  C   UNL     1      44.082 -17.904   5.063  1.00  0.00     0.020 A 
HETATM   31  C   UNL     1      42.978 -14.514   4.177  1.00  0.00     0.068 A 
HETATM   32  C   UNL     1      43.145 -16.675   2.731  1.00  0.00     0.014 A 
HETATM   33 CL   UNL     1      42.407 -13.480   2.921  1.00  0.00    -0.082 Cl
HETATM   34  C   UNL     1      43.483 -18.031   2.726  1.00  0.00     0.001 A 
HETATM   35  C   UNL     1      43.945 -18.638   3.883  1.00  0.00     0.001 A 
ENDBRANCH  23  26
ENDBRANCH  20  22
ENDBRANCH   1  20
TORSDOF 7
ENDMDL
MODEL 7
REMARK VINA RESULT:      -8.5      5.506      9.064
REMARK  7 active torsions:
REMARK  status: ('A' for Active; 'I' for Inactive)
REMARK    1  A    between atoms: C_2  and  C_3 
REMARK    2  A    between atoms: C_3  and  C_4 
REMARK       I    between atoms: C_4  and  N_5 
REMARK    3  A    between atoms: N_8  and  C_9 
REMARK    4  A    between atoms: C_12  and  N_13 
REMARK    5  A    between atoms: N_13  and  C_14 
REMARK    6  A    between atoms: C_14  and  N_15 
REMARK       I    between atoms: N_15  and  C_16 
REMARK    7  A    between atoms: C_16  and  C_17 
ROOT
HETATM    1  N   UNL     1      38.892  -9.973   4.797  1.00  0.00    -0.333 N 
HETATM    2  H   UNL     1      38.262  -9.693   5.551  1.00  0.00     0.168 HD
ENDROOT
BRANCH   1   3
HETATM    3  C   UNL     1      39.739 -11.066   5.089  1.00  0.00     0.034 C 
HETATM    4  C   UNL     1      41.080 -11.111   4.725  1.00  0.00     0.032 C 
HETATM    5  C   UNL     1      41.812 -12.296   4.851  1.00  0.00     0.031 C 
HETATM    6  C   UNL     1      41.237 -13.467   5.355  1.00  0.00     0.030 C 
HETATM    7  C   UNL     1      39.936 -13.358   5.868  1.00  0.00     0.031 C 
HETATM    8  C   UNL     1      39.198 -12.168   5.750  1.00  0.00     0.032 C 
BRANCH   6   9
HETATM    9  N   UNL     1      41.855 -14.711   5.247  1.00  0.00    -0.378 N 
HETATM   10  C   UNL     1      42.323 -15.375   6.478  1.00  0.00     0.143 C 
HETATM   11  C   UNL     1      42.501 -16.892   6.236  1.00  0.00     0.145 C 
HETATM   12  N   UNL     1      43.235 -17.226   5.004  1.00  0.00    -0.349 N 
HETATM   13  C   UNL     1      43.779 -18.509   4.909  1.00  0.00     0.219 C 
HETATM   14  C   UNL     1      42.850 -16.451   3.818  1.00  0.00     0.145 C 
HETATM   15  O   UNL     1      43.848 -19.263   5.878  1.00  0.00    -0.273 OA
HETATM   16  C   UNL     1      42.739 -14.948   4.094  1.00  0.00     0.143 C 
BRANCH  13  17
HETATM   17  C   UNL     1      44.305 -18.917   3.536  1.00  0.00     0.103 C 
BRANCH  17  18
HETATM   18  C   UNL     1      43.850 -20.310   3.107  1.00  0.00     0.005 C 
HETATM   19  C   UNL     1      43.255 -20.283   1.707  1.00  0.00     0.005 C 
ENDBRANCH  17  18
ENDBRANCH  13  17
ENDBRANCH   6   9
ENDBRANCH   1   3
BRANCH   1  20
HETATM   20  C   UNL     1      38.568  -9.442   3.566  1.00  0.00     0.179 C 
HETATM   21  S   UNL     1      38.152  -7.871   3.152  1.00  0.00    -0.040 SA
BRANCH  20  22
HETATM   22  N   UNL     1      38.646 -10.309   2.495  1.00  0.00    -0.299 N 
HETATM   23  C   UNL     1      39.590 -10.434   1.483  1.00  0.00     0.266 C 
HETATM   24  O   UNL     1      40.610  -9.743   1.472  1.00  0.00    -0.267 OA
HETATM   25  H   UNL     1      37.826 -10.897   2.431  1.00  0.00     0.171 HD
BRANCH  23  26
HETATM   26  C   UNL     1      39.270 -11.444   0.481  1.00  0.00     0.096 A 
HETATM   27  S   UNL     1      37.976 -11.139  -0.598  1.00  0.00    -0.082 SA
HETATM   28  C   UNL     1      38.216 -12.609  -1.456  1.00  0.00     0.017 A 
HETATM   29  C   UNL     1      39.257 -13.357  -0.905  1.00  0.00     0.004 A 
HETATM   30  C   UNL     1      37.489 -13.064  -2.574  1.00  0.00     0.020 A 
HETATM   31  C   UNL     1      39.844 -12.675   0.218  1.00  0.00     0.068 A 
HETATM   32  C   UNL     1      39.563 -14.609  -1.505  1.00  0.00     0.014 A 
HETATM   33 CL   UNL     1      41.136 -13.390   1.109  1.00  0.00    -0.082 Cl
HETATM   34  C   UNL     1      38.846 -15.063  -2.614  1.00  0.00     0.001 A 
HETATM   35  C   UNL     1      37.820 -14.296  -3.144  1.00  0.00     0.001 A 
ENDBRANCH  23  26
ENDBRANCH  20  22
ENDBRANCH   1  20
TORSDOF 7
ENDMDL
MODEL 8
REMARK VINA RESULT:      -8.4      4.826      8.855
REMARK  7 active torsions:
REMARK  status: ('A' for Active; 'I' for Inactive)
REMARK    1  A    between atoms: C_2  and  C_3 
REMARK    2  A    between atoms: C_3  and  C_4 
REMARK       I    between atoms: C_4  and  N_5 
REMARK    3  A    between atoms: N_8  and  C_9 
REMARK    4  A    between atoms: C_12  and  N_13 
REMARK    5  A    between atoms: N_13  and  C_14 
REMARK    6  A    between atoms: C_14  and  N_15 
REMARK       I    between atoms: N_15  and  C_16 
REMARK    7  A    between atoms: C_16  and  C_17 
ROOT
HETATM    1  N   UNL     1      41.394 -12.595   6.070  1.00  0.00    -0.333 N 
HETATM    2  H   UNL     1      40.884 -12.366   6.924  1.00  0.00     0.168 HD
ENDROOT
BRANCH   1   3
HETATM    3  C   UNL     1      40.836 -12.084   4.875  1.00  0.00     0.034 C 
HETATM    4  C   UNL     1      39.846 -12.739   4.153  1.00  0.00     0.032 C 
HETATM    5  C   UNL     1      39.483 -12.297   2.878  1.00  0.00     0.031 C 
HETATM    6  C   UNL     1      40.085 -11.180   2.287  1.00  0.00     0.030 C 
HETATM    7  C   UNL     1      40.959 -10.438   3.094  1.00  0.00     0.031 C 
HETATM    8  C   UNL     1      41.323 -10.875   4.379  1.00  0.00     0.032 C 
BRANCH   6   9
HETATM    9  N   UNL     1      39.936 -10.877   0.936  1.00  0.00    -0.378 N 
HETATM   10  C   UNL     1      38.681 -11.260   0.262  1.00  0.00     0.143 C 
HETATM   11  C   UNL     1      38.489 -10.428  -1.027  1.00  0.00     0.145 C 
HETATM   12  N   UNL     1      39.684 -10.351  -1.884  1.00  0.00    -0.349 N 
HETATM   13  C   UNL     1      39.496  -9.976  -3.216  1.00  0.00     0.219 C 
HETATM   14  C   UNL     1      40.945 -10.109  -1.174  1.00  0.00     0.145 C 
HETATM   15  O   UNL     1      38.380  -9.921  -3.729  1.00  0.00    -0.273 OA
HETATM   16  C   UNL     1      41.117 -10.995   0.065  1.00  0.00     0.143 C 
BRANCH  13  17
HETATM   17  C   UNL     1      40.759  -9.654  -4.009  1.00  0.00     0.103 C 
BRANCH  17  18
HETATM   18  C   UNL     1      40.743  -8.258  -4.627  1.00  0.00     0.005 C 
HETATM   19  C   UNL     1      42.040  -7.517  -4.339  1.00  0.00     0.005 C 
ENDBRANCH  17  18
ENDBRANCH  13  17
ENDBRANCH   6   9
ENDBRANCH   1   3
BRANCH   1  20
HETATM   20  C   UNL     1      42.668 -13.075   6.285  1.00  0.00     0.179 C 
HETATM   21  S   UNL     1      43.923 -12.421   7.185  1.00  0.00    -0.040 SA
BRANCH  20  22
HETATM   22  N   UNL     1      42.953 -14.305   5.727  1.00  0.00    -0.299 N 
HETATM   23  C   UNL     1      43.145 -14.691   4.406  1.00  0.00     0.266 C 
HETATM   24  O   UNL     1      43.143 -13.865   3.493  1.00  0.00    -0.267 OA
HETATM   25  H   UNL     1      42.951 -15.040   6.422  1.00  0.00     0.171 HD
BRANCH  23  26
HETATM   26  C   UNL     1      43.360 -16.121   4.220  1.00  0.00     0.096 A 
HETATM   27  S   UNL     1      43.747 -17.071   5.591  1.00  0.00    -0.082 SA
HETATM   28  C   UNL     1      43.784 -18.534   4.689  1.00  0.00     0.017 A 
HETATM   29  C   UNL     1      43.538 -18.304   3.334  1.00  0.00     0.004 A 
HETATM   30  C   UNL     1      44.030 -19.829   5.186  1.00  0.00     0.020 A 
HETATM   31  C   UNL     1      43.308 -16.906   3.081  1.00  0.00     0.068 A 
HETATM   32  C   UNL     1      43.549 -19.424   2.460  1.00  0.00     0.014 A 
HETATM   33 CL   UNL     1      43.008 -16.335   1.482  1.00  0.00    -0.082 Cl
HETATM   34  C   UNL     1      43.792 -20.710   2.949  1.00  0.00     0.001 A 
HETATM   35  C   UNL     1      44.027 -20.909   4.300  1.00  0.00     0.001 A 
ENDBRANCH  23  26
ENDBRANCH  20  22
ENDBRANCH   1  20
TORSDOF 7
ENDMDL
MODEL 9
REMARK VINA RESULT:      -8.2      5.755      9.781
REMARK  7 active torsions:
REMARK  status: ('A' for Active; 'I' for Inactive)
REMARK    1  A    between atoms: C_2  and  C_3 
REMARK    2  A    between atoms: C_3  and  C_4 
REMARK       I    between atoms: C_4  and  N_5 
REMARK    3  A    between atoms: N_8  and  C_9 
REMARK    4  A    between atoms: C_12  and  N_13 
REMARK    5  A    between atoms: N_13  and  C_14 
REMARK    6  A    between atoms: C_14  and  N_15 
REMARK       I    between atoms: N_15  and  C_16 
REMARK    7  A    between atoms: C_16  and  C_17 
ROOT
HETATM    1  N   UNL     1      39.273 -13.194   3.832  1.00  0.00    -0.333 N 
HETATM    2  H   UNL     1      38.344 -13.341   4.230  1.00  0.00     0.168 HD
ENDROOT
BRANCH   1   3
HETATM    3  C   UNL     1      39.295 -12.640   2.532  1.00  0.00     0.034 C 
HETATM    4  C   UNL     1      39.882 -13.272   1.442  1.00  0.00     0.032 C 
HETATM    5  C   UNL     1      40.061 -12.591   0.234  1.00  0.00     0.031 C 
HETATM    6  C   UNL     1      39.648 -11.265   0.070  1.00  0.00     0.030 C 
HETATM    7  C   UNL     1      38.912 -10.700   1.121  1.00  0.00     0.031 C 
HETATM    8  C   UNL     1      38.725 -11.382   2.336  1.00  0.00     0.032 C 
BRANCH   6   9
HETATM    9  N   UNL     1      40.044 -10.488  -1.017  1.00  0.00    -0.378 N 
HETATM   10  C   UNL     1      39.433 -10.754  -2.333  1.00  0.00     0.143 C 
HETATM   11  C   UNL     1      39.594  -9.524  -3.258  1.00  0.00     0.145 C 
HETATM   12  N   UNL     1      40.952  -8.956  -3.280  1.00  0.00    -0.349 N 
HETATM   13  C   UNL     1      41.283  -8.126  -4.353  1.00  0.00     0.219 C 
HETATM   14  C   UNL     1      41.598  -8.831  -1.968  1.00  0.00     0.145 C 
HETATM   15  O   UNL     1      40.573  -8.035  -5.353  1.00  0.00    -0.273 OA
HETATM   16  C   UNL     1      41.459 -10.093  -1.108  1.00  0.00     0.143 C 
BRANCH  13  17
HETATM   17  C   UNL     1      42.590  -7.348  -4.224  1.00  0.00     0.103 C 
BRANCH  17  18
HETATM   18  C   UNL     1      42.620  -6.077  -5.069  1.00  0.00     0.005 C 
HETATM   19  C   UNL     1      43.421  -6.287  -6.345  1.00  0.00     0.005 C 
ENDBRANCH  17  18
ENDBRANCH  13  17
ENDBRANCH   6   9
ENDBRANCH   1   3
BRANCH   1  20
HETATM   20  C   UNL     1      40.298 -13.267   4.752  1.00  0.00     0.179 C 
HETATM   21  S   UNL     1      40.713 -12.205   5.982  1.00  0.00    -0.040 SA
BRANCH  20  22
HETATM   22  N   UNL     1      41.076 -14.406   4.700  1.00  0.00    -0.299 N 
HETATM   23  C   UNL     1      42.381 -14.606   4.266  1.00  0.00     0.266 C 
HETATM   24  O   UNL     1      43.083 -13.664   3.896  1.00  0.00    -0.267 OA
HETATM   25  H   UNL     1      40.554 -15.227   4.973  1.00  0.00     0.171 HD
BRANCH  23  26
HETATM   26  C   UNL     1      42.824 -15.995   4.308  1.00  0.00     0.096 A 
HETATM   27  S   UNL     1      42.999 -16.748   5.835  1.00  0.00    -0.082 SA
HETATM   28  C   UNL     1      43.445 -18.259   5.149  1.00  0.00     0.017 A 
HETATM   29  C   UNL     1      43.499 -18.191   3.756  1.00  0.00     0.004 A 
HETATM   30  C   UNL     1      43.738 -19.450   5.842  1.00  0.00     0.020 A 
HETATM   31  C   UNL     1      43.149 -16.874   3.290  1.00  0.00     0.068 A 
HETATM   32  C   UNL     1      43.868 -19.367   3.049  1.00  0.00     0.014 A 
HETATM   33 CL   UNL     1      43.164 -16.500   1.607  1.00  0.00    -0.082 Cl
HETATM   34  C   UNL     1      44.158 -20.550   3.732  1.00  0.00     0.001 A 
HETATM   35  C   UNL     1      44.090 -20.590   5.116  1.00  0.00     0.001 A 
ENDBRANCH  23  26
ENDBRANCH  20  22
ENDBRANCH   1  20
TORSDOF 7
ENDMDL
MODEL 10
REMARK VINA RESULT:      -8.2      2.746      3.792
REMARK  7 active torsions:
REMARK  status: ('A' for Active; 'I' for Inactive)
REMARK    1  A    between atoms: C_2  and  C_3 
REMARK    2  A    between atoms: C_3  and  C_4 
REMARK       I    between atoms: C_4  and  N_5 
REMARK    3  A    between atoms: N_8  and  C_9 
REMARK    4  A    between atoms: C_12  and  N_13 
REMARK    5  A    between atoms: N_13  and  C_14 
REMARK    6  A    between atoms: C_14  and  N_15 
REMARK       I    between atoms: N_15  and  C_16 
REMARK    7  A    between atoms: C_16  and  C_17 
ROOT
HETATM    1  N   UNL     1      39.913 -11.032   1.371  1.00  0.00    -0.333 N 
HETATM    2  H   UNL     1      39.059 -10.502   1.196  1.00  0.00     0.168 HD
ENDROOT
BRANCH   1   3
HETATM    3  C   UNL     1      40.678 -10.602   2.480  1.00  0.00     0.034 C 
HETATM    4  C   UNL     1      42.053 -10.779   2.575  1.00  0.00     0.032 C 
HETATM    5  C   UNL     1      42.723 -10.526   3.776  1.00  0.00     0.031 C 
HETATM    6  C   UNL     1      42.046 -10.076   4.915  1.00  0.00     0.030 C 
HETATM    7  C   UNL     1      40.693  -9.746   4.753  1.00  0.00     0.031 C 
HETATM    8  C   UNL     1      40.016  -9.992   3.546  1.00  0.00     0.032 C 
BRANCH   6   9
HETATM    9  N   UNL     1      42.632 -10.069   6.179  1.00  0.00    -0.378 N 
HETATM   10  C   UNL     1      43.327 -11.286   6.640  1.00  0.00     0.143 C 
HETATM   11  C   UNL     1      44.310 -10.941   7.784  1.00  0.00     0.145 C 
HETATM   12  N   UNL     1      43.740 -10.085   8.837  1.00  0.00    -0.349 N 
HETATM   13  C   UNL     1      44.400 -10.055  10.067  1.00  0.00     0.219 C 
HETATM   14  C   UNL     1      42.932  -8.958   8.356  1.00  0.00     0.145 C 
HETATM   15  O   UNL     1      45.285 -10.858  10.354  1.00  0.00    -0.273 OA
HETATM   16  C   UNL     1      41.934  -9.358   7.263  1.00  0.00     0.143 C 
BRANCH  13  17
HETATM   17  C   UNL     1      43.948  -8.976  11.047  1.00  0.00     0.103 C 
BRANCH  17  18
HETATM   18  C   UNL     1      42.963  -9.489  12.095  1.00  0.00     0.005 C 
HETATM   19  C   UNL     1      42.751  -8.459  13.195  1.00  0.00     0.005 C 
ENDBRANCH  17  18
ENDBRANCH  13  17
ENDBRANCH   6   9
ENDBRANCH   1   3
BRANCH   1  20
HETATM   20  C   UNL     1      39.981 -12.232   0.697  1.00  0.00     0.179 C 
HETATM   21  S   UNL     1      39.596 -12.590  -0.896  1.00  0.00    -0.040 SA
BRANCH  20  22
HETATM   22  N   UNL     1      40.490 -13.299   1.409  1.00  0.00    -0.299 N 
HETATM   23  C   UNL     1      40.043 -13.926   2.566  1.00  0.00     0.266 C 
HETATM   24  O   UNL     1      38.986 -13.597   3.104  1.00  0.00    -0.267 OA
HETATM   25  H   UNL     1      41.375 -13.611   1.032  1.00  0.00     0.171 HD
BRANCH  23  26
HETATM   26  C   UNL     1      40.915 -14.990   3.050  1.00  0.00     0.096 A 
HETATM   27  S   UNL     1      41.456 -16.171   1.935  1.00  0.00    -0.082 SA
HETATM   28  C   UNL     1      42.411 -16.985   3.109  1.00  0.00     0.017 A 
HETATM   29  C   UNL     1      42.297 -16.386   4.364  1.00  0.00     0.004 A 
HETATM   30  C   UNL     1      43.223 -18.118   2.902  1.00  0.00     0.020 A 
HETATM   31  C   UNL     1      41.420 -15.245   4.313  1.00  0.00     0.068 A 
HETATM   32  C   UNL     1      43.024 -16.961   5.442  1.00  0.00     0.014 A 
HETATM   33 CL   UNL     1      41.075 -14.333   5.735  1.00  0.00    -0.082 Cl
HETATM   34  C   UNL     1      43.831 -18.083   5.241  1.00  0.00     0.001 A 
HETATM   35  C   UNL     1      43.930 -18.654   3.981  1.00  0.00     0.001 A 
ENDBRANCH  23  26
ENDBRANCH  20  22
ENDBRANCH   1  20
TORSDOF 7
ENDMDL
