MODEL 1
REMARK VINA RESULT:      -8.7      0.000      0.000
REMARK  10 active torsions:
REMARK  status: ('A' for Active; 'I' for Inactive)
REMARK    1  A    between atoms: C_2  and  O_3 
REMARK    2  A    between atoms: O_3  and  C_4 
REMARK    3  A    between atoms: C_9  and  C_10 
REMARK    4  A    between atoms: C_10  and  O_11 
REMARK    5  A    between atoms: O_11  and  C_12 
REMARK    6  A    between atoms: C_12  and  C_13 
REMARK       I    between atoms: C_13  and  N_14 
REMARK    7  A    between atoms: N_14  and  C_15 
REMARK    8  A    between atoms: C_16  and  C_17 
REMARK       I    between atoms: C_17  and  N_18 
REMARK    9  A    between atoms: N_18  and  C_19 
REMARK   10  A    between atoms: C_19  and  C_20 
ROOT
HETATM    1  C   UNL     1      42.265 -12.626   5.254  1.00  0.00     0.050 A 
HETATM    2  C   UNL     1      42.175 -14.010   4.985  1.00  0.00     0.058 A 
HETATM    3  C   UNL     1      41.167 -14.507   4.138  1.00  0.00     0.019 A 
HETATM    4  C   UNL     1      40.225 -13.649   3.578  1.00  0.00     0.001 A 
HETATM    5  C   UNL     1      40.287 -12.290   3.860  1.00  0.00     0.002 A 
HETATM    6  C   UNL     1      41.296 -11.785   4.687  1.00  0.00     0.030 A 
ENDROOT
BRANCH   1   7
HETATM    7  N   UNL     1      43.327 -12.118   6.046  1.00  0.00    -0.324 N 
HETATM    8  C   UNL     1      44.475 -11.474   5.613  1.00  0.00     0.246 C 
HETATM    9  O   UNL     1      44.777 -11.228   4.448  1.00  0.00    -0.271 OA
HETATM   10  H   UNL     1      43.262 -12.298   7.053  1.00  0.00     0.169 HD
BRANCH   8  11
HETATM   11  C   UNL     1      45.384 -11.012   6.755  1.00  0.00     0.282 C 
BRANCH  11  12
HETATM   12  O   UNL     1      44.677 -10.409   7.836  1.00  0.00    -0.308 OA
BRANCH  12  13
HETATM   13  C   UNL     1      45.245  -9.280   8.330  1.00  0.00     0.298 C 
HETATM   14  O   UNL     1      46.284  -8.789   7.923  1.00  0.00    -0.259 OA
BRANCH  13  15
HETATM   15  C   UNL     1      44.406  -8.774   9.438  1.00  0.00     0.092 A 
HETATM   16  C   UNL     1      43.522  -7.717   9.254  1.00  0.00     0.180 A 
HETATM   17  N   UNL     1      42.747  -7.219  10.253  1.00  0.00    -0.236 NA
HETATM   18  C   UNL     1      42.860  -7.788  11.473  1.00  0.00     0.119 A 
HETATM   19  C   UNL     1      43.711  -8.841  11.752  1.00  0.00     0.020 A 
HETATM   20  C   UNL     1      44.498  -9.340  10.718  1.00  0.00     0.023 A 
BRANCH  16  21
HETATM   21  O   UNL     1      43.386  -7.180   7.991  1.00  0.00    -0.334 OA
BRANCH  21  22
HETATM   22  C   UNL     1      42.052  -7.231   7.481  1.00  0.00     0.173 C 
HETATM   23  C   UNL     1      41.902  -8.515   6.688  1.00  0.00     0.034 C 
ENDBRANCH  21  22
ENDBRANCH  16  21
ENDBRANCH  13  15
ENDBRANCH  12  13
ENDBRANCH  11  12
ENDBRANCH   8  11
ENDBRANCH   1   7
BRANCH   2  24
HETATM   24  C   UNL     1      43.063 -15.040   5.599  1.00  0.00     0.254 C 
HETATM   25  N   UNL     1      42.830 -16.343   5.209  1.00  0.00    -0.349 N 
HETATM   26  H   UNL     1      42.277 -16.473   4.370  1.00  0.00     0.163 HD
HETATM   27  O   UNL     1      43.982 -14.703   6.336  1.00  0.00    -0.268 OA
BRANCH  25  28
HETATM   28  C   UNL     1      43.741 -17.427   5.555  1.00  0.00     0.114 C 
HETATM   29  C   UNL     1      43.466 -18.016   6.943  1.00  0.00     0.037 C 
BRANCH  28  30
HETATM   30  C   UNL     1      43.669 -18.487   4.465  1.00  0.00    -0.036 A 
HETATM   31  C   UNL     1      43.301 -18.162   3.149  1.00  0.00     0.009 A 
HETATM   32  C   UNL     1      43.272 -19.141   2.154  1.00  0.00     0.001 A 
HETATM   33  C   UNL     1      43.618 -20.454   2.459  1.00  0.00     0.000 A 
HETATM   34  C   UNL     1      43.995 -20.792   3.757  1.00  0.00     0.001 A 
HETATM   35  C   UNL     1      44.025 -19.813   4.754  1.00  0.00     0.009 A 
ENDBRANCH  28  30
ENDBRANCH  25  28
ENDBRANCH   2  24
TORSDOF 10
ENDMDL
MODEL 2
REMARK VINA RESULT:      -8.7      2.272      5.709
REMARK  10 active torsions:
REMARK  status: ('A' for Active; 'I' for Inactive)
REMARK    1  A    between atoms: C_2  and  O_3 
REMARK    2  A    between atoms: O_3  and  C_4 
REMARK    3  A    between atoms: C_9  and  C_10 
REMARK    4  A    between atoms: C_10  and  O_11 
REMARK    5  A    between atoms: O_11  and  C_12 
REMARK    6  A    between atoms: C_12  and  C_13 
REMARK       I    between atoms: C_13  and  N_14 
REMARK    7  A    between atoms: N_14  and  C_15 
REMARK    8  A    between atoms: C_16  and  C_17 
REMARK       I    between atoms: C_17  and  N_18 
REMARK    9  A    between atoms: N_18  and  C_19 
REMARK   10  A    between atoms: C_19  and  C_20 
ROOT
HETATM    1  C   UNL     1      43.907 -17.916   4.117  1.00  0.00     0.050 A 
HETATM    2  C   UNL     1      43.259 -17.827   2.864  1.00  0.00     0.058 A 
HETATM    3  C   UNL     1      42.970 -18.991   2.129  1.00  0.00     0.019 A 
HETATM    4  C   UNL     1      43.345 -20.244   2.607  1.00  0.00     0.001 A 
HETATM    5  C   UNL     1      44.007 -20.339   3.823  1.00  0.00     0.002 A 
HETATM    6  C   UNL     1      44.284 -19.189   4.570  1.00  0.00     0.030 A 
ENDROOT
BRANCH   1   7
HETATM    7  N   UNL     1      44.129 -16.748   4.893  1.00  0.00    -0.324 N 
HETATM    8  C   UNL     1      43.367 -16.274   5.948  1.00  0.00     0.246 C 
HETATM    9  O   UNL     1      42.350 -16.790   6.403  1.00  0.00    -0.271 OA
HETATM   10  H   UNL     1      44.915 -16.159   4.600  1.00  0.00     0.169 HD
BRANCH   8  11
HETATM   11  C   UNL     1      43.936 -15.006   6.590  1.00  0.00     0.282 C 
BRANCH  11  12
HETATM   12  O   UNL     1      43.048 -13.892   6.535  1.00  0.00    -0.308 OA
BRANCH  12  13
HETATM   13  C   UNL     1      43.440 -12.890   5.709  1.00  0.00     0.298 C 
HETATM   14  O   UNL     1      43.372 -12.925   4.492  1.00  0.00    -0.259 OA
BRANCH  13  15
HETATM   15  C   UNL     1      43.969 -11.779   6.530  1.00  0.00     0.092 A 
HETATM   16  C   UNL     1      43.151 -10.737   6.953  1.00  0.00     0.180 A 
HETATM   17  N   UNL     1      43.606  -9.695   7.696  1.00  0.00    -0.236 NA
HETATM   18  C   UNL     1      44.917  -9.688   8.024  1.00  0.00     0.119 A 
HETATM   19  C   UNL     1      45.806 -10.679   7.649  1.00  0.00     0.020 A 
HETATM   20  C   UNL     1      45.324 -11.739   6.888  1.00  0.00     0.023 A 
BRANCH  16  21
HETATM   21  O   UNL     1      41.807 -10.785   6.648  1.00  0.00    -0.334 OA
BRANCH  21  22
HETATM   22  C   UNL     1      41.326  -9.623   5.970  1.00  0.00     0.173 C 
HETATM   23  C   UNL     1      41.863  -9.651   4.551  1.00  0.00     0.034 C 
ENDBRANCH  21  22
ENDBRANCH  16  21
ENDBRANCH  13  15
ENDBRANCH  12  13
ENDBRANCH  11  12
ENDBRANCH   8  11
ENDBRANCH   1   7
BRANCH   2  24
HETATM   24  C   UNL     1      42.894 -16.541   2.201  1.00  0.00     0.254 C 
HETATM   25  N   UNL     1      41.544 -16.313   2.037  1.00  0.00    -0.349 N 
HETATM   26  H   UNL     1      40.917 -16.881   2.593  1.00  0.00     0.163 HD
HETATM   27  O   UNL     1      43.764 -15.729   1.908  1.00  0.00    -0.268 OA
BRANCH  25  28
HETATM   28  C   UNL     1      41.027 -15.021   1.601  1.00  0.00     0.114 C 
HETATM   29  C   UNL     1      39.976 -15.143   0.493  1.00  0.00     0.037 C 
BRANCH  28  30
HETATM   30  C   UNL     1      40.487 -14.281   2.816  1.00  0.00    -0.036 A 
HETATM   31  C   UNL     1      40.572 -14.828   4.107  1.00  0.00     0.009 A 
HETATM   32  C   UNL     1      40.101 -14.121   5.214  1.00  0.00     0.001 A 
HETATM   33  C   UNL     1      39.545 -12.855   5.047  1.00  0.00     0.000 A 
HETATM   34  C   UNL     1      39.461 -12.294   3.775  1.00  0.00     0.001 A 
HETATM   35  C   UNL     1      39.933 -13.000   2.666  1.00  0.00     0.009 A 
ENDBRANCH  28  30
ENDBRANCH  25  28
ENDBRANCH   2  24
TORSDOF 10
ENDMDL
MODEL 3
REMARK VINA RESULT:      -8.6      2.188      5.986
REMARK  10 active torsions:
REMARK  status: ('A' for Active; 'I' for Inactive)
REMARK    1  A    between atoms: C_2  and  O_3 
REMARK    2  A    between atoms: O_3  and  C_4 
REMARK    3  A    between atoms: C_9  and  C_10 
REMARK    4  A    between atoms: C_10  and  O_11 
REMARK    5  A    between atoms: O_11  and  C_12 
REMARK    6  A    between atoms: C_12  and  C_13 
REMARK       I    between atoms: C_13  and  N_14 
REMARK    7  A    between atoms: N_14  and  C_15 
REMARK    8  A    between atoms: C_16  and  C_17 
REMARK       I    between atoms: C_17  and  N_18 
REMARK    9  A    between atoms: N_18  and  C_19 
REMARK   10  A    between atoms: C_19  and  C_20 
ROOT
HETATM    1  C   UNL     1      43.797 -17.732   4.194  1.00  0.00     0.050 A 
HETATM    2  C   UNL     1      43.264 -17.761   2.885  1.00  0.00     0.058 A 
HETATM    3  C   UNL     1      43.117 -18.983   2.204  1.00  0.00     0.019 A 
HETATM    4  C   UNL     1      43.521 -20.177   2.794  1.00  0.00     0.001 A 
HETATM    5  C   UNL     1      44.073 -20.156   4.068  1.00  0.00     0.002 A 
HETATM    6  C   UNL     1      44.208 -18.948   4.760  1.00  0.00     0.030 A 
ENDROOT
BRANCH   1   7
HETATM    7  N   UNL     1      43.874 -16.508   4.909  1.00  0.00    -0.324 N 
HETATM    8  C   UNL     1      43.254 -16.184   6.104  1.00  0.00     0.246 C 
HETATM    9  O   UNL     1      42.518 -16.913   6.765  1.00  0.00    -0.271 OA
HETATM   10  H   UNL     1      44.407 -15.758   4.457  1.00  0.00     0.169 HD
BRANCH   8  11
HETATM   11  C   UNL     1      43.607 -14.785   6.616  1.00  0.00     0.282 C 
BRANCH  11  12
HETATM   12  O   UNL     1      43.644 -13.797   5.589  1.00  0.00    -0.308 OA
BRANCH  12  13
HETATM   13  C   UNL     1      44.034 -12.563   5.997  1.00  0.00     0.298 C 
HETATM   14  O   UNL     1      44.903 -12.347   6.823  1.00  0.00    -0.259 OA
BRANCH  13  15
HETATM   15  C   UNL     1      43.220 -11.551   5.289  1.00  0.00     0.092 A 
HETATM   16  C   UNL     1      42.477 -10.603   5.984  1.00  0.00     0.180 A 
HETATM   17  N   UNL     1      41.708  -9.669   5.366  1.00  0.00    -0.236 NA
HETATM   18  C   UNL     1      41.675  -9.681   4.015  1.00  0.00     0.119 A 
HETATM   19  C   UNL     1      42.379 -10.585   3.240  1.00  0.00     0.020 A 
HETATM   20  C   UNL     1      43.162 -11.535   3.888  1.00  0.00     0.023 A 
BRANCH  16  21
HETATM   21  O   UNL     1      42.559 -10.576   7.360  1.00  0.00    -0.334 OA
BRANCH  21  22
HETATM   22  C   UNL     1      43.139  -9.378   7.881  1.00  0.00     0.173 C 
HETATM   23  C   UNL     1      42.190  -8.810   8.920  1.00  0.00     0.034 C 
ENDBRANCH  21  22
ENDBRANCH  16  21
ENDBRANCH  13  15
ENDBRANCH  12  13
ENDBRANCH  11  12
ENDBRANCH   8  11
ENDBRANCH   1   7
BRANCH   2  24
HETATM   24  C   UNL     1      42.884 -16.544   2.110  1.00  0.00     0.254 C 
HETATM   25  N   UNL     1      41.544 -16.220   2.120  1.00  0.00    -0.349 N 
HETATM   26  H   UNL     1      40.978 -16.655   2.839  1.00  0.00     0.163 HD
HETATM   27  O   UNL     1      43.748 -15.856   1.579  1.00  0.00    -0.268 OA
BRANCH  25  28
HETATM   28  C   UNL     1      41.051 -14.955   1.590  1.00  0.00     0.114 C 
HETATM   29  C   UNL     1      40.013 -15.139   0.478  1.00  0.00     0.037 C 
BRANCH  28  30
HETATM   30  C   UNL     1      40.505 -14.126   2.743  1.00  0.00    -0.036 A 
HETATM   31  C   UNL     1      39.668 -13.019   2.520  1.00  0.00     0.009 A 
HETATM   32  C   UNL     1      39.150 -12.289   3.590  1.00  0.00     0.001 A 
HETATM   33  C   UNL     1      39.454 -12.659   4.898  1.00  0.00     0.000 A 
HETATM   34  C   UNL     1      40.275 -13.759   5.138  1.00  0.00     0.001 A 
HETATM   35  C   UNL     1      40.794 -14.491   4.067  1.00  0.00     0.009 A 
ENDBRANCH  28  30
ENDBRANCH  25  28
ENDBRANCH   2  24
TORSDOF 10
ENDMDL
MODEL 4
REMARK VINA RESULT:      -8.4      2.859      5.465
REMARK  10 active torsions:
REMARK  status: ('A' for Active; 'I' for Inactive)
REMARK    1  A    between atoms: C_2  and  O_3 
REMARK    2  A    between atoms: O_3  and  C_4 
REMARK    3  A    between atoms: C_9  and  C_10 
REMARK    4  A    between atoms: C_10  and  O_11 
REMARK    5  A    between atoms: O_11  and  C_12 
REMARK    6  A    between atoms: C_12  and  C_13 
REMARK       I    between atoms: C_13  and  N_14 
REMARK    7  A    between atoms: N_14  and  C_15 
REMARK    8  A    between atoms: C_16  and  C_17 
REMARK       I    between atoms: C_17  and  N_18 
REMARK    9  A    between atoms: N_18  and  C_19 
REMARK   10  A    between atoms: C_19  and  C_20 
ROOT
HETATM    1  C   UNL     1      43.237 -16.375   4.235  1.00  0.00     0.050 A 
HETATM    2  C   UNL     1      42.291 -16.208   3.199  1.00  0.00     0.058 A 
HETATM    3  C   UNL     1      42.092 -17.225   2.247  1.00  0.00     0.019 A 
HETATM    4  C   UNL     1      42.844 -18.395   2.291  1.00  0.00     0.001 A 
HETATM    5  C   UNL     1      43.797 -18.556   3.289  1.00  0.00     0.002 A 
HETATM    6  C   UNL     1      43.990 -17.558   4.250  1.00  0.00     0.030 A 
ENDROOT
BRANCH   1   7
HETATM    7  N   UNL     1      43.383 -15.381   5.239  1.00  0.00    -0.324 N 
HETATM    8  C   UNL     1      42.771 -15.335   6.480  1.00  0.00     0.246 C 
HETATM    9  O   UNL     1      41.982 -16.160   6.936  1.00  0.00    -0.271 OA
HETATM   10  H   UNL     1      43.967 -14.577   4.992  1.00  0.00     0.169 HD
BRANCH   8  11
HETATM   11  C   UNL     1      43.204 -14.138   7.331  1.00  0.00     0.282 C 
BRANCH  11  12
HETATM   12  O   UNL     1      44.304 -13.418   6.780  1.00  0.00    -0.308 OA
BRANCH  12  13
HETATM   13  C   UNL     1      43.971 -12.272   6.134  1.00  0.00     0.298 C 
HETATM   14  O   UNL     1      43.377 -12.221   5.071  1.00  0.00    -0.259 OA
BRANCH  13  15
HETATM   15  C   UNL     1      44.462 -11.123   6.925  1.00  0.00     0.092 A 
HETATM   16  C   UNL     1      43.588 -10.176   7.447  1.00  0.00     0.180 A 
HETATM   17  N   UNL     1      44.007  -9.101   8.165  1.00  0.00    -0.236 NA
HETATM   18  C   UNL     1      45.335  -8.964   8.366  1.00  0.00     0.119 A 
HETATM   19  C   UNL     1      46.279  -9.853   7.886  1.00  0.00     0.020 A 
HETATM   20  C   UNL     1      45.835 -10.949   7.152  1.00  0.00     0.023 A 
BRANCH  16  21
HETATM   21  O   UNL     1      42.233 -10.357   7.272  1.00  0.00    -0.334 OA
BRANCH  21  22
HETATM   22  C   UNL     1      41.551  -9.196   6.793  1.00  0.00     0.173 C 
HETATM   23  C   UNL     1      41.646  -9.186   5.279  1.00  0.00     0.034 C 
ENDBRANCH  21  22
ENDBRANCH  16  21
ENDBRANCH  13  15
ENDBRANCH  12  13
ENDBRANCH  11  12
ENDBRANCH   8  11
ENDBRANCH   1   7
BRANCH   2  24
HETATM   24  C   UNL     1      41.493 -14.965   2.987  1.00  0.00     0.254 C 
HETATM   25  N   UNL     1      41.705 -14.313   1.791  1.00  0.00    -0.349 N 
HETATM   26  H   UNL     1      42.165 -14.843   1.060  1.00  0.00     0.163 HD
HETATM   27  O   UNL     1      40.655 -14.621   3.812  1.00  0.00    -0.268 OA
BRANCH  25  28
HETATM   28  C   UNL     1      40.857 -13.212   1.351  1.00  0.00     0.114 C 
HETATM   29  C   UNL     1      41.522 -11.842   1.520  1.00  0.00     0.037 C 
BRANCH  28  30
HETATM   30  C   UNL     1      40.442 -13.466  -0.091  1.00  0.00    -0.036 A 
HETATM   31  C   UNL     1      40.793 -12.580  -1.123  1.00  0.00     0.009 A 
HETATM   32  C   UNL     1      40.432 -12.844  -2.445  1.00  0.00     0.001 A 
HETATM   33  C   UNL     1      39.723 -14.002  -2.755  1.00  0.00     0.000 A 
HETATM   34  C   UNL     1      39.375 -14.897  -1.745  1.00  0.00     0.001 A 
HETATM   35  C   UNL     1      39.736 -14.633  -0.422  1.00  0.00     0.009 A 
ENDBRANCH  28  30
ENDBRANCH  25  28
ENDBRANCH   2  24
TORSDOF 10
ENDMDL
MODEL 5
REMARK VINA RESULT:      -8.3      2.411      9.634
REMARK  10 active torsions:
REMARK  status: ('A' for Active; 'I' for Inactive)
REMARK    1  A    between atoms: C_2  and  O_3 
REMARK    2  A    between atoms: O_3  and  C_4 
REMARK    3  A    between atoms: C_9  and  C_10 
REMARK    4  A    between atoms: C_10  and  O_11 
REMARK    5  A    between atoms: O_11  and  C_12 
REMARK    6  A    between atoms: C_12  and  C_13 
REMARK       I    between atoms: C_13  and  N_14 
REMARK    7  A    between atoms: N_14  and  C_15 
REMARK    8  A    between atoms: C_16  and  C_17 
REMARK       I    between atoms: C_17  and  N_18 
REMARK    9  A    between atoms: N_18  and  C_19 
REMARK   10  A    between atoms: C_19  and  C_20 
ROOT
HETATM    1  C   UNL     1      43.742 -10.773   7.509  1.00  0.00     0.050 A 
HETATM    2  C   UNL     1      43.699  -9.624   8.331  1.00  0.00     0.058 A 
HETATM    3  C   UNL     1      44.889  -8.975   8.708  1.00  0.00     0.019 A 
HETATM    4  C   UNL     1      46.126  -9.470   8.305  1.00  0.00     0.001 A 
HETATM    5  C   UNL     1      46.179 -10.615   7.521  1.00  0.00     0.002 A 
HETATM    6  C   UNL     1      45.001 -11.258   7.128  1.00  0.00     0.030 A 
ENDROOT
BRANCH   1   7
HETATM    7  N   UNL     1      42.538 -11.382   7.067  1.00  0.00    -0.324 N 
HETATM    8  C   UNL     1      41.895 -11.205   5.853  1.00  0.00     0.246 C 
HETATM    9  O   UNL     1      42.262 -10.478   4.933  1.00  0.00    -0.271 OA
HETATM   10  H   UNL     1      42.061 -11.980   7.750  1.00  0.00     0.169 HD
BRANCH   8  11
HETATM   11  C   UNL     1      40.640 -12.068   5.696  1.00  0.00     0.282 C 
BRANCH  11  12
HETATM   12  O   UNL     1      40.890 -13.327   5.076  1.00  0.00    -0.308 OA
BRANCH  12  13
HETATM   13  C   UNL     1      40.771 -14.401   5.897  1.00  0.00     0.298 C 
HETATM   14  O   UNL     1      39.824 -14.610   6.635  1.00  0.00    -0.259 OA
BRANCH  13  15
HETATM   15  C   UNL     1      41.978 -15.244   5.752  1.00  0.00     0.092 A 
HETATM   16  C   UNL     1      42.035 -16.273   4.820  1.00  0.00     0.180 A 
HETATM   17  N   UNL     1      43.121 -17.075   4.671  1.00  0.00    -0.236 NA
HETATM   18  C   UNL     1      44.182 -16.846   5.476  1.00  0.00     0.119 A 
HETATM   19  C   UNL     1      44.217 -15.847   6.431  1.00  0.00     0.020 A 
HETATM   20  C   UNL     1      43.096 -15.034   6.572  1.00  0.00     0.023 A 
BRANCH  16  21
HETATM   21  O   UNL     1      40.962 -16.462   3.975  1.00  0.00    -0.334 OA
BRANCH  21  22
HETATM   22  C   UNL     1      41.245 -16.166   2.606  1.00  0.00     0.173 C 
HETATM   23  C   UNL     1      39.952 -15.728   1.943  1.00  0.00     0.034 C 
ENDBRANCH  21  22
ENDBRANCH  16  21
ENDBRANCH  13  15
ENDBRANCH  12  13
ENDBRANCH  11  12
ENDBRANCH   8  11
ENDBRANCH   1   7
BRANCH   2  24
HETATM   24  C   UNL     1      42.446  -9.053   8.906  1.00  0.00     0.254 C 
HETATM   25  N   UNL     1      42.024  -9.608  10.096  1.00  0.00    -0.349 N 
HETATM   26  H   UNL     1      42.707 -10.153  10.609  1.00  0.00     0.163 HD
HETATM   27  O   UNL     1      41.900  -8.098   8.367  1.00  0.00    -0.268 OA
BRANCH  25  28
HETATM   28  C   UNL     1      40.945  -9.022  10.881  1.00  0.00     0.114 C 
HETATM   29  C   UNL     1      39.729  -9.946  11.006  1.00  0.00     0.037 C 
BRANCH  28  30
HETATM   30  C   UNL     1      41.497  -8.625  12.243  1.00  0.00    -0.036 A 
HETATM   31  C   UNL     1      42.682  -7.880  12.365  1.00  0.00     0.009 A 
HETATM   32  C   UNL     1      43.157  -7.495  13.621  1.00  0.00     0.001 A 
HETATM   33  C   UNL     1      42.451  -7.844  14.769  1.00  0.00     0.000 A 
HETATM   34  C   UNL     1      41.268  -8.574  14.665  1.00  0.00     0.001 A 
HETATM   35  C   UNL     1      40.792  -8.959  13.409  1.00  0.00     0.009 A 
ENDBRANCH  28  30
ENDBRANCH  25  28
ENDBRANCH   2  24
TORSDOF 10
ENDMDL
MODEL 6
REMARK VINA RESULT:      -8.3      2.222      3.234
REMARK  10 active torsions:
REMARK  status: ('A' for Active; 'I' for Inactive)
REMARK    1  A    between atoms: C_2  and  O_3 
REMARK    2  A    between atoms: O_3  and  C_4 
REMARK    3  A    between atoms: C_9  and  C_10 
REMARK    4  A    between atoms: C_10  and  O_11 
REMARK    5  A    between atoms: O_11  and  C_12 
REMARK    6  A    between atoms: C_12  and  C_13 
REMARK       I    between atoms: C_13  and  N_14 
REMARK    7  A    between atoms: N_14  and  C_15 
REMARK    8  A    between atoms: C_16  and  C_17 
REMARK       I    between atoms: C_17  and  N_18 
REMARK    9  A    between atoms: N_18  and  C_19 
REMARK   10  A    between atoms: C_19  and  C_20 
ROOT
HETATM    1  C   UNL     1      40.669 -12.961   1.909  1.00  0.00     0.050 A 
HETATM    2  C   UNL     1      41.421 -14.148   1.754  1.00  0.00     0.058 A 
HETATM    3  C   UNL     1      41.114 -15.054   0.722  1.00  0.00     0.019 A 
HETATM    4  C   UNL     1      40.048 -14.814  -0.140  1.00  0.00     0.001 A 
HETATM    5  C   UNL     1      39.285 -13.665   0.024  1.00  0.00     0.002 A 
HETATM    6  C   UNL     1      39.592 -12.749   1.036  1.00  0.00     0.030 A 
ENDROOT
BRANCH   1   7
HETATM    7  N   UNL     1      41.027 -12.012   2.902  1.00  0.00    -0.324 N 
HETATM    8  C   UNL     1      41.765 -10.851   2.737  1.00  0.00     0.246 C 
HETATM    9  O   UNL     1      42.244 -10.435   1.685  1.00  0.00    -0.271 OA
HETATM   10  H   UNL     1      40.755 -12.242   3.862  1.00  0.00     0.169 HD
BRANCH   8  11
HETATM   11  C   UNL     1      41.914 -10.034   4.023  1.00  0.00     0.282 C 
BRANCH  11  12
HETATM   12  O   UNL     1      43.125 -10.297   4.727  1.00  0.00    -0.308 OA
BRANCH  12  13
HETATM   13  C   UNL     1      43.011 -11.181   5.750  1.00  0.00     0.298 C 
HETATM   14  O   UNL     1      42.310 -12.178   5.733  1.00  0.00    -0.259 OA
BRANCH  13  15
HETATM   15  C   UNL     1      43.857 -10.718   6.872  1.00  0.00     0.092 A 
HETATM   16  C   UNL     1      43.360  -9.869   7.853  1.00  0.00     0.180 A 
HETATM   17  N   UNL     1      44.113  -9.414   8.888  1.00  0.00    -0.236 NA
HETATM   18  C   UNL     1      45.402  -9.814   8.945  1.00  0.00     0.119 A 
HETATM   19  C   UNL     1      45.985 -10.656   8.016  1.00  0.00     0.020 A 
HETATM   20  C   UNL     1      45.200 -11.113   6.962  1.00  0.00     0.023 A 
BRANCH  16  21
HETATM   21  O   UNL     1      42.030  -9.509   7.804  1.00  0.00    -0.334 OA
BRANCH  21  22
HETATM   22  C   UNL     1      41.788  -8.141   8.143  1.00  0.00     0.173 C 
HETATM   23  C   UNL     1      41.938  -7.312   6.881  1.00  0.00     0.034 C 
ENDBRANCH  21  22
ENDBRANCH  16  21
ENDBRANCH  13  15
ENDBRANCH  12  13
ENDBRANCH  11  12
ENDBRANCH   8  11
ENDBRANCH   1   7
BRANCH   2  24
HETATM   24  C   UNL     1      42.523 -14.565   2.669  1.00  0.00     0.254 C 
HETATM   25  N   UNL     1      42.375 -15.802   3.261  1.00  0.00    -0.349 N 
HETATM   26  H   UNL     1      41.694 -16.425   2.845  1.00  0.00     0.163 HD
HETATM   27  O   UNL     1      43.519 -13.863   2.797  1.00  0.00    -0.268 OA
BRANCH  25  28
HETATM   28  C   UNL     1      43.455 -16.434   4.008  1.00  0.00     0.114 C 
HETATM   29  C   UNL     1      43.330 -16.234   5.522  1.00  0.00     0.037 C 
BRANCH  28  30
HETATM   30  C   UNL     1      43.506 -17.908   3.633  1.00  0.00    -0.036 A 
HETATM   31  C   UNL     1      43.076 -18.360   2.374  1.00  0.00     0.009 A 
HETATM   32  C   UNL     1      43.160 -19.712   2.034  1.00  0.00     0.001 A 
HETATM   33  C   UNL     1      43.680 -20.628   2.945  1.00  0.00     0.000 A 
HETATM   34  C   UNL     1      44.119 -20.195   4.194  1.00  0.00     0.001 A 
HETATM   35  C   UNL     1      44.037 -18.843   4.536  1.00  0.00     0.009 A 
ENDBRANCH  28  30
ENDBRANCH  25  28
ENDBRANCH   2  24
TORSDOF 10
ENDMDL
MODEL 7
REMARK VINA RESULT:      -8.3      4.138      9.023
REMARK  10 active torsions:
REMARK  status: ('A' for Active; 'I' for Inactive)
REMARK    1  A    between atoms: C_2  and  O_3 
REMARK    2  A    between atoms: O_3  and  C_4 
REMARK    3  A    between atoms: C_9  and  C_10 
REMARK    4  A    between atoms: C_10  and  O_11 
REMARK    5  A    between atoms: O_11  and  C_12 
REMARK    6  A    between atoms: C_12  and  C_13 
REMARK       I    between atoms: C_13  and  N_14 
REMARK    7  A    between atoms: N_14  and  C_15 
REMARK    8  A    between atoms: C_16  and  C_17 
REMARK       I    between atoms: C_17  and  N_18 
REMARK    9  A    between atoms: N_18  and  C_19 
REMARK   10  A    between atoms: C_19  and  C_20 
ROOT
HETATM    1  C   UNL     1      42.476 -17.008   3.326  1.00  0.00     0.050 A 
HETATM    2  C   UNL     1      43.084 -16.981   4.602  1.00  0.00     0.058 A 
HETATM    3  C   UNL     1      44.092 -17.906   4.929  1.00  0.00     0.019 A 
HETATM    4  C   UNL     1      44.485 -18.881   4.016  1.00  0.00     0.001 A 
HETATM    5  C   UNL     1      43.873 -18.934   2.770  1.00  0.00     0.002 A 
HETATM    6  C   UNL     1      42.881 -18.008   2.429  1.00  0.00     0.030 A 
ENDROOT
BRANCH   1   7
HETATM    7  N   UNL     1      41.514 -16.027   2.971  1.00  0.00    -0.324 N 
HETATM    8  C   UNL     1      41.744 -14.725   2.557  1.00  0.00     0.246 C 
HETATM    9  O   UNL     1      42.840 -14.185   2.423  1.00  0.00    -0.271 OA
HETATM   10  H   UNL     1      40.533 -16.298   3.088  1.00  0.00     0.169 HD
BRANCH   8  11
HETATM   11  C   UNL     1      40.465 -13.962   2.203  1.00  0.00     0.282 C 
BRANCH  11  12
HETATM   12  O   UNL     1      39.948 -14.285   0.915  1.00  0.00    -0.308 OA
BRANCH  12  13
HETATM   13  C   UNL     1      40.270 -13.405  -0.067  1.00  0.00     0.298 C 
HETATM   14  O   UNL     1      41.214 -12.636  -0.028  1.00  0.00    -0.259 OA
BRANCH  13  15
HETATM   15  C   UNL     1      39.282 -13.533  -1.160  1.00  0.00     0.092 A 
HETATM   16  C   UNL     1      38.354 -12.531  -1.418  1.00  0.00     0.180 A 
HETATM   17  N   UNL     1      37.423 -12.622  -2.404  1.00  0.00    -0.236 NA
HETATM   18  C   UNL     1      37.415 -13.746  -3.153  1.00  0.00     0.119 A 
HETATM   19  C   UNL     1      38.297 -14.795  -2.970  1.00  0.00     0.020 A 
HETATM   20  C   UNL     1      39.244 -14.687  -1.956  1.00  0.00     0.023 A 
BRANCH  16  21
HETATM   21  O   UNL     1      38.407 -11.371  -0.675  1.00  0.00    -0.334 OA
BRANCH  21  22
HETATM   22  C   UNL     1      37.233 -11.127   0.102  1.00  0.00     0.173 C 
HETATM   23  C   UNL     1      37.577 -11.363   1.561  1.00  0.00     0.034 C 
ENDBRANCH  21  22
ENDBRANCH  16  21
ENDBRANCH  13  15
ENDBRANCH  12  13
ENDBRANCH  11  12
ENDBRANCH   8  11
ENDBRANCH   1   7
BRANCH   2  24
HETATM   24  C   UNL     1      42.686 -16.051   5.698  1.00  0.00     0.254 C 
HETATM   25  N   UNL     1      43.271 -14.802   5.668  1.00  0.00    -0.349 N 
HETATM   26  H   UNL     1      43.702 -14.525   4.794  1.00  0.00     0.163 HD
HETATM   27  O   UNL     1      41.830 -16.383   6.510  1.00  0.00    -0.268 OA
BRANCH  25  28
HETATM   28  C   UNL     1      42.829 -13.721   6.539  1.00  0.00     0.114 C 
HETATM   29  C   UNL     1      43.980 -12.823   7.006  1.00  0.00     0.037 C 
BRANCH  28  30
HETATM   30  C   UNL     1      41.748 -12.929   5.819  1.00  0.00    -0.036 A 
HETATM   31  C   UNL     1      40.384 -13.223   5.991  1.00  0.00     0.009 A 
HETATM   32  C   UNL     1      39.404 -12.465   5.349  1.00  0.00     0.001 A 
HETATM   33  C   UNL     1      39.772 -11.399   4.532  1.00  0.00     0.000 A 
HETATM   34  C   UNL     1      41.119 -11.087   4.358  1.00  0.00     0.001 A 
HETATM   35  C   UNL     1      42.101 -11.844   5.001  1.00  0.00     0.009 A 
ENDBRANCH  28  30
ENDBRANCH  25  28
ENDBRANCH   2  24
TORSDOF 10
ENDMDL
MODEL 8
REMARK VINA RESULT:      -8.2      4.376      8.659
REMARK  10 active torsions:
REMARK  status: ('A' for Active; 'I' for Inactive)
REMARK    1  A    between atoms: C_2  and  O_3 
REMARK    2  A    between atoms: O_3  and  C_4 
REMARK    3  A    between atoms: C_9  and  C_10 
REMARK    4  A    between atoms: C_10  and  O_11 
REMARK    5  A    between atoms: O_11  and  C_12 
REMARK    6  A    between atoms: C_12  and  C_13 
REMARK       I    between atoms: C_13  and  N_14 
REMARK    7  A    between atoms: N_14  and  C_15 
REMARK    8  A    between atoms: C_16  and  C_17 
REMARK       I    between atoms: C_17  and  N_18 
REMARK    9  A    between atoms: N_18  and  C_19 
REMARK   10  A    between atoms: C_19  and  C_20 
ROOT
HETATM    1  C   UNL     1      43.544 -18.376   3.203  1.00  0.00     0.050 A 
HETATM    2  C   UNL     1      43.838 -18.336   4.585  1.00  0.00     0.058 A 
HETATM    3  C   UNL     1      44.127 -19.522   5.285  1.00  0.00     0.019 A 
HETATM    4  C   UNL     1      44.097 -20.754   4.637  1.00  0.00     0.001 A 
HETATM    5  C   UNL     1      43.781 -20.806   3.286  1.00  0.00     0.002 A 
HETATM    6  C   UNL     1      43.508 -19.631   2.578  1.00  0.00     0.030 A 
ENDROOT
BRANCH   1   7
HETATM    7  N   UNL     1      43.327 -17.172   2.483  1.00  0.00    -0.324 N 
HETATM    8  C   UNL     1      42.173 -16.408   2.439  1.00  0.00     0.246 C 
HETATM    9  O   UNL     1      41.119 -16.643   3.025  1.00  0.00    -0.271 OA
HETATM   10  H   UNL     1      44.098 -16.864   1.883  1.00  0.00     0.169 HD
BRANCH   8  11
HETATM   11  C   UNL     1      42.314 -15.136   1.597  1.00  0.00     0.282 C 
BRANCH  11  12
HETATM   12  O   UNL     1      41.369 -15.050   0.534  1.00  0.00    -0.308 OA
BRANCH  12  13
HETATM   13  C   UNL     1      40.415 -14.098   0.695  1.00  0.00     0.298 C 
HETATM   14  O   UNL     1      39.967 -13.737   1.769  1.00  0.00    -0.259 OA
BRANCH  13  15
HETATM   15  C   UNL     1      40.013 -13.601  -0.639  1.00  0.00     0.092 A 
HETATM   16  C   UNL     1      40.441 -12.366  -1.112  1.00  0.00     0.180 A 
HETATM   17  N   UNL     1      40.080 -11.874  -2.326  1.00  0.00    -0.236 NA
HETATM   18  C   UNL     1      39.264 -12.633  -3.090  1.00  0.00     0.119 A 
HETATM   19  C   UNL     1      38.787 -13.873  -2.704  1.00  0.00     0.020 A 
HETATM   20  C   UNL     1      39.167 -14.363  -1.458  1.00  0.00     0.023 A 
BRANCH  16  21
HETATM   21  O   UNL     1      41.310 -11.626  -0.339  1.00  0.00    -0.334 OA
BRANCH  21  22
HETATM   22  C   UNL     1      40.744 -10.418   0.172  1.00  0.00     0.173 C 
HETATM   23  C   UNL     1      41.240 -10.231   1.594  1.00  0.00     0.034 C 
ENDBRANCH  21  22
ENDBRANCH  16  21
ENDBRANCH  13  15
ENDBRANCH  12  13
ENDBRANCH  11  12
ENDBRANCH   8  11
ENDBRANCH   1   7
BRANCH   2  24
HETATM   24  C   UNL     1      43.807 -17.094   5.412  1.00  0.00     0.254 C 
HETATM   25  N   UNL     1      42.555 -16.648   5.778  1.00  0.00    -0.349 N 
HETATM   26  H   UNL     1      41.794 -17.311   5.693  1.00  0.00     0.163 HD
HETATM   27  O   UNL     1      44.853 -16.578   5.789  1.00  0.00    -0.268 OA
BRANCH  25  28
HETATM   28  C   UNL     1      42.371 -15.578   6.751  1.00  0.00     0.114 C 
HETATM   29  C   UNL     1      43.107 -15.839   8.070  1.00  0.00     0.037 C 
BRANCH  28  30
HETATM   30  C   UNL     1      42.798 -14.264   6.114  1.00  0.00    -0.036 A 
HETATM   31  C   UNL     1      42.184 -13.781   4.946  1.00  0.00     0.009 A 
HETATM   32  C   UNL     1      42.566 -12.557   4.393  1.00  0.00     0.001 A 
HETATM   33  C   UNL     1      43.560 -11.797   5.003  1.00  0.00     0.000 A 
HETATM   34  C   UNL     1      44.173 -12.257   6.167  1.00  0.00     0.001 A 
HETATM   35  C   UNL     1      43.792 -13.481   6.722  1.00  0.00     0.009 A 
ENDBRANCH  28  30
ENDBRANCH  25  28
ENDBRANCH   2  24
TORSDOF 10
ENDMDL
MODEL 9
REMARK VINA RESULT:      -8.2      4.782      9.307
REMARK  10 active torsions:
REMARK  status: ('A' for Active; 'I' for Inactive)
REMARK    1  A    between atoms: C_2  and  O_3 
REMARK    2  A    between atoms: O_3  and  C_4 
REMARK    3  A    between atoms: C_9  and  C_10 
REMARK    4  A    between atoms: C_10  and  O_11 
REMARK    5  A    between atoms: O_11  and  C_12 
REMARK    6  A    between atoms: C_12  and  C_13 
REMARK       I    between atoms: C_13  and  N_14 
REMARK    7  A    between atoms: N_14  and  C_15 
REMARK    8  A    between atoms: C_16  and  C_17 
REMARK       I    between atoms: C_17  and  N_18 
REMARK    9  A    between atoms: N_18  and  C_19 
REMARK   10  A    between atoms: C_19  and  C_20 
ROOT
HETATM    1  C   UNL     1      39.803 -13.866  -1.051  1.00  0.00     0.050 A 
HETATM    2  C   UNL     1      39.106 -12.655  -0.840  1.00  0.00     0.058 A 
HETATM    3  C   UNL     1      37.946 -12.363  -1.581  1.00  0.00     0.019 A 
HETATM    4  C   UNL     1      37.485 -13.246  -2.554  1.00  0.00     0.001 A 
HETATM    5  C   UNL     1      38.179 -14.426  -2.788  1.00  0.00     0.002 A 
HETATM    6  C   UNL     1      39.324 -14.732  -2.045  1.00  0.00     0.030 A 
ENDROOT
BRANCH   1   7
HETATM    7  N   UNL     1      40.929 -14.193  -0.250  1.00  0.00    -0.324 N 
HETATM    8  C   UNL     1      40.963 -15.004   0.872  1.00  0.00     0.246 C 
HETATM    9  O   UNL     1      40.009 -15.591   1.377  1.00  0.00    -0.271 OA
HETATM   10  H   UNL     1      41.807 -13.730  -0.502  1.00  0.00     0.169 HD
BRANCH   8  11
HETATM   11  C   UNL     1      42.367 -15.179   1.456  1.00  0.00     0.282 C 
BRANCH  11  12
HETATM   12  O   UNL     1      42.690 -16.532   1.767  1.00  0.00    -0.308 OA
BRANCH  12  13
HETATM   13  C   UNL     1      43.252 -16.719   2.988  1.00  0.00     0.298 C 
HETATM   14  O   UNL     1      43.530 -15.826   3.769  1.00  0.00    -0.259 OA
BRANCH  13  15
HETATM   15  C   UNL     1      43.479 -18.167   3.187  1.00  0.00     0.092 A 
HETATM   16  C   UNL     1      44.007 -18.661   4.374  1.00  0.00     0.180 A 
HETATM   17  N   UNL     1      44.242 -19.982   4.586  1.00  0.00    -0.236 NA
HETATM   18  C   UNL     1      43.944 -20.837   3.583  1.00  0.00     0.119 A 
HETATM   19  C   UNL     1      43.416 -20.439   2.368  1.00  0.00     0.020 A 
HETATM   20  C   UNL     1      43.182 -19.082   2.167  1.00  0.00     0.023 A 
BRANCH  16  21
HETATM   21  O   UNL     1      44.261 -17.779   5.404  1.00  0.00    -0.334 OA
BRANCH  21  22
HETATM   22  C   UNL     1      43.364 -17.907   6.509  1.00  0.00     0.173 C 
HETATM   23  C   UNL     1      43.450 -16.636   7.333  1.00  0.00     0.034 C 
ENDBRANCH  21  22
ENDBRANCH  16  21
ENDBRANCH  13  15
ENDBRANCH  12  13
ENDBRANCH  11  12
ENDBRANCH   8  11
ENDBRANCH   1   7
BRANCH   2  24
HETATM   24  C   UNL     1      39.552 -11.587   0.101  1.00  0.00     0.254 C 
HETATM   25  N   UNL     1      39.004 -11.634   1.366  1.00  0.00    -0.349 N 
HETATM   26  H   UNL     1      38.564 -12.506   1.637  1.00  0.00     0.163 HD
HETATM   27  O   UNL     1      40.413 -10.784  -0.239  1.00  0.00    -0.268 OA
BRANCH  25  28
HETATM   28  C   UNL     1      39.493 -10.795   2.452  1.00  0.00     0.114 C 
HETATM   29  C   UNL     1      38.377 -10.008   3.146  1.00  0.00     0.037 C 
BRANCH  28  30
HETATM   30  C   UNL     1      40.264 -11.669   3.430  1.00  0.00    -0.036 A 
HETATM   31  C   UNL     1      41.423 -11.204   4.075  1.00  0.00     0.009 A 
HETATM   32  C   UNL     1      42.099 -12.006   4.995  1.00  0.00     0.001 A 
HETATM   33  C   UNL     1      41.623 -13.282   5.289  1.00  0.00     0.000 A 
HETATM   34  C   UNL     1      40.470 -13.755   4.666  1.00  0.00     0.001 A 
HETATM   35  C   UNL     1      39.792 -12.953   3.745  1.00  0.00     0.009 A 
ENDBRANCH  28  30
ENDBRANCH  25  28
ENDBRANCH   2  24
TORSDOF 10
ENDMDL
MODEL 10
REMARK VINA RESULT:      -8.1      2.470     10.073
REMARK  10 active torsions:
REMARK  status: ('A' for Active; 'I' for Inactive)
REMARK    1  A    between atoms: C_2  and  O_3 
REMARK    2  A    between atoms: O_3  and  C_4 
REMARK    3  A    between atoms: C_9  and  C_10 
REMARK    4  A    between atoms: C_10  and  O_11 
REMARK    5  A    between atoms: O_11  and  C_12 
REMARK    6  A    between atoms: C_12  and  C_13 
REMARK       I    between atoms: C_13  and  N_14 
REMARK    7  A    between atoms: N_14  and  C_15 
REMARK    8  A    between atoms: C_16  and  C_17 
REMARK       I    between atoms: C_17  and  N_18 
REMARK    9  A    between atoms: N_18  and  C_19 
REMARK   10  A    between atoms: C_19  and  C_20 
ROOT
HETATM    1  C   UNL     1      43.595 -10.610   7.831  1.00  0.00     0.050 A 
HETATM    2  C   UNL     1      43.473  -9.654   8.865  1.00  0.00     0.058 A 
HETATM    3  C   UNL     1      44.618  -9.027   9.391  1.00  0.00     0.019 A 
HETATM    4  C   UNL     1      45.887  -9.359   8.925  1.00  0.00     0.001 A 
HETATM    5  C   UNL     1      46.018 -10.318   7.929  1.00  0.00     0.002 A 
HETATM    6  C   UNL     1      44.885 -10.935   7.388  1.00  0.00     0.030 A 
ENDROOT
BRANCH   1   7
HETATM    7  N   UNL     1      42.434 -11.186   7.249  1.00  0.00    -0.324 N 
HETATM    8  C   UNL     1      41.845 -10.862   6.038  1.00  0.00     0.246 C 
HETATM    9  O   UNL     1      42.229 -10.007   5.245  1.00  0.00    -0.271 OA
HETATM   10  H   UNL     1      41.947 -11.884   7.818  1.00  0.00     0.169 HD
BRANCH   8  11
HETATM   11  C   UNL     1      40.629 -11.729   5.700  1.00  0.00     0.282 C 
BRANCH  11  12
HETATM   12  O   UNL     1      40.929 -12.813   4.825  1.00  0.00    -0.308 OA
BRANCH  12  13
HETATM   13  C   UNL     1      40.486 -14.026   5.245  1.00  0.00     0.298 C 
HETATM   14  O   UNL     1      39.857 -14.219   6.271  1.00  0.00    -0.259 OA
BRANCH  13  15
HETATM   15  C   UNL     1      40.908 -15.049   4.264  1.00  0.00     0.092 A 
HETATM   16  C   UNL     1      41.838 -16.028   4.594  1.00  0.00     0.180 A 
HETATM   17  N   UNL     1      42.259 -16.974   3.714  1.00  0.00    -0.236 NA
HETATM   18  C   UNL     1      41.740 -16.942   2.467  1.00  0.00     0.119 A 
HETATM   19  C   UNL     1      40.811 -16.006   2.047  1.00  0.00     0.020 A 
HETATM   20  C   UNL     1      40.391 -15.044   2.961  1.00  0.00     0.023 A 
BRANCH  16  21
HETATM   21  O   UNL     1      42.322 -16.075   5.884  1.00  0.00    -0.334 OA
BRANCH  21  22
HETATM   22  C   UNL     1      43.720 -15.802   5.988  1.00  0.00     0.173 C 
HETATM   23  C   UNL     1      43.886 -14.424   6.602  1.00  0.00     0.034 C 
ENDBRANCH  21  22
ENDBRANCH  16  21
ENDBRANCH  13  15
ENDBRANCH  12  13
ENDBRANCH  11  12
ENDBRANCH   8  11
ENDBRANCH   1   7
BRANCH   2  24
HETATM   24  C   UNL     1      42.182  -9.284   9.514  1.00  0.00     0.254 C 
HETATM   25  N   UNL     1      42.081  -9.575  10.858  1.00  0.00    -0.349 N 
HETATM   26  H   UNL     1      42.947  -9.765  11.348  1.00  0.00     0.163 HD
HETATM   27  O   UNL     1      41.321  -8.686   8.879  1.00  0.00    -0.268 OA
BRANCH  25  28
HETATM   28  C   UNL     1      40.974  -9.088  11.672  1.00  0.00     0.114 C 
HETATM   29  C   UNL     1      39.975 -10.190  12.040  1.00  0.00     0.037 C 
BRANCH  28  30
HETATM   30  C   UNL     1      41.544  -8.405  12.907  1.00  0.00    -0.036 A 
HETATM   31  C   UNL     1      40.912  -8.502  14.158  1.00  0.00     0.009 A 
HETATM   32  C   UNL     1      41.466  -7.896  15.287  1.00  0.00     0.001 A 
HETATM   33  C   UNL     1      42.663  -7.191  15.182  1.00  0.00     0.000 A 
HETATM   34  C   UNL     1      43.308  -7.093  13.951  1.00  0.00     0.001 A 
HETATM   35  C   UNL     1      42.755  -7.699  12.821  1.00  0.00     0.009 A 
ENDBRANCH  28  30
ENDBRANCH  25  28
ENDBRANCH   2  24
TORSDOF 10
ENDMDL
