MODEL 1
REMARK VINA RESULT:      -9.6      0.000      0.000
REMARK  7 active torsions:
REMARK  status: ('A' for Active; 'I' for Inactive)
REMARK    1  A    between atoms: C_3  and  C_4 
REMARK    2  A    between atoms: C_11  and  N_12 
REMARK       I    between atoms: N_12  and  C_13 
REMARK    3  A    between atoms: C_13  and  C_14 
REMARK    4  A    between atoms: C_21  and  C_22 
REMARK       I    between atoms: C_22  and  N_23 
REMARK    5  A    between atoms: N_23  and  C_24 
REMARK    6  A    between atoms: C_24  and  C_25 
REMARK    7  A    between atoms: C_25  and  C_26 
ROOT
HETATM    1  C   UNL     1      41.211 -14.561   2.778  1.00  0.00     0.158 C 
HETATM    2  N   UNL     1      42.074 -14.683   3.929  1.00  0.00    -0.335 N 
HETATM    3  C   UNL     1      42.713 -15.836   4.328  1.00  0.00     0.111 A 
HETATM    4  N   UNL     1      43.502 -15.605   5.352  1.00  0.00    -0.233 NA
HETATM    5  C   UNL     1      43.337 -14.283   5.660  1.00  0.00     0.089 A 
HETATM    6  C   UNL     1      42.435 -13.660   4.792  1.00  0.00     0.091 A 
HETATM    7  C   UNL     1      42.113 -12.287   4.910  1.00  0.00     0.065 A 
HETATM    8  C   UNL     1      42.730 -11.595   5.966  1.00  0.00     0.049 A 
HETATM    9  C   UNL     1      43.630 -12.216   6.844  1.00  0.00     0.036 A 
HETATM   10  C   UNL     1      43.948 -13.567   6.698  1.00  0.00     0.051 A 
ENDROOT
BRANCH   9  11
HETATM   11  C   UNL     1      44.186 -11.407   7.958  1.00  0.00     0.251 C 
HETATM   12  N   UNL     1      43.275 -10.843   8.832  1.00  0.00    -0.357 N 
HETATM   13  H   UNL     1      42.328 -11.200   8.821  1.00  0.00     0.162 HD
HETATM   14  O   UNL     1      45.400 -11.296   8.081  1.00  0.00    -0.268 OA
BRANCH  12  15
HETATM   15  C   UNL     1      43.760 -10.224  10.055  1.00  0.00     0.127 C 
BRANCH  15  16
HETATM   16  C   UNL     1      43.045  -8.915  10.385  1.00  0.00     0.060 C 
BRANCH  16  17
HETATM   17  C   UNL     1      42.146  -9.061  11.574  1.00  0.00    -0.029 A 
HETATM   18  C   UNL     1      42.291  -8.402  12.838  1.00  0.00    -0.002 A 
HETATM   19  C   UNL     1      41.267  -8.860  13.669  1.00  0.00     0.042 A 
HETATM   20  C   UNL     1      43.211  -7.469  13.358  1.00  0.00     0.014 A 
HETATM   21  C   UNL     1      41.120  -8.433  14.994  1.00  0.00     0.030 A 
HETATM   22  N   UNL     1      40.522  -9.752  12.936  1.00  0.00    -0.365 N 
HETATM   23  C   UNL     1      42.046  -7.508  15.485  1.00  0.00     0.002 A 
HETATM   24  C   UNL     1      43.077  -7.030  14.680  1.00  0.00     0.001 A 
HETATM   25  H   UNL     1      39.715 -10.247  13.290  1.00  0.00     0.165 HD
HETATM   26  C   UNL     1      41.038  -9.880  11.674  1.00  0.00     0.096 A 
ENDBRANCH  16  17
ENDBRANCH  15  16
ENDBRANCH  12  15
ENDBRANCH   9  11
BRANCH   7  27
HETATM   27  N   UNL     1      41.219 -11.659   4.023  1.00  0.00    -0.323 N 
HETATM   28  C   UNL     1      41.507 -11.002   2.834  1.00  0.00     0.251 C 
HETATM   29  O   UNL     1      42.614 -10.849   2.331  1.00  0.00    -0.270 OA
HETATM   30  H   UNL     1      40.234 -11.656   4.249  1.00  0.00     0.169 HD
BRANCH  28  31
HETATM   31  C   UNL     1      40.215 -10.587   2.103  1.00  0.00     0.213 C 
HETATM   32  O   UNL     1      40.461 -10.341   0.703  1.00  0.00    -0.376 OA
HETATM   33  C   UNL     1      39.599 -11.205  -0.055  1.00  0.00     0.168 C 
HETATM   34  C   UNL     1      39.203 -12.333   0.870  1.00  0.00     0.029 C 
HETATM   35  C   UNL     1      39.109 -11.627   2.200  1.00  0.00     0.044 C 
ENDBRANCH  28  31
ENDBRANCH   7  27
BRANCH   3  36
HETATM   36  C   UNL     1      42.573 -17.222   3.700  1.00  0.00     0.056 C 
HETATM   37  C   UNL     1      43.235 -17.321   2.290  1.00  0.00     0.012 C 
HETATM   38  C   UNL     1      43.676 -18.745   2.675  1.00  0.00     0.002 C 
HETATM   39  C   UNL     1      43.647 -18.263   4.137  1.00  0.00     0.012 C 
ENDBRANCH   3  36
TORSDOF 7
ENDMDL
MODEL 2
REMARK VINA RESULT:      -9.5      2.262      2.972
REMARK  7 active torsions:
REMARK  status: ('A' for Active; 'I' for Inactive)
REMARK    1  A    between atoms: C_3  and  C_4 
REMARK    2  A    between atoms: C_11  and  N_12 
REMARK       I    between atoms: N_12  and  C_13 
REMARK    3  A    between atoms: C_13  and  C_14 
REMARK    4  A    between atoms: C_21  and  C_22 
REMARK       I    between atoms: C_22  and  N_23 
REMARK    5  A    between atoms: N_23  and  C_24 
REMARK    6  A    between atoms: C_24  and  C_25 
REMARK    7  A    between atoms: C_25  and  C_26 
ROOT
HETATM    1  C   UNL     1      41.551 -15.467   1.186  1.00  0.00     0.158 C 
HETATM    2  N   UNL     1      41.704 -15.138   2.582  1.00  0.00    -0.335 N 
HETATM    3  C   UNL     1      42.614 -15.714   3.443  1.00  0.00     0.111 A 
HETATM    4  N   UNL     1      42.576 -15.136   4.621  1.00  0.00    -0.233 NA
HETATM    5  C   UNL     1      41.584 -14.197   4.545  1.00  0.00     0.089 A 
HETATM    6  C   UNL     1      40.997 -14.168   3.276  1.00  0.00     0.091 A 
HETATM    7  C   UNL     1      39.955 -13.266   2.957  1.00  0.00     0.065 A 
HETATM    8  C   UNL     1      39.525 -12.424   3.997  1.00  0.00     0.049 A 
HETATM    9  C   UNL     1      40.105 -12.453   5.273  1.00  0.00     0.036 A 
HETATM   10  C   UNL     1      41.145 -13.337   5.561  1.00  0.00     0.051 A 
ENDROOT
BRANCH   9  11
HETATM   11  C   UNL     1      39.541 -11.557   6.315  1.00  0.00     0.251 C 
HETATM   12  N   UNL     1      40.442 -10.777   7.016  1.00  0.00    -0.357 N 
HETATM   13  H   UNL     1      41.372 -10.670   6.633  1.00  0.00     0.162 HD
HETATM   14  O   UNL     1      38.329 -11.516   6.490  1.00  0.00    -0.268 OA
BRANCH  12  15
HETATM   15  C   UNL     1      39.937  -9.732   7.892  1.00  0.00     0.127 C 
BRANCH  15  16
HETATM   16  C   UNL     1      41.006  -9.173   8.831  1.00  0.00     0.060 C 
BRANCH  16  17
HETATM   17  C   UNL     1      40.620  -9.337  10.269  1.00  0.00    -0.029 A 
HETATM   18  C   UNL     1      41.412  -8.987  11.409  1.00  0.00    -0.002 A 
HETATM   19  C   UNL     1      40.691  -9.350  12.548  1.00  0.00     0.042 A 
HETATM   20  C   UNL     1      42.687  -8.408  11.578  1.00  0.00     0.014 A 
HETATM   21  C   UNL     1      41.183  -9.166  13.846  1.00  0.00     0.030 A 
HETATM   22  N   UNL     1      39.503  -9.889  12.117  1.00  0.00    -0.365 N 
HETATM   23  C   UNL     1      42.449  -8.590  13.985  1.00  0.00     0.002 A 
HETATM   24  C   UNL     1      43.192  -8.214  12.869  1.00  0.00     0.001 A 
HETATM   25  H   UNL     1      38.783 -10.245  12.731  1.00  0.00     0.165 HD
HETATM   26  C   UNL     1      39.446  -9.885  10.749  1.00  0.00     0.096 A 
ENDBRANCH  16  17
ENDBRANCH  15  16
ENDBRANCH  12  15
ENDBRANCH   9  11
BRANCH   7  27
HETATM   27  N   UNL     1      39.380 -13.227   1.674  1.00  0.00    -0.323 N 
HETATM   28  C   UNL     1      39.887 -12.640   0.522  1.00  0.00     0.251 C 
HETATM   29  O   UNL     1      40.949 -12.039   0.412  1.00  0.00    -0.270 OA
HETATM   30  H   UNL     1      38.478 -13.662   1.532  1.00  0.00     0.169 HD
BRANCH  28  31
HETATM   31  C   UNL     1      39.000 -12.957  -0.699  1.00  0.00     0.213 C 
HETATM   32  O   UNL     1      39.020 -11.878  -1.656  1.00  0.00    -0.376 OA
HETATM   33  C   UNL     1      39.465 -12.410  -2.913  1.00  0.00     0.168 C 
HETATM   34  C   UNL     1      40.205 -13.690  -2.598  1.00  0.00     0.029 C 
HETATM   35  C   UNL     1      39.415 -14.226  -1.429  1.00  0.00     0.044 C 
ENDBRANCH  28  31
ENDBRANCH   7  27
BRANCH   3  36
HETATM   36  C   UNL     1      43.571 -16.862   3.125  1.00  0.00     0.056 C 
HETATM   37  C   UNL     1      43.976 -17.684   4.389  1.00  0.00     0.012 C 
HETATM   38  C   UNL     1      43.919 -18.941   3.502  1.00  0.00     0.002 C 
HETATM   39  C   UNL     1      42.894 -18.179   2.642  1.00  0.00     0.012 C 
ENDBRANCH   3  36
TORSDOF 7
ENDMDL
MODEL 3
REMARK VINA RESULT:      -9.4      2.339      3.174
REMARK  7 active torsions:
REMARK  status: ('A' for Active; 'I' for Inactive)
REMARK    1  A    between atoms: C_3  and  C_4 
REMARK    2  A    between atoms: C_11  and  N_12 
REMARK       I    between atoms: N_12  and  C_13 
REMARK    3  A    between atoms: C_13  and  C_14 
REMARK    4  A    between atoms: C_21  and  C_22 
REMARK       I    between atoms: C_22  and  N_23 
REMARK    5  A    between atoms: N_23  and  C_24 
REMARK    6  A    between atoms: C_24  and  C_25 
REMARK    7  A    between atoms: C_25  and  C_26 
ROOT
HETATM    1  C   UNL     1      40.510 -13.958   3.556  1.00  0.00     0.158 C 
HETATM    2  N   UNL     1      41.660 -14.123   4.411  1.00  0.00    -0.335 N 
HETATM    3  C   UNL     1      42.447 -15.253   4.481  1.00  0.00     0.111 A 
HETATM    4  N   UNL     1      43.473 -15.062   5.278  1.00  0.00    -0.233 NA
HETATM    5  C   UNL     1      43.326 -13.799   5.780  1.00  0.00     0.089 A 
HETATM    6  C   UNL     1      42.188 -13.168   5.267  1.00  0.00     0.091 A 
HETATM    7  C   UNL     1      41.837 -11.848   5.634  1.00  0.00     0.065 A 
HETATM    8  C   UNL     1      42.681 -11.219   6.565  1.00  0.00     0.049 A 
HETATM    9  C   UNL     1      43.819 -11.848   7.088  1.00  0.00     0.036 A 
HETATM   10  C   UNL     1      44.159 -13.144   6.698  1.00  0.00     0.051 A 
ENDROOT
BRANCH   9  11
HETATM   11  C   UNL     1      44.616 -11.114   8.105  1.00  0.00     0.251 C 
HETATM   12  N   UNL     1      43.949 -10.722   9.252  1.00  0.00    -0.357 N 
HETATM   13  H   UNL     1      43.056 -11.155   9.449  1.00  0.00     0.162 HD
HETATM   14  O   UNL     1      45.809 -10.914   7.914  1.00  0.00    -0.268 OA
BRANCH  12  15
HETATM   15  C   UNL     1      44.716 -10.194  10.368  1.00  0.00     0.127 C 
BRANCH  15  16
HETATM   16  C   UNL     1      43.957  -9.132  11.163  1.00  0.00     0.060 C 
BRANCH  16  17
HETATM   17  C   UNL     1      42.485  -9.404  11.183  1.00  0.00    -0.029 A 
HETATM   18  C   UNL     1      41.527  -8.985  10.204  1.00  0.00    -0.002 A 
HETATM   19  C   UNL     1      40.270  -9.410  10.637  1.00  0.00     0.042 A 
HETATM   20  C   UNL     1      41.612  -8.267   8.993  1.00  0.00     0.014 A 
HETATM   21  C   UNL     1      39.095  -9.151   9.922  1.00  0.00     0.030 A 
HETATM   22  N   UNL     1      40.458 -10.073  11.827  1.00  0.00    -0.365 N 
HETATM   23  C   UNL     1      39.208  -8.437   8.726  1.00  0.00     0.002 A 
HETATM   24  C   UNL     1      40.447  -8.001   8.264  1.00  0.00     0.001 A 
HETATM   25  H   UNL     1      39.714 -10.484  12.374  1.00  0.00     0.165 HD
HETATM   26  C   UNL     1      41.785 -10.077  12.165  1.00  0.00     0.096 A 
ENDBRANCH  16  17
ENDBRANCH  15  16
ENDBRANCH  12  15
ENDBRANCH   9  11
BRANCH   7  27
HETATM   27  N   UNL     1      40.701 -11.211   5.101  1.00  0.00    -0.323 N 
HETATM   28  C   UNL     1      39.451 -11.052   5.685  1.00  0.00     0.251 C 
HETATM   29  O   UNL     1      39.104 -11.445   6.792  1.00  0.00    -0.270 OA
HETATM   30  H   UNL     1      40.758 -10.812   4.174  1.00  0.00     0.169 HD
BRANCH  28  31
HETATM   31  C   UNL     1      38.540 -10.165   4.813  1.00  0.00     0.213 C 
HETATM   32  O   UNL     1      37.676  -9.343   5.625  1.00  0.00    -0.376 OA
HETATM   33  C   UNL     1      37.913  -7.971   5.273  1.00  0.00     0.168 C 
HETATM   34  C   UNL     1      39.277  -7.926   4.621  1.00  0.00     0.029 C 
HETATM   35  C   UNL     1      39.313  -9.241   3.884  1.00  0.00     0.044 C 
ENDBRANCH  28  31
ENDBRANCH   7  27
BRANCH   3  36
HETATM   36  C   UNL     1      42.215 -16.573   3.747  1.00  0.00     0.056 C 
HETATM   37  C   UNL     1      42.751 -16.556   2.281  1.00  0.00     0.012 C 
HETATM   38  C   UNL     1      43.185 -18.018   2.498  1.00  0.00     0.002 C 
HETATM   39  C   UNL     1      43.294 -17.670   3.993  1.00  0.00     0.012 C 
ENDBRANCH   3  36
TORSDOF 7
ENDMDL
MODEL 4
REMARK VINA RESULT:      -9.4      3.582     10.300
REMARK  7 active torsions:
REMARK  status: ('A' for Active; 'I' for Inactive)
REMARK    1  A    between atoms: C_3  and  C_4 
REMARK    2  A    between atoms: C_11  and  N_12 
REMARK       I    between atoms: N_12  and  C_13 
REMARK    3  A    between atoms: C_13  and  C_14 
REMARK    4  A    between atoms: C_21  and  C_22 
REMARK       I    between atoms: C_22  and  N_23 
REMARK    5  A    between atoms: N_23  and  C_24 
REMARK    6  A    between atoms: C_24  and  C_25 
REMARK    7  A    between atoms: C_25  and  C_26 
ROOT
HETATM    1  C   UNL     1      43.543 -14.181   6.298  1.00  0.00     0.158 C 
HETATM    2  N   UNL     1      43.273 -12.840   5.837  1.00  0.00    -0.335 N 
HETATM    3  C   UNL     1      43.663 -11.683   6.476  1.00  0.00     0.111 A 
HETATM    4  N   UNL     1      43.355 -10.626   5.761  1.00  0.00    -0.233 NA
HETATM    5  C   UNL     1      42.704 -11.099   4.656  1.00  0.00     0.089 A 
HETATM    6  C   UNL     1      42.620 -12.495   4.664  1.00  0.00     0.091 A 
HETATM    7  C   UNL     1      41.999 -13.211   3.614  1.00  0.00     0.065 A 
HETATM    8  C   UNL     1      41.446 -12.438   2.579  1.00  0.00     0.049 A 
HETATM    9  C   UNL     1      41.521 -11.038   2.569  1.00  0.00     0.036 A 
HETATM   10  C   UNL     1      42.156 -10.352   3.604  1.00  0.00     0.051 A 
ENDROOT
BRANCH   9  11
HETATM   11  C   UNL     1      40.859 -10.313   1.453  1.00  0.00     0.251 C 
HETATM   12  N   UNL     1      41.659  -9.484   0.690  1.00  0.00    -0.357 N 
HETATM   13  H   UNL     1      42.662  -9.598   0.763  1.00  0.00     0.162 HD
HETATM   14  O   UNL     1      39.667 -10.495   1.233  1.00  0.00    -0.268 OA
BRANCH  12  15
HETATM   15  C   UNL     1      41.121  -8.918  -0.537  1.00  0.00     0.127 C 
BRANCH  15  16
HETATM   16  C   UNL     1      41.494  -9.727  -1.779  1.00  0.00     0.060 C 
BRANCH  16  17
HETATM   17  C   UNL     1      40.324 -10.499  -2.307  1.00  0.00    -0.029 A 
HETATM   18  C   UNL     1      40.008 -11.867  -2.024  1.00  0.00    -0.002 A 
HETATM   19  C   UNL     1      38.866 -12.195  -2.757  1.00  0.00     0.042 A 
HETATM   20  C   UNL     1      40.599 -12.865  -1.221  1.00  0.00     0.014 A 
HETATM   21  C   UNL     1      38.289 -13.470  -2.729  1.00  0.00     0.030 A 
HETATM   22  N   UNL     1      38.496 -11.067  -3.449  1.00  0.00    -0.365 N 
HETATM   23  C   UNL     1      38.895 -14.440  -1.926  1.00  0.00     0.002 A 
HETATM   24  C   UNL     1      40.033 -14.144  -1.180  1.00  0.00     0.001 A 
HETATM   25  H   UNL     1      37.701 -11.016  -4.072  1.00  0.00     0.165 HD
HETATM   26  C   UNL     1      39.363 -10.040  -3.186  1.00  0.00     0.096 A 
ENDBRANCH  16  17
ENDBRANCH  15  16
ENDBRANCH  12  15
ENDBRANCH   9  11
BRANCH   7  27
HETATM   27  N   UNL     1      41.933 -14.617   3.617  1.00  0.00    -0.323 N 
HETATM   28  C   UNL     1      42.683 -15.514   2.869  1.00  0.00     0.251 C 
HETATM   29  O   UNL     1      43.556 -15.239   2.055  1.00  0.00    -0.270 OA
HETATM   30  H   UNL     1      41.260 -15.070   4.221  1.00  0.00     0.169 HD
BRANCH  28  31
HETATM   31  C   UNL     1      42.389 -16.968   3.289  1.00  0.00     0.213 C 
HETATM   32  O   UNL     1      42.785 -17.901   2.262  1.00  0.00    -0.376 OA
HETATM   33  C   UNL     1      43.722 -18.823   2.841  1.00  0.00     0.168 C 
HETATM   34  C   UNL     1      44.285 -18.146   4.070  1.00  0.00     0.029 C 
HETATM   35  C   UNL     1      43.091 -17.375   4.575  1.00  0.00     0.044 C 
ENDBRANCH  28  31
ENDBRANCH   7  27
BRANCH   3  36
HETATM   36  C   UNL     1      44.371 -11.580   7.826  1.00  0.00     0.056 C 
HETATM   37  C   UNL     1      45.741 -10.836   7.740  1.00  0.00     0.012 C 
HETATM   38  C   UNL     1      45.406 -10.207   9.105  1.00  0.00     0.002 C 
HETATM   39  C   UNL     1      43.925 -10.386   8.723  1.00  0.00     0.012 C 
ENDBRANCH   3  36
TORSDOF 7
ENDMDL
MODEL 5
REMARK VINA RESULT:      -9.3      5.053      8.422
REMARK  7 active torsions:
REMARK  status: ('A' for Active; 'I' for Inactive)
REMARK    1  A    between atoms: C_3  and  C_4 
REMARK    2  A    between atoms: C_11  and  N_12 
REMARK       I    between atoms: N_12  and  C_13 
REMARK    3  A    between atoms: C_13  and  C_14 
REMARK    4  A    between atoms: C_21  and  C_22 
REMARK       I    between atoms: C_22  and  N_23 
REMARK    5  A    between atoms: N_23  and  C_24 
REMARK    6  A    between atoms: C_24  and  C_25 
REMARK    7  A    between atoms: C_25  and  C_26 
ROOT
HETATM    1  C   UNL     1      40.162 -10.337  -2.230  1.00  0.00     0.158 C 
HETATM    2  N   UNL     1      40.404 -11.423  -1.311  1.00  0.00    -0.335 N 
HETATM    3  C   UNL     1      40.123 -12.750  -1.553  1.00  0.00     0.111 A 
HETATM    4  N   UNL     1      40.546 -13.507  -0.567  1.00  0.00    -0.233 NA
HETATM    5  C   UNL     1      41.068 -12.651   0.363  1.00  0.00     0.089 A 
HETATM    6  C   UNL     1      40.992 -11.320  -0.060  1.00  0.00     0.091 A 
HETATM    7  C   UNL     1      41.482 -10.256   0.733  1.00  0.00     0.065 A 
HETATM    8  C   UNL     1      42.022 -10.612   1.981  1.00  0.00     0.049 A 
HETATM    9  C   UNL     1      42.095 -11.943   2.414  1.00  0.00     0.036 A 
HETATM   10  C   UNL     1      41.623 -12.980   1.608  1.00  0.00     0.051 A 
ENDROOT
BRANCH   9  11
HETATM   11  C   UNL     1      42.636 -12.205   3.772  1.00  0.00     0.251 C 
HETATM   12  N   UNL     1      41.726 -12.582   4.742  1.00  0.00    -0.357 N 
HETATM   13  H   UNL     1      40.813 -12.894   4.436  1.00  0.00     0.162 HD
HETATM   14  O   UNL     1      43.841 -12.114   3.974  1.00  0.00    -0.268 OA
BRANCH  12  15
HETATM   15  C   UNL     1      42.218 -13.057   6.025  1.00  0.00     0.127 C 
BRANCH  15  16
HETATM   16  C   UNL     1      41.765 -14.480   6.348  1.00  0.00     0.060 C 
BRANCH  16  17
HETATM   17  C   UNL     1      42.726 -15.499   5.817  1.00  0.00    -0.029 A 
HETATM   18  C   UNL     1      42.632 -16.189   4.565  1.00  0.00    -0.002 A 
HETATM   19  C   UNL     1      43.706 -17.078   4.493  1.00  0.00     0.042 A 
HETATM   20  C   UNL     1      41.719 -16.151   3.490  1.00  0.00     0.014 A 
HETATM   21  C   UNL     1      43.911 -17.931   3.403  1.00  0.00     0.030 A 
HETATM   22  N   UNL     1      44.432 -16.925   5.650  1.00  0.00    -0.365 N 
HETATM   23  C   UNL     1      42.992 -17.874   2.352  1.00  0.00     0.002 A 
HETATM   24  C   UNL     1      41.911 -16.996   2.391  1.00  0.00     0.001 A 
HETATM   25  H   UNL     1      45.266 -17.451   5.873  1.00  0.00     0.165 HD
HETATM   26  C   UNL     1      43.855 -15.978   6.453  1.00  0.00     0.096 A 
ENDBRANCH  16  17
ENDBRANCH  15  16
ENDBRANCH  12  15
ENDBRANCH   9  11
BRANCH   7  27
HETATM   27  N   UNL     1      41.421  -8.920   0.296  1.00  0.00    -0.323 N 
HETATM   28  C   UNL     1      42.273  -8.263  -0.582  1.00  0.00     0.251 C 
HETATM   29  O   UNL     1      43.251  -8.738  -1.147  1.00  0.00    -0.270 OA
HETATM   30  H   UNL     1      40.683  -8.327   0.650  1.00  0.00     0.169 HD
BRANCH  28  31
HETATM   31  C   UNL     1      41.757  -6.845  -0.899  1.00  0.00     0.213 C 
HETATM   32  O   UNL     1      42.841  -5.896  -0.969  1.00  0.00    -0.376 OA
HETATM   33  C   UNL     1      42.803  -5.276  -2.264  1.00  0.00     0.168 C 
HETATM   34  C   UNL     1      42.022  -6.208  -3.161  1.00  0.00     0.029 C 
HETATM   35  C   UNL     1      40.991  -6.764  -2.211  1.00  0.00     0.044 C 
ENDBRANCH  28  31
ENDBRANCH   7  27
BRANCH   3  36
HETATM   36  C   UNL     1      39.427 -13.327  -2.786  1.00  0.00     0.056 C 
HETATM   37  C   UNL     1      39.234 -14.873  -2.707  1.00  0.00     0.012 C 
HETATM   38  C   UNL     1      37.869 -14.666  -3.390  1.00  0.00     0.002 C 
HETATM   39  C   UNL     1      37.871 -13.259  -2.765  1.00  0.00     0.012 C 
ENDBRANCH   3  36
TORSDOF 7
ENDMDL
MODEL 6
REMARK VINA RESULT:      -9.2      2.185      2.499
REMARK  7 active torsions:
REMARK  status: ('A' for Active; 'I' for Inactive)
REMARK    1  A    between atoms: C_3  and  C_4 
REMARK    2  A    between atoms: C_11  and  N_12 
REMARK       I    between atoms: N_12  and  C_13 
REMARK    3  A    between atoms: C_13  and  C_14 
REMARK    4  A    between atoms: C_21  and  C_22 
REMARK       I    between atoms: C_22  and  N_23 
REMARK    5  A    between atoms: N_23  and  C_24 
REMARK    6  A    between atoms: C_24  and  C_25 
REMARK    7  A    between atoms: C_25  and  C_26 
ROOT
HETATM    1  C   UNL     1      40.394 -13.305   3.182  1.00  0.00     0.158 C 
HETATM    2  N   UNL     1      41.489 -13.564   4.086  1.00  0.00    -0.335 N 
HETATM    3  C   UNL     1      42.288 -14.686   4.070  1.00  0.00     0.111 A 
HETATM    4  N   UNL     1      43.257 -14.585   4.951  1.00  0.00    -0.233 NA
HETATM    5  C   UNL     1      43.056 -13.393   5.591  1.00  0.00     0.089 A 
HETATM    6  C   UNL     1      41.943 -12.715   5.083  1.00  0.00     0.091 A 
HETATM    7  C   UNL     1      41.547 -11.453   5.583  1.00  0.00     0.065 A 
HETATM    8  C   UNL     1      42.318 -10.934   6.637  1.00  0.00     0.049 A 
HETATM    9  C   UNL     1      43.430 -11.612   7.155  1.00  0.00     0.036 A 
HETATM   10  C   UNL     1      43.816 -12.847   6.634  1.00  0.00     0.051 A 
ENDROOT
BRANCH   9  11
HETATM   11  C   UNL     1      44.146 -11.000   8.304  1.00  0.00     0.251 C 
HETATM   12  N   UNL     1      43.389 -10.232   9.170  1.00  0.00    -0.357 N 
HETATM   13  H   UNL     1      42.383 -10.325   9.126  1.00  0.00     0.162 HD
HETATM   14  O   UNL     1      45.342 -11.217   8.460  1.00  0.00    -0.268 OA
BRANCH  12  15
HETATM   15  C   UNL     1      43.983  -9.786  10.420  1.00  0.00     0.127 C 
BRANCH  15  16
HETATM   16  C   UNL     1      43.385 -10.479  11.644  1.00  0.00     0.060 C 
BRANCH  16  17
HETATM   17  C   UNL     1      42.203  -9.731  12.180  1.00  0.00    -0.029 A 
HETATM   18  C   UNL     1      42.237  -8.579  13.029  1.00  0.00    -0.002 A 
HETATM   19  C   UNL     1      40.917  -8.236  13.325  1.00  0.00     0.042 A 
HETATM   20  C   UNL     1      43.274  -7.803  13.589  1.00  0.00     0.014 A 
HETATM   21  C   UNL     1      40.582  -7.158  14.154  1.00  0.00     0.030 A 
HETATM   22  N   UNL     1      40.111  -9.137  12.671  1.00  0.00    -0.365 N 
HETATM   23  C   UNL     1      41.628  -6.406  14.696  1.00  0.00     0.002 A 
HETATM   24  C   UNL     1      42.956  -6.721  14.418  1.00  0.00     0.001 A 
HETATM   25  H   UNL     1      39.101  -9.132  12.711  1.00  0.00     0.165 HD
HETATM   26  C   UNL     1      40.872 -10.040  11.977  1.00  0.00     0.096 A 
ENDBRANCH  16  17
ENDBRANCH  15  16
ENDBRANCH  12  15
ENDBRANCH   9  11
BRANCH   7  27
HETATM   27  N   UNL     1      40.437 -10.765   5.057  1.00  0.00    -0.323 N 
HETATM   28  C   UNL     1      39.158 -10.663   5.588  1.00  0.00     0.251 C 
HETATM   29  O   UNL     1      38.756 -11.162   6.633  1.00  0.00    -0.270 OA
HETATM   30  H   UNL     1      40.540 -10.279   4.177  1.00  0.00     0.169 HD
BRANCH  28  31
HETATM   31  C   UNL     1      38.290  -9.695   4.761  1.00  0.00     0.213 C 
HETATM   32  O   UNL     1      37.454  -8.883   5.612  1.00  0.00    -0.376 OA
HETATM   33  C   UNL     1      37.748  -7.505   5.335  1.00  0.00     0.168 C 
HETATM   34  C   UNL     1      39.117  -7.480   4.693  1.00  0.00     0.029 C 
HETATM   35  C   UNL     1      39.105  -8.755   3.886  1.00  0.00     0.044 C 
ENDBRANCH  28  31
ENDBRANCH   7  27
BRANCH   3  36
HETATM   36  C   UNL     1      42.127 -15.909   3.168  1.00  0.00     0.056 C 
HETATM   37  C   UNL     1      43.184 -15.962   2.021  1.00  0.00     0.012 C 
HETATM   38  C   UNL     1      43.230 -17.487   2.228  1.00  0.00     0.002 C 
HETATM   39  C   UNL     1      42.810 -17.211   3.684  1.00  0.00     0.012 C 
ENDBRANCH   3  36
TORSDOF 7
ENDMDL
MODEL 7
REMARK VINA RESULT:      -9.0      4.561      7.948
REMARK  7 active torsions:
REMARK  status: ('A' for Active; 'I' for Inactive)
REMARK    1  A    between atoms: C_3  and  C_4 
REMARK    2  A    between atoms: C_11  and  N_12 
REMARK       I    between atoms: N_12  and  C_13 
REMARK    3  A    between atoms: C_13  and  C_14 
REMARK    4  A    between atoms: C_21  and  C_22 
REMARK       I    between atoms: C_22  and  N_23 
REMARK    5  A    between atoms: N_23  and  C_24 
REMARK    6  A    between atoms: C_24  and  C_25 
REMARK    7  A    between atoms: C_25  and  C_26 
ROOT
HETATM    1  C   UNL     1      43.947 -15.635   5.615  1.00  0.00     0.158 C 
HETATM    2  N   UNL     1      43.346 -16.102   4.389  1.00  0.00    -0.335 N 
HETATM    3  C   UNL     1      43.437 -17.385   3.894  1.00  0.00     0.111 A 
HETATM    4  N   UNL     1      42.704 -17.524   2.813  1.00  0.00    -0.233 NA
HETATM    5  C   UNL     1      42.163 -16.293   2.567  1.00  0.00     0.089 A 
HETATM    6  C   UNL     1      42.549 -15.357   3.534  1.00  0.00     0.091 A 
HETATM    7  C   UNL     1      42.102 -14.016   3.493  1.00  0.00     0.065 A 
HETATM    8  C   UNL     1      41.273 -13.672   2.412  1.00  0.00     0.049 A 
HETATM    9  C   UNL     1      40.889 -14.603   1.436  1.00  0.00     0.036 A 
HETATM   10  C   UNL     1      41.325 -15.926   1.506  1.00  0.00     0.051 A 
ENDROOT
BRANCH   9  11
HETATM   11  C   UNL     1      40.052 -14.123   0.306  1.00  0.00     0.251 C 
HETATM   12  N   UNL     1      39.196 -13.070   0.571  1.00  0.00    -0.357 N 
HETATM   13  H   UNL     1      39.354 -12.533   1.414  1.00  0.00     0.162 HD
HETATM   14  O   UNL     1      40.170 -14.640  -0.799  1.00  0.00    -0.268 OA
BRANCH  12  15
HETATM   15  C   UNL     1      38.514 -12.421  -0.537  1.00  0.00     0.127 C 
BRANCH  15  16
HETATM   16  C   UNL     1      38.759 -10.913  -0.587  1.00  0.00     0.060 C 
BRANCH  16  17
HETATM   17  C   UNL     1      39.795 -10.488   0.408  1.00  0.00    -0.029 A 
HETATM   18  C   UNL     1      39.581 -10.222   1.799  1.00  0.00    -0.002 A 
HETATM   19  C   UNL     1      40.801  -9.812   2.340  1.00  0.00     0.042 A 
HETATM   20  C   UNL     1      38.455 -10.275   2.648  1.00  0.00     0.014 A 
HETATM   21  C   UNL     1      40.950  -9.451   3.685  1.00  0.00     0.030 A 
HETATM   22  N   UNL     1      41.723  -9.840   1.321  1.00  0.00    -0.365 N 
HETATM   23  C   UNL     1      39.819  -9.513   4.503  1.00  0.00     0.002 A 
HETATM   24  C   UNL     1      38.588  -9.920   3.995  1.00  0.00     0.001 A 
HETATM   25  H   UNL     1      42.695  -9.584   1.424  1.00  0.00     0.165 HD
HETATM   26  C   UNL     1      41.131 -10.247   0.155  1.00  0.00     0.096 A 
ENDBRANCH  16  17
ENDBRANCH  15  16
ENDBRANCH  12  15
ENDBRANCH   9  11
BRANCH   7  27
HETATM   27  N   UNL     1      42.476 -13.083   4.477  1.00  0.00    -0.323 N 
HETATM   28  C   UNL     1      41.859 -12.821   5.693  1.00  0.00     0.251 C 
HETATM   29  O   UNL     1      40.857 -13.367   6.139  1.00  0.00    -0.270 OA
HETATM   30  H   UNL     1      43.288 -12.502   4.312  1.00  0.00     0.169 HD
BRANCH  28  31
HETATM   31  C   UNL     1      42.684 -11.822   6.530  1.00  0.00     0.213 C 
HETATM   32  O   UNL     1      43.636 -12.504   7.371  1.00  0.00    -0.376 OA
HETATM   33  C   UNL     1      44.945 -12.006   7.052  1.00  0.00     0.168 C 
HETATM   34  C   UNL     1      44.846 -11.401   5.670  1.00  0.00     0.029 C 
HETATM   35  C   UNL     1      43.453 -10.821   5.683  1.00  0.00     0.044 C 
ENDBRANCH  28  31
ENDBRANCH   7  27
BRANCH   3  36
HETATM   36  C   UNL     1      44.253 -18.535   4.483  1.00  0.00     0.056 C 
HETATM   37  C   UNL     1      43.611 -19.140   5.771  1.00  0.00     0.012 C 
HETATM   38  C   UNL     1      44.076 -20.519   5.269  1.00  0.00     0.002 C 
HETATM   39  C   UNL     1      43.988 -19.933   3.848  1.00  0.00     0.012 C 
ENDBRANCH   3  36
TORSDOF 7
ENDMDL
MODEL 8
REMARK VINA RESULT:      -8.9      4.709      9.793
REMARK  7 active torsions:
REMARK  status: ('A' for Active; 'I' for Inactive)
REMARK    1  A    between atoms: C_3  and  C_4 
REMARK    2  A    between atoms: C_11  and  N_12 
REMARK       I    between atoms: N_12  and  C_13 
REMARK    3  A    between atoms: C_13  and  C_14 
REMARK    4  A    between atoms: C_21  and  C_22 
REMARK       I    between atoms: C_22  and  N_23 
REMARK    5  A    between atoms: N_23  and  C_24 
REMARK    6  A    between atoms: C_24  and  C_25 
REMARK    7  A    between atoms: C_25  and  C_26 
ROOT
HETATM    1  C   UNL     1      43.906 -15.789   5.652  1.00  0.00     0.158 C 
HETATM    2  N   UNL     1      43.288 -16.293   4.450  1.00  0.00    -0.335 N 
HETATM    3  C   UNL     1      43.385 -17.586   3.985  1.00  0.00     0.111 A 
HETATM    4  N   UNL     1      42.634 -17.761   2.922  1.00  0.00    -0.233 NA
HETATM    5  C   UNL     1      42.074 -16.542   2.656  1.00  0.00     0.089 A 
HETATM    6  C   UNL     1      42.466 -15.579   3.592  1.00  0.00     0.091 A 
HETATM    7  C   UNL     1      42.003 -14.244   3.526  1.00  0.00     0.065 A 
HETATM    8  C   UNL     1      41.150 -13.936   2.453  1.00  0.00     0.049 A 
HETATM    9  C   UNL     1      40.759 -14.895   1.508  1.00  0.00     0.036 A 
HETATM   10  C   UNL     1      41.212 -16.211   1.601  1.00  0.00     0.051 A 
ENDROOT
BRANCH   9  11
HETATM   11  C   UNL     1      39.897 -14.452   0.382  1.00  0.00     0.251 C 
HETATM   12  N   UNL     1      39.504 -13.126   0.384  1.00  0.00    -0.357 N 
HETATM   13  H   UNL     1      40.006 -12.487   0.986  1.00  0.00     0.162 HD
HETATM   14  O   UNL     1      39.598 -15.246  -0.502  1.00  0.00    -0.268 OA
BRANCH  12  15
HETATM   15  C   UNL     1      38.843 -12.585  -0.792  1.00  0.00     0.127 C 
BRANCH  15  16
HETATM   16  C   UNL     1      39.819 -12.235  -1.916  1.00  0.00     0.060 C 
BRANCH  16  17
HETATM   17  C   UNL     1      40.613 -11.006  -1.595  1.00  0.00    -0.029 A 
HETATM   18  C   UNL     1      40.933  -9.939  -2.495  1.00  0.00    -0.002 A 
HETATM   19  C   UNL     1      41.725  -9.025  -1.798  1.00  0.00     0.042 A 
HETATM   20  C   UNL     1      40.636  -9.674  -3.849  1.00  0.00     0.014 A 
HETATM   21  C   UNL     1      42.235  -7.861  -2.387  1.00  0.00     0.030 A 
HETATM   22  N   UNL     1      41.870  -9.510  -0.521  1.00  0.00    -0.365 N 
HETATM   23  C   UNL     1      41.925  -7.624  -3.729  1.00  0.00     0.002 A 
HETATM   24  C   UNL     1      41.136  -8.514  -4.452  1.00  0.00     0.001 A 
HETATM   25  H   UNL     1      42.403  -9.053   0.206  1.00  0.00     0.165 HD
HETATM   26  C   UNL     1      41.204 -10.700  -0.385  1.00  0.00     0.096 A 
ENDBRANCH  16  17
ENDBRANCH  15  16
ENDBRANCH  12  15
ENDBRANCH   9  11
BRANCH   7  27
HETATM   27  N   UNL     1      42.385 -13.282   4.480  1.00  0.00    -0.323 N 
HETATM   28  C   UNL     1      41.831 -13.045   5.732  1.00  0.00     0.251 C 
HETATM   29  O   UNL     1      40.892 -13.644   6.243  1.00  0.00    -0.270 OA
HETATM   30  H   UNL     1      43.150 -12.658   4.261  1.00  0.00     0.169 HD
BRANCH  28  31
HETATM   31  C   UNL     1      42.648 -11.995   6.510  1.00  0.00     0.213 C 
HETATM   32  O   UNL     1      43.703 -12.612   7.276  1.00  0.00    -0.376 OA
HETATM   33  C   UNL     1      44.949 -12.030   6.863  1.00  0.00     0.168 C 
HETATM   34  C   UNL     1      44.710 -11.434   5.494  1.00  0.00     0.029 C 
HETATM   35  C   UNL     1      43.287 -10.946   5.612  1.00  0.00     0.044 C 
ENDBRANCH  28  31
ENDBRANCH   7  27
BRANCH   3  36
HETATM   36  C   UNL     1      44.225 -18.713   4.587  1.00  0.00     0.056 C 
HETATM   37  C   UNL     1      43.586 -19.329   5.871  1.00  0.00     0.012 C 
HETATM   38  C   UNL     1      44.091 -20.698   5.380  1.00  0.00     0.002 C 
HETATM   39  C   UNL     1      44.002 -20.119   3.956  1.00  0.00     0.012 C 
ENDBRANCH   3  36
TORSDOF 7
ENDMDL
MODEL 9
REMARK VINA RESULT:      -8.8      3.233      9.679
REMARK  7 active torsions:
REMARK  status: ('A' for Active; 'I' for Inactive)
REMARK    1  A    between atoms: C_3  and  C_4 
REMARK    2  A    between atoms: C_11  and  N_12 
REMARK       I    between atoms: N_12  and  C_13 
REMARK    3  A    between atoms: C_13  and  C_14 
REMARK    4  A    between atoms: C_21  and  C_22 
REMARK       I    between atoms: C_22  and  N_23 
REMARK    5  A    between atoms: N_23  and  C_24 
REMARK    6  A    between atoms: C_24  and  C_25 
REMARK    7  A    between atoms: C_25  and  C_26 
ROOT
HETATM    1  C   UNL     1      43.359 -15.243   6.419  1.00  0.00     0.158 C 
HETATM    2  N   UNL     1      42.522 -15.080   5.256  1.00  0.00    -0.335 N 
HETATM    3  C   UNL     1      42.236 -16.064   4.334  1.00  0.00     0.111 A 
HETATM    4  N   UNL     1      41.370 -15.637   3.445  1.00  0.00    -0.233 NA
HETATM    5  C   UNL     1      41.123 -14.329   3.761  1.00  0.00     0.089 A 
HETATM    6  C   UNL     1      41.837 -13.929   4.896  1.00  0.00     0.091 A 
HETATM    7  C   UNL     1      41.732 -12.619   5.419  1.00  0.00     0.065 A 
HETATM    8  C   UNL     1      40.892 -11.738   4.718  1.00  0.00     0.049 A 
HETATM    9  C   UNL     1      40.179 -12.130   3.577  1.00  0.00     0.036 A 
HETATM   10  C   UNL     1      40.282 -13.433   3.088  1.00  0.00     0.051 A 
ENDROOT
BRANCH   9  11
HETATM   11  C   UNL     1      39.360 -11.106   2.881  1.00  0.00     0.251 C 
HETATM   12  N   UNL     1      38.351 -11.571   2.057  1.00  0.00    -0.357 N 
HETATM   13  H   UNL     1      38.067 -12.537   2.160  1.00  0.00     0.162 HD
HETATM   14  O   UNL     1      39.577  -9.916   3.079  1.00  0.00    -0.268 OA
BRANCH  12  15
HETATM   15  C   UNL     1      37.386 -10.626   1.521  1.00  0.00     0.127 C 
BRANCH  15  16
HETATM   16  C   UNL     1      37.107 -10.839   0.033  1.00  0.00     0.060 C 
BRANCH  16  17
HETATM   17  C   UNL     1      38.373 -10.878  -0.766  1.00  0.00    -0.029 A 
HETATM   18  C   UNL     1      38.912 -12.013  -1.453  1.00  0.00    -0.002 A 
HETATM   19  C   UNL     1      40.123 -11.621  -2.026  1.00  0.00     0.042 A 
HETATM   20  C   UNL     1      38.489 -13.348  -1.627  1.00  0.00     0.014 A 
HETATM   21  C   UNL     1      40.932 -12.496  -2.761  1.00  0.00     0.030 A 
HETATM   22  N   UNL     1      40.306 -10.295  -1.711  1.00  0.00    -0.365 N 
HETATM   23  C   UNL     1      40.489 -13.812  -2.917  1.00  0.00     0.002 A 
HETATM   24  C   UNL     1      39.285 -14.235  -2.361  1.00  0.00     0.001 A 
HETATM   25  H   UNL     1      41.109  -9.748  -1.992  1.00  0.00     0.165 HD
HETATM   26  C   UNL     1      39.260  -9.837  -0.955  1.00  0.00     0.096 A 
ENDBRANCH  16  17
ENDBRANCH  15  16
ENDBRANCH  12  15
ENDBRANCH   9  11
BRANCH   7  27
HETATM   27  N   UNL     1      42.438 -12.226   6.571  1.00  0.00    -0.323 N 
HETATM   28  C   UNL     1      43.638 -11.532   6.649  1.00  0.00     0.251 C 
HETATM   29  O   UNL     1      44.313 -11.127   5.710  1.00  0.00    -0.270 OA
HETATM   30  H   UNL     1      42.062 -12.469   7.478  1.00  0.00     0.169 HD
BRANCH  28  31
HETATM   31  C   UNL     1      43.983 -11.183   8.111  1.00  0.00     0.213 C 
HETATM   32  O   UNL     1      45.410 -11.138   8.317  1.00  0.00    -0.376 OA
HETATM   33  C   UNL     1      45.743  -9.835   8.822  1.00  0.00     0.168 C 
HETATM   34  C   UNL     1      44.600  -8.923   8.440  1.00  0.00     0.029 C 
HETATM   35  C   UNL     1      43.412  -9.846   8.559  1.00  0.00     0.044 C 
ENDBRANCH  28  31
ENDBRANCH   7  27
BRANCH   3  36
HETATM   36  C   UNL     1      42.807 -17.481   4.305  1.00  0.00     0.056 C 
HETATM   37  C   UNL     1      43.029 -18.017   2.856  1.00  0.00     0.012 C 
HETATM   38  C   UNL     1      44.313 -18.690   3.377  1.00  0.00     0.002 C 
HETATM   39  C   UNL     1      44.356 -17.578   4.441  1.00  0.00     0.012 C 
ENDBRANCH   3  36
TORSDOF 7
ENDMDL
MODEL 10
REMARK VINA RESULT:      -8.6      2.597      5.430
REMARK  7 active torsions:
REMARK  status: ('A' for Active; 'I' for Inactive)
REMARK    1  A    between atoms: C_3  and  C_4 
REMARK    2  A    between atoms: C_11  and  N_12 
REMARK       I    between atoms: N_12  and  C_13 
REMARK    3  A    between atoms: C_13  and  C_14 
REMARK    4  A    between atoms: C_21  and  C_22 
REMARK       I    between atoms: C_22  and  N_23 
REMARK    5  A    between atoms: N_23  and  C_24 
REMARK    6  A    between atoms: C_24  and  C_25 
REMARK    7  A    between atoms: C_25  and  C_26 
ROOT
HETATM    1  C   UNL     1      40.575 -15.091   1.053  1.00  0.00     0.158 C 
HETATM    2  N   UNL     1      40.088 -13.798   1.466  1.00  0.00    -0.335 N 
HETATM    3  C   UNL     1      39.603 -12.821   0.622  1.00  0.00     0.111 A 
HETATM    4  N   UNL     1      39.146 -11.796   1.304  1.00  0.00    -0.233 NA
HETATM    5  C   UNL     1      39.384 -12.087   2.619  1.00  0.00     0.089 A 
HETATM    6  C   UNL     1      39.987 -13.340   2.770  1.00  0.00     0.091 A 
HETATM    7  C   UNL     1      40.317 -13.860   4.044  1.00  0.00     0.065 A 
HETATM    8  C   UNL     1      40.030 -13.033   5.143  1.00  0.00     0.049 A 
HETATM    9  C   UNL     1      39.433 -11.774   4.998  1.00  0.00     0.036 A 
HETATM   10  C   UNL     1      39.097 -11.288   3.734  1.00  0.00     0.051 A 
ENDROOT
BRANCH   9  11
HETATM   11  C   UNL     1      39.220 -10.958   6.221  1.00  0.00     0.251 C 
HETATM   12  N   UNL     1      40.247 -10.108   6.588  1.00  0.00    -0.357 N 
HETATM   13  H   UNL     1      40.958  -9.903   5.898  1.00  0.00     0.162 HD
HETATM   14  O   UNL     1      38.159 -11.039   6.829  1.00  0.00    -0.268 OA
BRANCH  12  15
HETATM   15  C   UNL     1      40.015  -9.136   7.644  1.00  0.00     0.127 C 
BRANCH  15  16
HETATM   16  C   UNL     1      41.166  -9.060   8.647  1.00  0.00     0.060 C 
BRANCH  16  17
HETATM   17  C   UNL     1      40.693  -9.287  10.049  1.00  0.00    -0.029 A 
HETATM   18  C   UNL     1      41.414  -8.991  11.251  1.00  0.00    -0.002 A 
HETATM   19  C   UNL     1      40.626  -9.404  12.326  1.00  0.00     0.042 A 
HETATM   20  C   UNL     1      42.676  -8.422  11.523  1.00  0.00     0.014 A 
HETATM   21  C   UNL     1      41.037  -9.279  13.659  1.00  0.00     0.030 A 
HETATM   22  N   UNL     1      39.466  -9.920  11.800  1.00  0.00    -0.365 N 
HETATM   23  C   UNL     1      42.292  -8.712  13.900  1.00  0.00     0.002 A 
HETATM   24  C   UNL     1      43.101  -8.287  12.850  1.00  0.00     0.001 A 
HETATM   25  H   UNL     1      38.710 -10.302  12.352  1.00  0.00     0.165 HD
HETATM   26  C   UNL     1      39.493  -9.854  10.432  1.00  0.00     0.096 A 
ENDBRANCH  16  17
ENDBRANCH  15  16
ENDBRANCH  12  15
ENDBRANCH   9  11
BRANCH   7  27
HETATM   27  N   UNL     1      40.907 -15.129   4.193  1.00  0.00    -0.323 N 
HETATM   28  C   UNL     1      42.160 -15.440   4.704  1.00  0.00     0.251 C 
HETATM   29  O   UNL     1      42.996 -14.650   5.127  1.00  0.00    -0.270 OA
HETATM   30  H   UNL     1      40.389 -15.943   3.892  1.00  0.00     0.169 HD
BRANCH  28  31
HETATM   31  C   UNL     1      42.349 -16.965   4.820  1.00  0.00     0.213 C 
HETATM   32  O   UNL     1      42.699 -17.549   3.549  1.00  0.00    -0.376 OA
HETATM   33  C   UNL     1      43.947 -18.241   3.709  1.00  0.00     0.168 C 
HETATM   34  C   UNL     1      44.610 -17.650   4.933  1.00  0.00     0.029 C 
HETATM   35  C   UNL     1      43.424 -17.363   5.820  1.00  0.00     0.044 C 
ENDBRANCH  28  31
ENDBRANCH   7  27
BRANCH   3  36
HETATM   36  C   UNL     1      39.565 -12.870  -0.905  1.00  0.00     0.056 C 
HETATM   37  C   UNL     1      38.456 -11.957  -1.515  1.00  0.00     0.012 C 
HETATM   38  C   UNL     1      39.449 -11.627  -2.645  1.00  0.00     0.002 C 
HETATM   39  C   UNL     1      40.566 -11.920  -1.627  1.00  0.00     0.012 C 
ENDBRANCH   3  36
TORSDOF 7
ENDMDL
