MODEL 1
REMARK VINA RESULT:      -8.4      0.000      0.000
REMARK  6 active torsions:
REMARK  status: ('A' for Active; 'I' for Inactive)
REMARK    1  A    between atoms: C_2  and  C_3 
REMARK       I    between atoms: C_3  and  N_4 
REMARK    2  A    between atoms: N_4  and  C_5 
REMARK    3  A    between atoms: C_7  and  N_8 
REMARK       I    between atoms: N_8  and  C_9 
REMARK    4  A    between atoms: C_9  and  C_10 
REMARK    5  A    between atoms: C_12  and  O_13 
REMARK    6  A    between atoms: O_13  and  C_14 
ROOT
HETATM    1  N   UNL     1      43.575 -12.332   7.518  1.00  0.00    -0.322 N 
HETATM    2  C   UNL     1      42.695 -12.306   6.447  1.00  0.00     0.256 C 
HETATM    3  O   UNL     1      42.192 -11.293   5.972  1.00  0.00    -0.267 OA
HETATM    4  H   UNL     1      43.734 -13.206   7.989  1.00  0.00     0.169 HD
ENDROOT
BRANCH   1   5
HETATM    5  C   UNL     1      44.261 -11.210   8.052  1.00  0.00     0.043 A 
HETATM    6  C   UNL     1      43.779 -10.528   9.184  1.00  0.00     0.059 A 
HETATM    7  C   UNL     1      44.408  -9.379   9.668  1.00  0.00     0.036 A 
HETATM    8  C   UNL     1      45.559  -8.922   9.025  1.00  0.00     0.030 A 
HETATM    9  C   UNL     1      46.050  -9.583   7.898  1.00  0.00     0.011 A 
HETATM   10  C   UNL     1      45.411 -10.727   7.396  1.00  0.00    -0.035 A 
HETATM   11  C   UNL     1      45.984 -11.384   6.171  1.00  0.00     0.050 C 
BRANCH   7  12
HETATM   12  N   UNL     1      43.950  -8.633  10.777  1.00  0.00    -0.327 N 
HETATM   13  C   UNL     1      43.448  -9.120  11.972  1.00  0.00     0.221 C 
HETATM   14  O   UNL     1      43.226 -10.294  12.253  1.00  0.00    -0.273 OA
HETATM   15  H   UNL     1      43.932  -7.629  10.656  1.00  0.00     0.169 HD
BRANCH  13  16
HETATM   16  C   UNL     1      43.099  -8.020  12.961  1.00  0.00     0.098 C 
HETATM   17  C   UNL     1      42.290  -8.526  14.141  1.00  0.00     0.014 C 
ENDBRANCH  13  16
ENDBRANCH   7  12
ENDBRANCH   1   5
BRANCH   2  18
HETATM   18  C   UNL     1      42.318 -13.612   5.831  1.00  0.00     0.037 A 
HETATM   19  C   UNL     1      43.175 -14.393   5.055  1.00  0.00     0.075 A 
HETATM   20  C   UNL     1      42.668 -15.566   4.520  1.00  0.00     0.165 A 
HETATM   21  N   UNL     1      41.407 -16.004   4.702  1.00  0.00    -0.237 NA
HETATM   22  C   UNL     1      40.602 -15.241   5.464  1.00  0.00     0.120 A 
HETATM   23  C   UNL     1      41.006 -14.054   6.042  1.00  0.00     0.036 A 
BRANCH  20  24
HETATM   24  O   UNL     1      43.533 -16.322   3.750  1.00  0.00    -0.329 OA
BRANCH  24  25
HETATM   25  C   UNL     1      43.223 -17.731   3.659  1.00  0.00     0.130 C 
HETATM   26  C   UNL     1      44.418 -18.723   3.668  1.00  0.00     0.032 C 
HETATM   27  C   UNL     1      43.661 -19.545   2.611  1.00  0.00     0.005 C 
HETATM   28  C   UNL     1      42.931 -18.245   2.224  1.00  0.00     0.032 C 
ENDBRANCH  24  25
ENDBRANCH  20  24
ENDBRANCH   2  18
TORSDOF 6
ENDMDL
MODEL 2
REMARK VINA RESULT:      -8.1      1.289      9.522
REMARK  6 active torsions:
REMARK  status: ('A' for Active; 'I' for Inactive)
REMARK    1  A    between atoms: C_2  and  C_3 
REMARK       I    between atoms: C_3  and  N_4 
REMARK    2  A    between atoms: N_4  and  C_5 
REMARK    3  A    between atoms: C_7  and  N_8 
REMARK       I    between atoms: N_8  and  C_9 
REMARK    4  A    between atoms: C_9  and  C_10 
REMARK    5  A    between atoms: C_12  and  O_13 
REMARK    6  A    between atoms: O_13  and  C_14 
ROOT
HETATM    1  N   UNL     1      43.365 -13.100   6.931  1.00  0.00    -0.322 N 
HETATM    2  C   UNL     1      44.045 -12.010   6.414  1.00  0.00     0.256 C 
HETATM    3  O   UNL     1      44.328 -11.852   5.230  1.00  0.00    -0.267 OA
HETATM    4  H   UNL     1      43.400 -13.263   7.923  1.00  0.00     0.169 HD
ENDROOT
BRANCH   1   5
HETATM    5  C   UNL     1      42.635 -14.055   6.175  1.00  0.00     0.043 A 
HETATM    6  C   UNL     1      43.225 -15.263   5.758  1.00  0.00     0.059 A 
HETATM    7  C   UNL     1      42.537 -16.172   4.952  1.00  0.00     0.036 A 
HETATM    8  C   UNL     1      41.224 -15.880   4.580  1.00  0.00     0.030 A 
HETATM    9  C   UNL     1      40.623 -14.685   4.980  1.00  0.00     0.011 A 
HETATM   10  C   UNL     1      41.317 -13.759   5.776  1.00  0.00    -0.035 A 
HETATM   11  C   UNL     1      40.617 -12.486   6.162  1.00  0.00     0.050 C 
BRANCH   7  12
HETATM   12  N   UNL     1      43.089 -17.381   4.474  1.00  0.00    -0.327 N 
HETATM   13  C   UNL     1      43.479 -17.677   3.180  1.00  0.00     0.221 C 
HETATM   14  O   UNL     1      43.335 -16.969   2.188  1.00  0.00    -0.273 OA
HETATM   15  H   UNL     1      43.147 -18.135   5.146  1.00  0.00     0.169 HD
BRANCH  13  16
HETATM   16  C   UNL     1      44.082 -19.066   3.044  1.00  0.00     0.098 C 
HETATM   17  C   UNL     1      43.294 -19.959   2.103  1.00  0.00     0.014 C 
ENDBRANCH  13  16
ENDBRANCH   7  12
ENDBRANCH   1   5
BRANCH   2  18
HETATM   18  C   UNL     1      44.482 -10.950   7.369  1.00  0.00     0.037 A 
HETATM   19  C   UNL     1      43.648 -10.345   8.310  1.00  0.00     0.075 A 
HETATM   20  C   UNL     1      44.191  -9.350   9.105  1.00  0.00     0.165 A 
HETATM   21  N   UNL     1      45.469  -8.930   9.034  1.00  0.00    -0.237 NA
HETATM   22  C   UNL     1      46.259  -9.536   8.128  1.00  0.00     0.120 A 
HETATM   23  C   UNL     1      45.818 -10.537   7.286  1.00  0.00     0.036 A 
BRANCH  20  24
HETATM   24  O   UNL     1      43.345  -8.760  10.027  1.00  0.00    -0.329 OA
BRANCH  24  25
HETATM   25  C   UNL     1      43.565  -9.131  11.407  1.00  0.00     0.130 C 
HETATM   26  C   UNL     1      42.517 -10.071  12.064  1.00  0.00     0.032 C 
HETATM   27  C   UNL     1      42.665  -9.233  13.346  1.00  0.00     0.005 C 
HETATM   28  C   UNL     1      43.124  -8.069  12.448  1.00  0.00     0.032 C 
ENDBRANCH  24  25
ENDBRANCH  20  24
ENDBRANCH   2  18
TORSDOF 6
ENDMDL
MODEL 3
REMARK VINA RESULT:      -7.9      5.033      8.362
REMARK  6 active torsions:
REMARK  status: ('A' for Active; 'I' for Inactive)
REMARK    1  A    between atoms: C_2  and  C_3 
REMARK       I    between atoms: C_3  and  N_4 
REMARK    2  A    between atoms: N_4  and  C_5 
REMARK    3  A    between atoms: C_7  and  N_8 
REMARK       I    between atoms: N_8  and  C_9 
REMARK    4  A    between atoms: C_9  and  C_10 
REMARK    5  A    between atoms: C_12  and  O_13 
REMARK    6  A    between atoms: O_13  and  C_14 
ROOT
HETATM    1  N   UNL     1      42.026 -14.161   3.372  1.00  0.00    -0.322 N 
HETATM    2  C   UNL     1      40.731 -14.457   2.979  1.00  0.00     0.256 C 
HETATM    3  O   UNL     1      40.159 -15.524   3.184  1.00  0.00    -0.267 OA
HETATM    4  H   UNL     1      42.489 -13.374   2.949  1.00  0.00     0.169 HD
ENDROOT
BRANCH   1   5
HETATM    5  C   UNL     1      42.796 -14.898   4.310  1.00  0.00     0.043 A 
HETATM    6  C   UNL     1      43.157 -16.236   4.068  1.00  0.00     0.059 A 
HETATM    7  C   UNL     1      43.850 -16.990   5.019  1.00  0.00     0.036 A 
HETATM    8  C   UNL     1      44.213 -16.382   6.222  1.00  0.00     0.030 A 
HETATM    9  C   UNL     1      43.860 -15.057   6.481  1.00  0.00     0.011 A 
HETATM   10  C   UNL     1      43.148 -14.301   5.536  1.00  0.00    -0.035 A 
HETATM   11  C   UNL     1      42.788 -12.883   5.884  1.00  0.00     0.050 C 
BRANCH   7  12
HETATM   12  N   UNL     1      44.207 -18.345   4.847  1.00  0.00    -0.327 N 
HETATM   13  C   UNL     1      43.852 -19.419   5.645  1.00  0.00     0.221 C 
HETATM   14  O   UNL     1      43.231 -19.377   6.702  1.00  0.00    -0.273 OA
HETATM   15  H   UNL     1      44.845 -18.539   4.087  1.00  0.00     0.169 HD
BRANCH  13  16
HETATM   16  C   UNL     1      44.378 -20.746   5.123  1.00  0.00     0.098 C 
HETATM   17  C   UNL     1      43.932 -21.037   3.701  1.00  0.00     0.014 C 
ENDBRANCH  13  16
ENDBRANCH   7  12
ENDBRANCH   1   5
BRANCH   2  18
HETATM   18  C   UNL     1      39.976 -13.406   2.236  1.00  0.00     0.037 A 
HETATM   19  C   UNL     1      39.812 -13.385   0.851  1.00  0.00     0.075 A 
HETATM   20  C   UNL     1      39.114 -12.323   0.302  1.00  0.00     0.165 A 
HETATM   21  N   UNL     1      38.579 -11.312   1.016  1.00  0.00    -0.237 NA
HETATM   22  C   UNL     1      38.739 -11.360   2.351  1.00  0.00     0.120 A 
HETATM   23  C   UNL     1      39.419 -12.372   2.998  1.00  0.00     0.036 A 
BRANCH  20  24
HETATM   24  O   UNL     1      38.968 -12.319  -1.073  1.00  0.00    -0.329 OA
BRANCH  24  25
HETATM   25  C   UNL     1      38.614 -13.587  -1.670  1.00  0.00     0.130 C 
HETATM   26  C   UNL     1      39.531 -14.115  -2.807  1.00  0.00     0.032 C 
HETATM   27  C   UNL     1      38.257 -14.600  -3.522  1.00  0.00     0.005 C 
HETATM   28  C   UNL     1      37.491 -13.517  -2.738  1.00  0.00     0.032 C 
ENDBRANCH  24  25
ENDBRANCH  20  24
ENDBRANCH   2  18
TORSDOF 6
ENDMDL
MODEL 4
REMARK VINA RESULT:      -7.8      6.546      9.763
REMARK  6 active torsions:
REMARK  status: ('A' for Active; 'I' for Inactive)
REMARK    1  A    between atoms: C_2  and  C_3 
REMARK       I    between atoms: C_3  and  N_4 
REMARK    2  A    between atoms: N_4  and  C_5 
REMARK    3  A    between atoms: C_7  and  N_8 
REMARK       I    between atoms: N_8  and  C_9 
REMARK    4  A    between atoms: C_9  and  C_10 
REMARK    5  A    between atoms: C_12  and  O_13 
REMARK    6  A    between atoms: O_13  and  C_14 
ROOT
HETATM    1  N   UNL     1      41.932 -14.913   0.885  1.00  0.00    -0.322 N 
HETATM    2  C   UNL     1      40.593 -14.954   0.531  1.00  0.00     0.256 C 
HETATM    3  O   UNL     1      39.728 -15.599   1.116  1.00  0.00    -0.267 OA
HETATM    4  H   UNL     1      42.597 -14.569   0.214  1.00  0.00     0.169 HD
ENDROOT
BRANCH   1   5
HETATM    5  C   UNL     1      42.476 -15.356   2.120  1.00  0.00     0.043 A 
HETATM    6  C   UNL     1      42.836 -16.702   2.319  1.00  0.00     0.059 A 
HETATM    7  C   UNL     1      43.300 -17.158   3.555  1.00  0.00     0.036 A 
HETATM    8  C   UNL     1      43.434 -16.245   4.601  1.00  0.00     0.030 A 
HETATM    9  C   UNL     1      43.078 -14.907   4.423  1.00  0.00     0.011 A 
HETATM   10  C   UNL     1      42.593 -14.447   3.189  1.00  0.00    -0.035 A 
HETATM   11  C   UNL     1      42.214 -12.997   3.068  1.00  0.00     0.050 C 
BRANCH   7  12
HETATM   12  N   UNL     1      43.643 -18.502   3.824  1.00  0.00    -0.327 N 
HETATM   13  C   UNL     1      43.484 -19.596   2.992  1.00  0.00     0.221 C 
HETATM   14  O   UNL     1      42.932 -19.613   1.896  1.00  0.00    -0.273 OA
HETATM   15  H   UNL     1      43.989 -18.690   4.756  1.00  0.00     0.169 HD
BRANCH  13  16
HETATM   16  C   UNL     1      44.016 -20.885   3.596  1.00  0.00     0.098 C 
HETATM   17  C   UNL     1      44.026 -20.862   5.114  1.00  0.00     0.014 C 
ENDBRANCH  13  16
ENDBRANCH   7  12
ENDBRANCH   1   5
BRANCH   2  18
HETATM   18  C   UNL     1      40.169 -14.163  -0.662  1.00  0.00     0.037 A 
HETATM   19  C   UNL     1      40.592 -12.863  -0.936  1.00  0.00     0.075 A 
HETATM   20  C   UNL     1      40.083 -12.246  -2.066  1.00  0.00     0.165 A 
HETATM   21  N   UNL     1      39.210 -12.817  -2.919  1.00  0.00    -0.237 NA
HETATM   22  C   UNL     1      38.825 -14.076  -2.642  1.00  0.00     0.120 A 
HETATM   23  C   UNL     1      39.270 -14.781  -1.541  1.00  0.00     0.036 A 
BRANCH  20  24
HETATM   24  O   UNL     1      40.512 -10.955  -2.316  1.00  0.00    -0.329 OA
BRANCH  24  25
HETATM   25  C   UNL     1      41.167 -10.286  -1.213  1.00  0.00     0.130 C 
HETATM   26  C   UNL     1      40.331  -9.247  -0.418  1.00  0.00     0.032 C 
HETATM   27  C   UNL     1      41.599  -8.379  -0.344  1.00  0.00     0.005 C 
HETATM   28  C   UNL     1      42.081  -9.099  -1.617  1.00  0.00     0.032 C 
ENDBRANCH  24  25
ENDBRANCH  20  24
ENDBRANCH   2  18
TORSDOF 6
ENDMDL
MODEL 5
REMARK VINA RESULT:      -7.7      5.247      9.478
REMARK  6 active torsions:
REMARK  status: ('A' for Active; 'I' for Inactive)
REMARK    1  A    between atoms: C_2  and  C_3 
REMARK       I    between atoms: C_3  and  N_4 
REMARK    2  A    between atoms: N_4  and  C_5 
REMARK    3  A    between atoms: C_7  and  N_8 
REMARK       I    between atoms: N_8  and  C_9 
REMARK    4  A    between atoms: C_9  and  C_10 
REMARK    5  A    between atoms: C_12  and  O_13 
REMARK    6  A    between atoms: O_13  and  C_14 
ROOT
HETATM    1  N   UNL     1      41.525 -15.647   2.543  1.00  0.00    -0.322 N 
HETATM    2  C   UNL     1      42.603 -16.472   2.269  1.00  0.00     0.256 C 
HETATM    3  O   UNL     1      43.181 -16.543   1.188  1.00  0.00    -0.267 OA
HETATM    4  H   UNL     1      40.969 -15.836   3.360  1.00  0.00     0.169 HD
ENDROOT
BRANCH   1   5
HETATM    5  C   UNL     1      41.093 -14.555   1.743  1.00  0.00     0.043 A 
HETATM    6  C   UNL     1      40.179 -14.737   0.689  1.00  0.00     0.059 A 
HETATM    7  C   UNL     1      39.809 -13.682  -0.147  1.00  0.00     0.036 A 
HETATM    8  C   UNL     1      40.342 -12.415   0.094  1.00  0.00     0.030 A 
HETATM    9  C   UNL     1      41.253 -12.216   1.132  1.00  0.00     0.011 A 
HETATM   10  C   UNL     1      41.643 -13.278   1.965  1.00  0.00    -0.035 A 
HETATM   11  C   UNL     1      42.639 -12.998   3.056  1.00  0.00     0.050 C 
BRANCH   7  12
HETATM   12  N   UNL     1      38.925 -13.812  -1.241  1.00  0.00    -0.327 N 
HETATM   13  C   UNL     1      39.249 -14.042  -2.567  1.00  0.00     0.221 C 
HETATM   14  O   UNL     1      40.377 -14.087  -3.050  1.00  0.00    -0.273 OA
HETATM   15  H   UNL     1      37.946 -13.659  -1.037  1.00  0.00     0.169 HD
BRANCH  13  16
HETATM   16  C   UNL     1      38.030 -14.177  -3.462  1.00  0.00     0.098 C 
HETATM   17  C   UNL     1      36.864 -13.322  -3.001  1.00  0.00     0.014 C 
ENDBRANCH  13  16
ENDBRANCH   7  12
ENDBRANCH   1   5
BRANCH   2  18
HETATM   18  C   UNL     1      43.095 -17.355   3.367  1.00  0.00     0.037 A 
HETATM   19  C   UNL     1      42.839 -17.144   4.721  1.00  0.00     0.075 A 
HETATM   20  C   UNL     1      43.394 -18.031   5.627  1.00  0.00     0.165 A 
HETATM   21  N   UNL     1      44.161 -19.087   5.288  1.00  0.00    -0.237 NA
HETATM   22  C   UNL     1      44.385 -19.279   3.975  1.00  0.00     0.120 A 
HETATM   23  C   UNL     1      43.880 -18.452   2.991  1.00  0.00     0.036 A 
BRANCH  20  24
HETATM   24  O   UNL     1      43.132 -17.800   6.966  1.00  0.00    -0.329 OA
BRANCH  24  25
HETATM   25  C   UNL     1      43.579 -16.526   7.482  1.00  0.00     0.130 C 
HETATM   26  C   UNL     1      42.547 -15.366   7.500  1.00  0.00     0.032 C 
HETATM   27  C   UNL     1      43.690 -14.427   7.079  1.00  0.00     0.005 C 
HETATM   28  C   UNL     1      44.389 -15.662   6.479  1.00  0.00     0.032 C 
ENDBRANCH  24  25
ENDBRANCH  20  24
ENDBRANCH   2  18
TORSDOF 6
ENDMDL
MODEL 6
REMARK VINA RESULT:      -7.6      5.159      8.246
REMARK  6 active torsions:
REMARK  status: ('A' for Active; 'I' for Inactive)
REMARK    1  A    between atoms: C_2  and  C_3 
REMARK       I    between atoms: C_3  and  N_4 
REMARK    2  A    between atoms: N_4  and  C_5 
REMARK    3  A    between atoms: C_7  and  N_8 
REMARK       I    between atoms: N_8  and  C_9 
REMARK    4  A    between atoms: C_9  and  C_10 
REMARK    5  A    between atoms: C_12  and  O_13 
REMARK    6  A    between atoms: O_13  and  C_14 
ROOT
HETATM    1  N   UNL     1      42.493 -13.667   3.403  1.00  0.00    -0.322 N 
HETATM    2  C   UNL     1      41.775 -14.217   4.452  1.00  0.00     0.256 C 
HETATM    3  O   UNL     1      40.641 -13.883   4.782  1.00  0.00    -0.267 OA
HETATM    4  H   UNL     1      43.487 -13.822   3.366  1.00  0.00     0.169 HD
ENDROOT
BRANCH   1   5
HETATM    5  C   UNL     1      41.958 -12.854   2.369  1.00  0.00     0.043 A 
HETATM    6  C   UNL     1      41.342 -13.420   1.238  1.00  0.00     0.059 A 
HETATM    7  C   UNL     1      40.882 -12.628   0.183  1.00  0.00     0.036 A 
HETATM    8  C   UNL     1      41.015 -11.242   0.277  1.00  0.00     0.030 A 
HETATM    9  C   UNL     1      41.627 -10.663   1.389  1.00  0.00     0.011 A 
HETATM   10  C   UNL     1      42.108 -11.455   2.443  1.00  0.00    -0.035 A 
HETATM   11  C   UNL     1      42.770 -10.769   3.606  1.00  0.00     0.050 C 
BRANCH   7  12
HETATM   12  N   UNL     1      40.288 -13.141  -0.991  1.00  0.00    -0.327 N 
HETATM   13  C   UNL     1      38.989 -12.954  -1.431  1.00  0.00     0.221 C 
HETATM   14  O   UNL     1      38.086 -12.377  -0.833  1.00  0.00    -0.273 OA
HETATM   15  H   UNL     1      40.864 -13.766  -1.539  1.00  0.00     0.169 HD
BRANCH  13  16
HETATM   16  C   UNL     1      38.715 -13.616  -2.771  1.00  0.00     0.098 C 
HETATM   17  C   UNL     1      38.817 -15.130  -2.711  1.00  0.00     0.014 C 
ENDBRANCH  13  16
ENDBRANCH   7  12
ENDBRANCH   1   5
BRANCH   2  18
HETATM   18  C   UNL     1      42.433 -15.290   5.253  1.00  0.00     0.037 A 
HETATM   19  C   UNL     1      43.148 -16.355   4.706  1.00  0.00     0.075 A 
HETATM   20  C   UNL     1      43.672 -17.294   5.579  1.00  0.00     0.165 A 
HETATM   21  N   UNL     1      43.542 -17.245   6.919  1.00  0.00    -0.237 NA
HETATM   22  C   UNL     1      42.859 -16.202   7.426  1.00  0.00     0.120 A 
HETATM   23  C   UNL     1      42.294 -15.213   6.645  1.00  0.00     0.036 A 
BRANCH  20  24
HETATM   24  O   UNL     1      44.374 -18.344   5.015  1.00  0.00    -0.329 OA
BRANCH  24  25
HETATM   25  C   UNL     1      43.610 -19.217   4.152  1.00  0.00     0.130 C 
HETATM   26  C   UNL     1      44.020 -20.715   4.117  1.00  0.00     0.032 C 
HETATM   27  C   UNL     1      43.747 -20.688   2.603  1.00  0.00     0.005 C 
HETATM   28  C   UNL     1      44.011 -19.172   2.654  1.00  0.00     0.032 C 
ENDBRANCH  24  25
ENDBRANCH  20  24
ENDBRANCH   2  18
TORSDOF 6
ENDMDL
MODEL 7
REMARK VINA RESULT:      -7.5      4.640      8.522
REMARK  6 active torsions:
REMARK  status: ('A' for Active; 'I' for Inactive)
REMARK    1  A    between atoms: C_2  and  C_3 
REMARK       I    between atoms: C_3  and  N_4 
REMARK    2  A    between atoms: N_4  and  C_5 
REMARK    3  A    between atoms: C_7  and  N_8 
REMARK       I    between atoms: N_8  and  C_9 
REMARK    4  A    between atoms: C_9  and  C_10 
REMARK    5  A    between atoms: C_12  and  O_13 
REMARK    6  A    between atoms: O_13  and  C_14 
ROOT
HETATM    1  N   UNL     1      41.957 -13.872   4.036  1.00  0.00    -0.322 N 
HETATM    2  C   UNL     1      42.369 -13.019   3.025  1.00  0.00     0.256 C 
HETATM    3  O   UNL     1      43.535 -12.839   2.686  1.00  0.00    -0.267 OA
HETATM    4  H   UNL     1      41.026 -13.767   4.405  1.00  0.00     0.169 HD
ENDROOT
BRANCH   1   5
HETATM    5  C   UNL     1      42.750 -14.880   4.645  1.00  0.00     0.043 A 
HETATM    6  C   UNL     1      42.878 -16.157   4.069  1.00  0.00     0.059 A 
HETATM    7  C   UNL     1      43.596 -17.175   4.701  1.00  0.00     0.036 A 
HETATM    8  C   UNL     1      44.221 -16.900   5.918  1.00  0.00     0.030 A 
HETATM    9  C   UNL     1      44.101 -15.640   6.507  1.00  0.00     0.011 A 
HETATM   10  C   UNL     1      43.366 -14.619   5.885  1.00  0.00    -0.035 A 
HETATM   11  C   UNL     1      43.266 -13.289   6.579  1.00  0.00     0.050 C 
BRANCH   7  12
HETATM   12  N   UNL     1      43.729 -18.485   4.189  1.00  0.00    -0.327 N 
HETATM   13  C   UNL     1      43.539 -18.904   2.884  1.00  0.00     0.221 C 
HETATM   14  O   UNL     1      43.133 -18.226   1.946  1.00  0.00    -0.273 OA
HETATM   15  H   UNL     1      43.927 -19.206   4.871  1.00  0.00     0.169 HD
BRANCH  13  16
HETATM   16  C   UNL     1      43.823 -20.384   2.688  1.00  0.00     0.098 C 
HETATM   17  C   UNL     1      43.921 -21.142   4.000  1.00  0.00     0.014 C 
ENDBRANCH  13  16
ENDBRANCH   7  12
ENDBRANCH   1   5
BRANCH   2  18
HETATM   18  C   UNL     1      41.317 -12.249   2.299  1.00  0.00     0.037 A 
HETATM   19  C   UNL     1      40.948 -12.477   0.973  1.00  0.00     0.075 A 
HETATM   20  C   UNL     1      39.979 -11.655   0.425  1.00  0.00     0.165 A 
HETATM   21  N   UNL     1      39.367 -10.652   1.085  1.00  0.00    -0.237 NA
HETATM   22  C   UNL     1      39.730 -10.458   2.367  1.00  0.00     0.120 A 
HETATM   23  C   UNL     1      40.686 -11.219   3.008  1.00  0.00     0.036 A 
BRANCH  20  24
HETATM   24  O   UNL     1      39.631 -11.896  -0.892  1.00  0.00    -0.329 OA
BRANCH  24  25
HETATM   25  C   UNL     1      39.395 -13.280  -1.235  1.00  0.00     0.130 C 
HETATM   26  C   UNL     1      40.202 -13.862  -2.428  1.00  0.00     0.032 C 
HETATM   27  C   UNL     1      38.927 -14.621  -2.837  1.00  0.00     0.005 C 
HETATM   28  C   UNL     1      38.127 -13.535  -2.093  1.00  0.00     0.032 C 
ENDBRANCH  24  25
ENDBRANCH  20  24
ENDBRANCH   2  18
TORSDOF 6
ENDMDL
MODEL 8
REMARK VINA RESULT:      -7.4      1.984      2.418
REMARK  6 active torsions:
REMARK  status: ('A' for Active; 'I' for Inactive)
REMARK    1  A    between atoms: C_2  and  C_3 
REMARK       I    between atoms: C_3  and  N_4 
REMARK    2  A    between atoms: N_4  and  C_5 
REMARK    3  A    between atoms: C_7  and  N_8 
REMARK       I    between atoms: N_8  and  C_9 
REMARK    4  A    between atoms: C_9  and  C_10 
REMARK    5  A    between atoms: C_12  and  O_13 
REMARK    6  A    between atoms: O_13  and  C_14 
ROOT
HETATM    1  N   UNL     1      43.780 -10.668   6.850  1.00  0.00    -0.322 N 
HETATM    2  C   UNL     1      43.755 -12.010   6.509  1.00  0.00     0.256 C 
HETATM    3  O   UNL     1      44.103 -12.931   7.242  1.00  0.00    -0.267 OA
HETATM    4  H   UNL     1      43.718  -9.983   6.115  1.00  0.00     0.169 HD
ENDROOT
BRANCH   1   5
HETATM    5  C   UNL     1      43.926 -10.150   8.164  1.00  0.00     0.043 A 
HETATM    6  C   UNL     1      42.807  -9.772   8.930  1.00  0.00     0.059 A 
HETATM    7  C   UNL     1      42.948  -9.192  10.192  1.00  0.00     0.036 A 
HETATM    8  C   UNL     1      44.232  -9.014  10.710  1.00  0.00     0.030 A 
HETATM    9  C   UNL     1      45.353  -9.378   9.963  1.00  0.00     0.011 A 
HETATM   10  C   UNL     1      45.218  -9.945   8.686  1.00  0.00    -0.035 A 
HETATM   11  C   UNL     1      46.467 -10.302   7.929  1.00  0.00     0.050 C 
BRANCH   7  12
HETATM   12  N   UNL     1      41.865  -8.762  10.991  1.00  0.00    -0.327 N 
HETATM   13  C   UNL     1      41.450  -9.285  12.202  1.00  0.00     0.221 C 
HETATM   14  O   UNL     1      41.895 -10.281  12.765  1.00  0.00    -0.273 OA
HETATM   15  H   UNL     1      41.295  -8.025  10.598  1.00  0.00     0.169 HD
BRANCH  13  16
HETATM   16  C   UNL     1      40.275  -8.532  12.803  1.00  0.00     0.098 C 
HETATM   17  C   UNL     1      39.443  -7.810  11.759  1.00  0.00     0.014 C 
ENDBRANCH  13  16
ENDBRANCH   7  12
ENDBRANCH   1   5
BRANCH   2  18
HETATM   18  C   UNL     1      43.281 -12.367   5.139  1.00  0.00     0.037 A 
HETATM   19  C   UNL     1      42.891 -13.649   4.751  1.00  0.00     0.075 A 
HETATM   20  C   UNL     1      42.509 -13.832   3.432  1.00  0.00     0.165 A 
HETATM   21  N   UNL     1      42.484 -12.857   2.503  1.00  0.00    -0.237 NA
HETATM   22  C   UNL     1      42.852 -11.626   2.903  1.00  0.00     0.120 A 
HETATM   23  C   UNL     1      43.253 -11.336   4.193  1.00  0.00     0.036 A 
BRANCH  20  24
HETATM   24  O   UNL     1      42.131 -15.112   3.067  1.00  0.00    -0.329 OA
BRANCH  24  25
HETATM   25  C   UNL     1      43.195 -16.088   3.008  1.00  0.00     0.130 C 
HETATM   26  C   UNL     1      43.037 -17.249   1.989  1.00  0.00     0.032 C 
HETATM   27  C   UNL     1      43.642 -18.181   3.053  1.00  0.00     0.005 C 
HETATM   28  C   UNL     1      43.146 -17.178   4.111  1.00  0.00     0.032 C 
ENDBRANCH  24  25
ENDBRANCH  20  24
ENDBRANCH   2  18
TORSDOF 6
ENDMDL
MODEL 9
REMARK VINA RESULT:      -7.4      1.863      9.269
REMARK  6 active torsions:
REMARK  status: ('A' for Active; 'I' for Inactive)
REMARK    1  A    between atoms: C_2  and  C_3 
REMARK       I    between atoms: C_3  and  N_4 
REMARK    2  A    between atoms: N_4  and  C_5 
REMARK    3  A    between atoms: C_7  and  N_8 
REMARK       I    between atoms: N_8  and  C_9 
REMARK    4  A    between atoms: C_9  and  C_10 
REMARK    5  A    between atoms: C_12  and  O_13 
REMARK    6  A    between atoms: O_13  and  C_14 
ROOT
HETATM    1  N   UNL     1      42.739 -11.826   6.801  1.00  0.00    -0.322 N 
HETATM    2  C   UNL     1      43.844 -11.405   7.522  1.00  0.00     0.256 C 
HETATM    3  O   UNL     1      44.958 -11.916   7.468  1.00  0.00    -0.267 OA
HETATM    4  H   UNL     1      41.827 -11.517   7.092  1.00  0.00     0.169 HD
ENDROOT
BRANCH   1   5
HETATM    5  C   UNL     1      42.764 -12.705   5.685  1.00  0.00     0.043 A 
HETATM    6  C   UNL     1      42.830 -14.100   5.854  1.00  0.00     0.059 A 
HETATM    7  C   UNL     1      42.931 -14.964   4.762  1.00  0.00     0.036 A 
HETATM    8  C   UNL     1      42.937 -14.424   3.476  1.00  0.00     0.030 A 
HETATM    9  C   UNL     1      42.877 -13.042   3.288  1.00  0.00     0.011 A 
HETATM   10  C   UNL     1      42.794 -12.167   4.384  1.00  0.00    -0.035 A 
HETATM   11  C   UNL     1      42.746 -10.689   4.113  1.00  0.00     0.050 C 
BRANCH   7  12
HETATM   12  N   UNL     1      43.036 -16.369   4.871  1.00  0.00    -0.327 N 
HETATM   13  C   UNL     1      44.057 -17.096   5.457  1.00  0.00     0.221 C 
HETATM   14  O   UNL     1      45.107 -16.653   5.913  1.00  0.00    -0.273 OA
HETATM   15  H   UNL     1      42.307 -16.902   4.414  1.00  0.00     0.169 HD
BRANCH  13  16
HETATM   16  C   UNL     1      43.807 -18.594   5.437  1.00  0.00     0.098 C 
HETATM   17  C   UNL     1      43.352 -19.133   6.782  1.00  0.00     0.014 C 
ENDBRANCH  13  16
ENDBRANCH   7  12
ENDBRANCH   1   5
BRANCH   2  18
HETATM   18  C   UNL     1      43.665 -10.249   8.449  1.00  0.00     0.037 A 
HETATM   19  C   UNL     1      43.761 -10.331   9.838  1.00  0.00     0.075 A 
HETATM   20  C   UNL     1      43.534  -9.176  10.568  1.00  0.00     0.165 A 
HETATM   21  N   UNL     1      43.231  -7.980  10.027  1.00  0.00    -0.237 NA
HETATM   22  C   UNL     1      43.155  -7.921   8.685  1.00  0.00     0.120 A 
HETATM   23  C   UNL     1      43.361  -9.013   7.865  1.00  0.00     0.036 A 
BRANCH  20  24
HETATM   24  O   UNL     1      43.630  -9.281  11.944  1.00  0.00    -0.329 OA
BRANCH  24  25
HETATM   25  C   UNL     1      42.712  -8.460  12.701  1.00  0.00     0.130 C 
HETATM   26  C   UNL     1      43.330  -7.429  13.684  1.00  0.00     0.032 C 
HETATM   27  C   UNL     1      42.199  -7.782  14.665  1.00  0.00     0.005 C 
HETATM   28  C   UNL     1      42.103  -9.144  13.954  1.00  0.00     0.032 C 
ENDBRANCH  24  25
ENDBRANCH  20  24
ENDBRANCH   2  18
TORSDOF 6
ENDMDL
MODEL 10
REMARK VINA RESULT:      -7.3      7.163     10.717
REMARK  6 active torsions:
REMARK  status: ('A' for Active; 'I' for Inactive)
REMARK    1  A    between atoms: C_2  and  C_3 
REMARK       I    between atoms: C_3  and  N_4 
REMARK    2  A    between atoms: N_4  and  C_5 
REMARK    3  A    between atoms: C_7  and  N_8 
REMARK       I    between atoms: N_8  and  C_9 
REMARK    4  A    between atoms: C_9  and  C_10 
REMARK    5  A    between atoms: C_12  and  O_13 
REMARK    6  A    between atoms: O_13  and  C_14 
ROOT
HETATM    1  N   UNL     1      41.200 -13.384   0.392  1.00  0.00    -0.322 N 
HETATM    2  C   UNL     1      40.353 -13.385  -0.704  1.00  0.00     0.256 C 
HETATM    3  O   UNL     1      39.649 -14.330  -1.050  1.00  0.00    -0.267 OA
HETATM    4  H   UNL     1      41.911 -12.674   0.451  1.00  0.00     0.169 HD
ENDROOT
BRANCH   1   5
HETATM    5  C   UNL     1      41.188 -14.331   1.450  1.00  0.00     0.043 A 
HETATM    6  C   UNL     1      41.951 -15.512   1.382  1.00  0.00     0.059 A 
HETATM    7  C   UNL     1      41.884 -16.483   2.385  1.00  0.00     0.036 A 
HETATM    8  C   UNL     1      41.062 -16.254   3.488  1.00  0.00     0.030 A 
HETATM    9  C   UNL     1      40.295 -15.091   3.570  1.00  0.00     0.011 A 
HETATM   10  C   UNL     1      40.343 -14.120   2.557  1.00  0.00    -0.035 A 
HETATM   11  C   UNL     1      39.482 -12.896   2.701  1.00  0.00     0.050 C 
BRANCH   7  12
HETATM   12  N   UNL     1      42.599 -17.701   2.354  1.00  0.00    -0.327 N 
HETATM   13  C   UNL     1      43.559 -18.139   3.249  1.00  0.00     0.221 C 
HETATM   14  O   UNL     1      44.031 -17.506   4.189  1.00  0.00    -0.273 OA
HETATM   15  H   UNL     1      42.428 -18.291   1.550  1.00  0.00     0.169 HD
BRANCH  13  16
HETATM   16  C   UNL     1      44.078 -19.531   2.929  1.00  0.00     0.098 C 
HETATM   17  C   UNL     1      43.247 -20.241   1.877  1.00  0.00     0.014 C 
ENDBRANCH  13  16
ENDBRANCH   7  12
ENDBRANCH   1   5
BRANCH   2  18
HETATM   18  C   UNL     1      40.300 -12.150  -1.539  1.00  0.00     0.037 A 
HETATM   19  C   UNL     1      41.221 -11.105  -1.459  1.00  0.00     0.075 A 
HETATM   20  C   UNL     1      41.019 -10.005  -2.276  1.00  0.00     0.165 A 
HETATM   21  N   UNL     1      39.997  -9.879  -3.145  1.00  0.00    -0.237 NA
HETATM   22  C   UNL     1      39.128 -10.904  -3.215  1.00  0.00     0.120 A 
HETATM   23  C   UNL     1      39.237 -12.044  -2.444  1.00  0.00     0.036 A 
BRANCH  20  24
HETATM   24  O   UNL     1      41.941  -8.979  -2.176  1.00  0.00    -0.329 OA
BRANCH  24  25
HETATM   25  C   UNL     1      41.665  -7.808  -2.978  1.00  0.00     0.130 C 
HETATM   26  C   UNL     1      42.762  -7.364  -3.984  1.00  0.00     0.032 C 
HETATM   27  C   UNL     1      42.429  -5.910  -3.606  1.00  0.00     0.005 C 
HETATM   28  C   UNL     1      41.908  -6.453  -2.263  1.00  0.00     0.032 C 
ENDBRANCH  24  25
ENDBRANCH  20  24
ENDBRANCH   2  18
TORSDOF 6
ENDMDL
