MODEL 1
REMARK VINA RESULT:      -9.0      0.000      0.000
REMARK  7 active torsions:
REMARK  status: ('A' for Active; 'I' for Inactive)
REMARK    1  A    between atoms: O_2  and  C_3 
REMARK    2  A    between atoms: C_4  and  C_5 
REMARK       I    between atoms: C_5  and  N_6 
REMARK    3  A    between atoms: N_6  and  C_7 
REMARK    4  A    between atoms: C_7  and  N_8 
REMARK    5  A    between atoms: N_8  and  C_9 
REMARK    6  A    between atoms: C_10  and  N_11 
REMARK       I    between atoms: N_14  and  C_15 
REMARK    7  A    between atoms: C_15  and  C_16 
ROOT
HETATM    1  C   UNL     1      41.396 -13.191   3.987  1.00  0.00     0.060 A 
HETATM    2  C   UNL     1      42.119 -11.976   3.991  1.00  0.00     0.057 A 
HETATM    3  C   UNL     1      42.259 -11.296   2.774  1.00  0.00     0.031 A 
HETATM    4  C   UNL     1      41.703 -11.808   1.597  1.00  0.00     0.002 A 
HETATM    5  C   UNL     1      41.003 -13.012   1.613  1.00  0.00     0.002 A 
HETATM    6  C   UNL     1      40.847 -13.709   2.811  1.00  0.00     0.032 A 
ENDROOT
BRANCH   1   7
HETATM    7  N   UNL     1      41.255 -13.885   5.212  1.00  0.00    -0.336 N 
HETATM    8  H   UNL     1      41.243 -13.277   6.021  1.00  0.00     0.168 HD
BRANCH   7   9
HETATM    9  C   UNL     1      41.812 -15.094   5.556  1.00  0.00     0.157 C 
HETATM   10  S   UNL     1      40.765 -16.251   6.165  1.00  0.00    -0.047 SA
BRANCH   9  11
HETATM   11  N   UNL     1      43.186 -15.179   5.449  1.00  0.00    -0.201 NA
HETATM   12  C   UNL     1      43.935 -16.321   5.688  1.00  0.00     0.240 C 
HETATM   13  O   UNL     1      44.670 -16.333   6.671  1.00  0.00    -0.274 OA
HETATM   14  H   UNL     1      43.593 -14.450   6.022  1.00  0.00     0.139 HD
BRANCH  12  15
HETATM   15  C   UNL     1      43.886 -17.448   4.714  1.00  0.00     0.060 A 
HETATM   16  C   UNL     1      43.661 -17.214   3.348  1.00  0.00     0.083 A 
HETATM   17  C   UNL     1      43.516 -18.284   2.459  1.00  0.00     0.038 A 
HETATM   18  C   UNL     1      43.634 -19.594   2.917  1.00  0.00     0.003 A 
HETATM   19  C   UNL     1      43.884 -19.839   4.266  1.00  0.00     0.001 A 
HETATM   20  C   UNL     1      44.000 -18.774   5.163  1.00  0.00     0.019 A 
BRANCH  16  21
HETATM   21  O   UNL     1      43.498 -15.952   2.839  1.00  0.00    -0.355 OA
HETATM   22  C   UNL     1      43.304 -16.003   1.425  1.00  0.00     0.210 C 
ENDBRANCH  16  21
ENDBRANCH  12  15
ENDBRANCH   9  11
ENDBRANCH   7   9
ENDBRANCH   1   7
BRANCH   2  23
HETATM   23  N   UNL     1      42.782 -11.586   5.159  1.00  0.00    -0.376 N 
HETATM   24  C   UNL     1      42.161 -10.508   5.951  1.00  0.00     0.143 C 
HETATM   25  C   UNL     1      42.699 -10.603   7.401  1.00  0.00     0.146 C 
HETATM   26  N   UNL     1      44.173 -10.586   7.424  1.00  0.00    -0.345 N 
HETATM   27  C   UNL     1      44.942  -9.642   8.088  1.00  0.00     0.253 C 
HETATM   28  C   UNL     1      44.826 -11.539   6.516  1.00  0.00     0.146 C 
HETATM   29  O   UNL     1      46.101  -9.378   7.793  1.00  0.00    -0.267 OA
HETATM   30  C   UNL     1      44.256 -11.459   5.090  1.00  0.00     0.143 C 
BRANCH  27  31
HETATM   31  C   UNL     1      44.337  -8.952   9.246  1.00  0.00     0.032 A 
HETATM   32  C   UNL     1      43.700  -7.717   9.065  1.00  0.00     0.017 A 
HETATM   33  C   UNL     1      43.107  -7.082  10.155  1.00  0.00     0.001 A 
HETATM   34  C   UNL     1      43.146  -7.680  11.415  1.00  0.00     0.000 A 
HETATM   35  C   UNL     1      43.768  -8.921  11.588  1.00  0.00     0.001 A 
HETATM   36  C   UNL     1      44.358  -9.565  10.500  1.00  0.00     0.017 A 
ENDBRANCH  27  31
ENDBRANCH   2  23
TORSDOF 7
ENDMDL
MODEL 2
REMARK VINA RESULT:      -8.9      2.791      7.166
REMARK  7 active torsions:
REMARK  status: ('A' for Active; 'I' for Inactive)
REMARK    1  A    between atoms: O_2  and  C_3 
REMARK    2  A    between atoms: C_4  and  C_5 
REMARK       I    between atoms: C_5  and  N_6 
REMARK    3  A    between atoms: N_6  and  C_7 
REMARK    4  A    between atoms: C_7  and  N_8 
REMARK    5  A    between atoms: N_8  and  C_9 
REMARK    6  A    between atoms: C_10  and  N_11 
REMARK       I    between atoms: N_14  and  C_15 
REMARK    7  A    between atoms: C_15  and  C_16 
ROOT
HETATM    1  C   UNL     1      43.156 -13.483   5.654  1.00  0.00     0.060 A 
HETATM    2  C   UNL     1      42.473 -12.383   5.083  1.00  0.00     0.057 A 
HETATM    3  C   UNL     1      42.520 -11.160   5.765  1.00  0.00     0.031 A 
HETATM    4  C   UNL     1      43.216 -11.037   6.972  1.00  0.00     0.002 A 
HETATM    5  C   UNL     1      43.874 -12.135   7.522  1.00  0.00     0.002 A 
HETATM    6  C   UNL     1      43.846 -13.363   6.863  1.00  0.00     0.032 A 
ENDROOT
BRANCH   1   7
HETATM    7  N   UNL     1      43.109 -14.721   4.973  1.00  0.00    -0.336 N 
HETATM    8  H   UNL     1      43.823 -14.817   4.261  1.00  0.00     0.168 HD
BRANCH   7   9
HETATM    9  C   UNL     1      41.990 -15.426   4.597  1.00  0.00     0.157 C 
HETATM   10  S   UNL     1      40.862 -15.732   5.798  1.00  0.00    -0.047 SA
BRANCH   9  11
HETATM   11  N   UNL     1      41.973 -15.883   3.294  1.00  0.00    -0.201 NA
HETATM   12  C   UNL     1      43.009 -16.567   2.675  1.00  0.00     0.240 C 
HETATM   13  O   UNL     1      43.617 -15.998   1.773  1.00  0.00    -0.274 OA
HETATM   14  H   UNL     1      41.750 -15.103   2.688  1.00  0.00     0.139 HD
BRANCH  12  15
HETATM   15  C   UNL     1      43.293 -17.977   3.063  1.00  0.00     0.060 A 
HETATM   16  C   UNL     1      43.912 -18.279   4.287  1.00  0.00     0.083 A 
HETATM   17  C   UNL     1      44.264 -19.597   4.597  1.00  0.00     0.038 A 
HETATM   18  C   UNL     1      43.968 -20.628   3.709  1.00  0.00     0.003 A 
HETATM   19  C   UNL     1      43.330 -20.344   2.502  1.00  0.00     0.001 A 
HETATM   20  C   UNL     1      43.002 -19.026   2.175  1.00  0.00     0.019 A 
BRANCH  16  21
HETATM   21  O   UNL     1      44.265 -17.309   5.188  1.00  0.00    -0.355 OA
HETATM   22  C   UNL     1      43.884 -17.690   6.510  1.00  0.00     0.210 C 
ENDBRANCH  16  21
ENDBRANCH  12  15
ENDBRANCH   9  11
ENDBRANCH   7   9
ENDBRANCH   1   7
BRANCH   2  23
HETATM   23  N   UNL     1      41.668 -12.595   3.959  1.00  0.00    -0.376 N 
HETATM   24  C   UNL     1      42.238 -12.226   2.650  1.00  0.00     0.143 C 
HETATM   25  C   UNL     1      41.476 -13.011   1.553  1.00  0.00     0.146 C 
HETATM   26  N   UNL     1      40.021 -12.790   1.654  1.00  0.00    -0.345 N 
HETATM   27  C   UNL     1      39.232 -12.255   0.647  1.00  0.00     0.253 C 
HETATM   28  C   UNL     1      39.447 -12.988   2.992  1.00  0.00     0.146 C 
HETATM   29  O   UNL     1      38.156 -11.704   0.845  1.00  0.00    -0.267 OA
HETATM   30  C   UNL     1      40.237 -12.233   4.075  1.00  0.00     0.143 C 
BRANCH  27  31
HETATM   31  C   UNL     1      39.700 -12.403  -0.747  1.00  0.00     0.032 A 
HETATM   32  C   UNL     1      40.285 -11.311  -1.404  1.00  0.00     0.017 A 
HETATM   33  C   UNL     1      40.750 -11.461  -2.709  1.00  0.00     0.001 A 
HETATM   34  C   UNL     1      40.635 -12.696  -3.351  1.00  0.00     0.000 A 
HETATM   35  C   UNL     1      40.067 -13.787  -2.686  1.00  0.00     0.001 A 
HETATM   36  C   UNL     1      39.606 -13.645  -1.377  1.00  0.00     0.017 A 
ENDBRANCH  27  31
ENDBRANCH   2  23
TORSDOF 7
ENDMDL
MODEL 3
REMARK VINA RESULT:      -8.9      1.657      2.280
REMARK  7 active torsions:
REMARK  status: ('A' for Active; 'I' for Inactive)
REMARK    1  A    between atoms: O_2  and  C_3 
REMARK    2  A    between atoms: C_4  and  C_5 
REMARK       I    between atoms: C_5  and  N_6 
REMARK    3  A    between atoms: N_6  and  C_7 
REMARK    4  A    between atoms: C_7  and  N_8 
REMARK    5  A    between atoms: N_8  and  C_9 
REMARK    6  A    between atoms: C_10  and  N_11 
REMARK       I    between atoms: N_14  and  C_15 
REMARK    7  A    between atoms: C_15  and  C_16 
ROOT
HETATM    1  C   UNL     1      40.144 -12.370   5.318  1.00  0.00     0.060 A 
HETATM    2  C   UNL     1      40.526 -11.009   5.378  1.00  0.00     0.057 A 
HETATM    3  C   UNL     1      40.182 -10.186   4.299  1.00  0.00     0.031 A 
HETATM    4  C   UNL     1      39.488 -10.698   3.198  1.00  0.00     0.002 A 
HETATM    5  C   UNL     1      39.129 -12.044   3.153  1.00  0.00     0.002 A 
HETATM    6  C   UNL     1      39.457 -12.885   4.216  1.00  0.00     0.032 A 
ENDROOT
BRANCH   1   7
HETATM    7  N   UNL     1      40.493 -13.207   6.403  1.00  0.00    -0.336 N 
HETATM    8  H   UNL     1      40.771 -12.698   7.233  1.00  0.00     0.168 HD
BRANCH   7   9
HETATM    9  C   UNL     1      41.168 -14.404   6.352  1.00  0.00     0.157 C 
HETATM   10  S   UNL     1      40.252 -15.789   6.574  1.00  0.00    -0.047 SA
BRANCH   9  11
HETATM   11  N   UNL     1      42.540 -14.318   6.219  1.00  0.00    -0.201 NA
HETATM   12  C   UNL     1      43.352 -15.301   5.673  1.00  0.00     0.240 C 
HETATM   13  O   UNL     1      44.121 -15.895   6.423  1.00  0.00    -0.274 OA
HETATM   14  H   UNL     1      42.933 -14.102   7.127  1.00  0.00     0.139 HD
BRANCH  12  15
HETATM   15  C   UNL     1      43.321 -15.545   4.203  1.00  0.00     0.060 A 
HETATM   16  C   UNL     1      43.226 -14.477   3.296  1.00  0.00     0.083 A 
HETATM   17  C   UNL     1      43.097 -14.721   1.925  1.00  0.00     0.038 A 
HETATM   18  C   UNL     1      43.101 -16.029   1.444  1.00  0.00     0.003 A 
HETATM   19  C   UNL     1      43.221 -17.096   2.332  1.00  0.00     0.001 A 
HETATM   20  C   UNL     1      43.321 -16.858   3.705  1.00  0.00     0.019 A 
BRANCH  16  21
HETATM   21  O   UNL     1      43.179 -13.171   3.705  1.00  0.00    -0.355 OA
HETATM   22  C   UNL     1      42.801 -12.319   2.623  1.00  0.00     0.210 C 
ENDBRANCH  16  21
ENDBRANCH  12  15
ENDBRANCH   9  11
ENDBRANCH   7   9
ENDBRANCH   1   7
BRANCH   2  23
HETATM   23  N   UNL     1      41.349 -10.583   6.426  1.00  0.00    -0.376 N 
HETATM   24  C   UNL     1      40.796  -9.564   7.338  1.00  0.00     0.143 C 
HETATM   25  C   UNL     1      41.579  -9.634   8.673  1.00  0.00     0.146 C 
HETATM   26  N   UNL     1      43.030  -9.506   8.446  1.00  0.00    -0.345 N 
HETATM   27  C   UNL     1      43.831  -8.514   8.991  1.00  0.00     0.253 C 
HETATM   28  C   UNL     1      43.586 -10.397   7.417  1.00  0.00     0.146 C 
HETATM   29  O   UNL     1      44.900  -8.160   8.510  1.00  0.00    -0.267 OA
HETATM   30  C   UNL     1      42.776 -10.345   6.111  1.00  0.00     0.143 C 
BRANCH  27  31
HETATM   31  C   UNL     1      43.384  -7.884  10.252  1.00  0.00     0.032 A 
HETATM   32  C   UNL     1      42.703  -6.660  10.214  1.00  0.00     0.017 A 
HETATM   33  C   UNL     1      42.259  -6.082  11.402  1.00  0.00     0.001 A 
HETATM   34  C   UNL     1      42.491  -6.727  12.618  1.00  0.00     0.000 A 
HETATM   35  C   UNL     1      43.156  -7.956  12.650  1.00  0.00     0.001 A 
HETATM   36  C   UNL     1      43.597  -8.543  11.463  1.00  0.00     0.017 A 
ENDBRANCH  27  31
ENDBRANCH   2  23
TORSDOF 7
ENDMDL
MODEL 4
REMARK VINA RESULT:      -8.8      2.243      9.101
REMARK  7 active torsions:
REMARK  status: ('A' for Active; 'I' for Inactive)
REMARK    1  A    between atoms: O_2  and  C_3 
REMARK    2  A    between atoms: C_4  and  C_5 
REMARK       I    between atoms: C_5  and  N_6 
REMARK    3  A    between atoms: N_6  and  C_7 
REMARK    4  A    between atoms: C_7  and  N_8 
REMARK    5  A    between atoms: N_8  and  C_9 
REMARK    6  A    between atoms: C_10  and  N_11 
REMARK       I    between atoms: N_14  and  C_15 
REMARK    7  A    between atoms: C_15  and  C_16 
ROOT
HETATM    1  C   UNL     1      42.118 -10.067   6.643  1.00  0.00     0.060 A 
HETATM    2  C   UNL     1      41.719 -10.725   5.456  1.00  0.00     0.057 A 
HETATM    3  C   UNL     1      41.212  -9.940   4.413  1.00  0.00     0.031 A 
HETATM    4  C   UNL     1      41.102  -8.552   4.547  1.00  0.00     0.002 A 
HETATM    5  C   UNL     1      41.491  -7.924   5.728  1.00  0.00     0.002 A 
HETATM    6  C   UNL     1      42.001  -8.682   6.781  1.00  0.00     0.032 A 
ENDROOT
BRANCH   1   7
HETATM    7  N   UNL     1      42.627 -10.855   7.701  1.00  0.00    -0.336 N 
HETATM    8  H   UNL     1      42.008 -10.904   8.502  1.00  0.00     0.168 HD
BRANCH   7   9
HETATM    9  C   UNL     1      43.931 -10.943   8.126  1.00  0.00     0.157 C 
HETATM   10  S   UNL     1      45.061 -11.401   6.977  1.00  0.00    -0.047 SA
BRANCH   9  11
HETATM   11  N   UNL     1      44.143 -10.735   9.475  1.00  0.00    -0.201 NA
HETATM   12  C   UNL     1      44.549  -9.536  10.043  1.00  0.00     0.240 C 
HETATM   13  O   UNL     1      45.675  -9.480  10.529  1.00  0.00    -0.274 OA
HETATM   14  H   UNL     1      44.795 -11.437   9.804  1.00  0.00     0.139 HD
BRANCH  12  15
HETATM   15  C   UNL     1      43.590  -8.398  10.117  1.00  0.00     0.060 A 
HETATM   16  C   UNL     1      42.380  -8.517  10.820  1.00  0.00     0.083 A 
HETATM   17  C   UNL     1      41.443  -7.479  10.799  1.00  0.00     0.038 A 
HETATM   18  C   UNL     1      41.720  -6.300  10.110  1.00  0.00     0.003 A 
HETATM   19  C   UNL     1      42.929  -6.160   9.430  1.00  0.00     0.001 A 
HETATM   20  C   UNL     1      43.856  -7.205   9.424  1.00  0.00     0.019 A 
BRANCH  16  21
HETATM   21  O   UNL     1      42.029  -9.661  11.485  1.00  0.00    -0.355 OA
HETATM   22  C   UNL     1      40.611  -9.827  11.487  1.00  0.00     0.210 C 
ENDBRANCH  16  21
ENDBRANCH  12  15
ENDBRANCH   9  11
ENDBRANCH   7   9
ENDBRANCH   1   7
BRANCH   2  23
HETATM   23  N   UNL     1      41.707 -12.124   5.429  1.00  0.00    -0.376 N 
HETATM   24  C   UNL     1      42.603 -12.781   4.459  1.00  0.00     0.143 C 
HETATM   25  C   UNL     1      42.853 -14.232   4.941  1.00  0.00     0.146 C 
HETATM   26  N   UNL     1      41.582 -14.948   5.158  1.00  0.00    -0.345 N 
HETATM   27  C   UNL     1      41.211 -16.114   4.507  1.00  0.00     0.253 C 
HETATM   28  C   UNL     1      40.597 -14.240   5.987  1.00  0.00     0.146 C 
HETATM   29  O   UNL     1      40.049 -16.478   4.369  1.00  0.00    -0.267 OA
HETATM   30  C   UNL     1      40.388 -12.790   5.521  1.00  0.00     0.143 C 
BRANCH  27  31
HETATM   31  C   UNL     1      42.286 -16.987   3.991  1.00  0.00     0.032 A 
HETATM   32  C   UNL     1      43.228 -17.529   4.877  1.00  0.00     0.017 A 
HETATM   33  C   UNL     1      44.224 -18.374   4.391  1.00  0.00     0.001 A 
HETATM   34  C   UNL     1      44.275 -18.678   3.030  1.00  0.00     0.000 A 
HETATM   35  C   UNL     1      43.324 -18.149   2.152  1.00  0.00     0.001 A 
HETATM   36  C   UNL     1      42.320 -17.308   2.633  1.00  0.00     0.017 A 
ENDBRANCH  27  31
ENDBRANCH   2  23
TORSDOF 7
ENDMDL
MODEL 5
REMARK VINA RESULT:      -8.7      2.170      3.024
REMARK  7 active torsions:
REMARK  status: ('A' for Active; 'I' for Inactive)
REMARK    1  A    between atoms: O_2  and  C_3 
REMARK    2  A    between atoms: C_4  and  C_5 
REMARK       I    between atoms: C_5  and  N_6 
REMARK    3  A    between atoms: N_6  and  C_7 
REMARK    4  A    between atoms: C_7  and  N_8 
REMARK    5  A    between atoms: N_8  and  C_9 
REMARK    6  A    between atoms: C_10  and  N_11 
REMARK       I    between atoms: N_14  and  C_15 
REMARK    7  A    between atoms: C_15  and  C_16 
ROOT
HETATM    1  C   UNL     1      40.253 -12.121   5.647  1.00  0.00     0.060 A 
HETATM    2  C   UNL     1      40.375 -10.721   5.806  1.00  0.00     0.057 A 
HETATM    3  C   UNL     1      39.765  -9.899   4.850  1.00  0.00     0.031 A 
HETATM    4  C   UNL     1      39.063 -10.449   3.774  1.00  0.00     0.002 A 
HETATM    5  C   UNL     1      38.962 -11.831   3.629  1.00  0.00     0.002 A 
HETATM    6  C   UNL     1      39.558 -12.672   4.567  1.00  0.00     0.032 A 
ENDROOT
BRANCH   1   7
HETATM    7  N   UNL     1      40.871 -12.956   6.606  1.00  0.00    -0.336 N 
HETATM    8  H   UNL     1      40.971 -12.521   7.515  1.00  0.00     0.168 HD
BRANCH   7   9
HETATM    9  C   UNL     1      41.907 -13.837   6.404  1.00  0.00     0.157 C 
HETATM   10  S   UNL     1      43.319 -13.197   5.770  1.00  0.00    -0.047 SA
BRANCH   9  11
HETATM   11  N   UNL     1      41.628 -15.166   6.658  1.00  0.00    -0.201 NA
HETATM   12  C   UNL     1      40.963 -16.021   5.792  1.00  0.00     0.240 C 
HETATM   13  O   UNL     1      39.842 -16.406   6.110  1.00  0.00    -0.274 OA
HETATM   14  H   UNL     1      41.136 -15.222   7.541  1.00  0.00     0.139 HD
BRANCH  12  15
HETATM   15  C   UNL     1      41.653 -16.501   4.562  1.00  0.00     0.060 A 
HETATM   16  C   UNL     1      42.867 -17.203   4.641  1.00  0.00     0.083 A 
HETATM   17  C   UNL     1      43.556 -17.561   3.478  1.00  0.00     0.038 A 
HETATM   18  C   UNL     1      43.023 -17.256   2.227  1.00  0.00     0.003 A 
HETATM   19  C   UNL     1      41.806 -16.583   2.135  1.00  0.00     0.001 A 
HETATM   20  C   UNL     1      41.128 -16.198   3.294  1.00  0.00     0.019 A 
BRANCH  16  21
HETATM   21  O   UNL     1      43.464 -17.500   5.837  1.00  0.00    -0.355 OA
HETATM   22  C   UNL     1      44.684 -16.772   5.984  1.00  0.00     0.210 C 
ENDBRANCH  16  21
ENDBRANCH  12  15
ENDBRANCH   9  11
ENDBRANCH   7   9
ENDBRANCH   1   7
BRANCH   2  23
HETATM   23  N   UNL     1      41.214 -10.224   6.810  1.00  0.00    -0.376 N 
HETATM   24  C   UNL     1      40.578  -9.429   7.878  1.00  0.00     0.143 C 
HETATM   25  C   UNL     1      41.511  -9.450   9.115  1.00  0.00     0.146 C 
HETATM   26  N   UNL     1      42.870  -8.999   8.764  1.00  0.00    -0.345 N 
HETATM   27  C   UNL     1      43.514  -7.912   9.336  1.00  0.00     0.253 C 
HETATM   28  C   UNL     1      43.468  -9.658   7.595  1.00  0.00     0.146 C 
HETATM   29  O   UNL     1      44.427  -7.299   8.796  1.00  0.00    -0.267 OA
HETATM   30  C   UNL     1      42.517  -9.663   6.387  1.00  0.00     0.143 C 
BRANCH  27  31
HETATM   31  C   UNL     1      43.102  -7.504  10.696  1.00  0.00     0.032 A 
HETATM   32  C   UNL     1      43.448  -8.301  11.796  1.00  0.00     0.017 A 
HETATM   33  C   UNL     1      43.080  -7.900  13.079  1.00  0.00     0.001 A 
HETATM   34  C   UNL     1      42.377  -6.708  13.260  1.00  0.00     0.000 A 
HETATM   35  C   UNL     1      42.049  -5.908  12.162  1.00  0.00     0.001 A 
HETATM   36  C   UNL     1      42.419  -6.301  10.875  1.00  0.00     0.017 A 
ENDBRANCH  27  31
ENDBRANCH   2  23
TORSDOF 7
ENDMDL
MODEL 6
REMARK VINA RESULT:      -8.7      3.182      9.896
REMARK  7 active torsions:
REMARK  status: ('A' for Active; 'I' for Inactive)
REMARK    1  A    between atoms: O_2  and  C_3 
REMARK    2  A    between atoms: C_4  and  C_5 
REMARK       I    between atoms: C_5  and  N_6 
REMARK    3  A    between atoms: N_6  and  C_7 
REMARK    4  A    between atoms: C_7  and  N_8 
REMARK    5  A    between atoms: N_8  and  C_9 
REMARK    6  A    between atoms: C_10  and  N_11 
REMARK       I    between atoms: N_14  and  C_15 
REMARK    7  A    between atoms: C_15  and  C_16 
ROOT
HETATM    1  C   UNL     1      43.702  -9.846   8.702  1.00  0.00     0.060 A 
HETATM    2  C   UNL     1      44.329 -10.507   7.619  1.00  0.00     0.057 A 
HETATM    3  C   UNL     1      45.698 -10.288   7.425  1.00  0.00     0.031 A 
HETATM    4  C   UNL     1      46.417  -9.441   8.275  1.00  0.00     0.002 A 
HETATM    5  C   UNL     1      45.780  -8.792   9.330  1.00  0.00     0.002 A 
HETATM    6  C   UNL     1      44.417  -8.994   9.547  1.00  0.00     0.032 A 
ENDROOT
BRANCH   1   7
HETATM    7  N   UNL     1      42.318 -10.060   8.900  1.00  0.00    -0.336 N 
HETATM    8  H   UNL     1      41.797 -10.155   8.037  1.00  0.00     0.168 HD
BRANCH   7   9
HETATM    9  C   UNL     1      41.514  -9.493   9.860  1.00  0.00     0.157 C 
HETATM   10  S   UNL     1      40.846  -8.002   9.490  1.00  0.00    -0.047 SA
BRANCH   9  11
HETATM   11  N   UNL     1      41.429 -10.176  11.057  1.00  0.00    -0.201 NA
HETATM   12  C   UNL     1      42.279  -9.998  12.139  1.00  0.00     0.240 C 
HETATM   13  O   UNL     1      43.044 -10.913  12.428  1.00  0.00    -0.274 OA
HETATM   14  H   UNL     1      41.435 -11.168  10.856  1.00  0.00     0.139 HD
BRANCH  12  15
HETATM   15  C   UNL     1      42.179  -8.754  12.953  1.00  0.00     0.060 A 
HETATM   16  C   UNL     1      40.931  -8.259  13.367  1.00  0.00     0.083 A 
HETATM   17  C   UNL     1      40.842  -7.038  14.044  1.00  0.00     0.038 A 
HETATM   18  C   UNL     1      41.997  -6.321  14.348  1.00  0.00     0.003 A 
HETATM   19  C   UNL     1      43.243  -6.815  13.966  1.00  0.00     0.001 A 
HETATM   20  C   UNL     1      43.335  -8.019  13.264  1.00  0.00     0.019 A 
BRANCH  16  21
HETATM   21  O   UNL     1      39.756  -8.895  13.067  1.00  0.00    -0.355 OA
HETATM   22  C   UNL     1      38.753  -7.949  12.695  1.00  0.00     0.210 C 
ENDBRANCH  16  21
ENDBRANCH  12  15
ENDBRANCH   9  11
ENDBRANCH   7   9
ENDBRANCH   1   7
BRANCH   2  23
HETATM   23  N   UNL     1      43.538 -11.219   6.712  1.00  0.00    -0.376 N 
HETATM   24  C   UNL     1      44.166 -12.373   6.041  1.00  0.00     0.143 C 
HETATM   25  C   UNL     1      43.039 -13.313   5.542  1.00  0.00     0.146 C 
HETATM   26  N   UNL     1      42.075 -12.585   4.697  1.00  0.00    -0.345 N 
HETATM   27  C   UNL     1      41.782 -12.902   3.379  1.00  0.00     0.253 C 
HETATM   28  C   UNL     1      41.555 -11.336   5.270  1.00  0.00     0.146 C 
HETATM   29  O   UNL     1      41.322 -12.104   2.572  1.00  0.00    -0.267 OA
HETATM   30  C   UNL     1      42.682 -10.431   5.796  1.00  0.00     0.143 C 
BRANCH  27  31
HETATM   31  C   UNL     1      41.996 -14.298   2.943  1.00  0.00     0.032 A 
HETATM   32  C   UNL     1      43.094 -14.613   2.132  1.00  0.00     0.017 A 
HETATM   33  C   UNL     1      43.309 -15.934   1.744  1.00  0.00     0.001 A 
HETATM   34  C   UNL     1      42.433 -16.935   2.170  1.00  0.00     0.000 A 
HETATM   35  C   UNL     1      41.348 -16.619   2.993  1.00  0.00     0.001 A 
HETATM   36  C   UNL     1      41.132 -15.299   3.390  1.00  0.00     0.017 A 
ENDBRANCH  27  31
ENDBRANCH   2  23
TORSDOF 7
ENDMDL
MODEL 7
REMARK VINA RESULT:      -8.6      3.008      7.075
REMARK  7 active torsions:
REMARK  status: ('A' for Active; 'I' for Inactive)
REMARK    1  A    between atoms: O_2  and  C_3 
REMARK    2  A    between atoms: C_4  and  C_5 
REMARK       I    between atoms: C_5  and  N_6 
REMARK    3  A    between atoms: N_6  and  C_7 
REMARK    4  A    between atoms: C_7  and  N_8 
REMARK    5  A    between atoms: N_8  and  C_9 
REMARK    6  A    between atoms: C_10  and  N_11 
REMARK       I    between atoms: N_14  and  C_15 
REMARK    7  A    between atoms: C_15  and  C_16 
ROOT
HETATM    1  C   UNL     1      42.951 -12.836   6.317  1.00  0.00     0.060 A 
HETATM    2  C   UNL     1      43.220 -12.271   5.049  1.00  0.00     0.057 A 
HETATM    3  C   UNL     1      44.358 -11.464   4.922  1.00  0.00     0.031 A 
HETATM    4  C   UNL     1      45.194 -11.224   6.017  1.00  0.00     0.002 A 
HETATM    5  C   UNL     1      44.906 -11.783   7.261  1.00  0.00     0.002 A 
HETATM    6  C   UNL     1      43.781 -12.592   7.414  1.00  0.00     0.032 A 
ENDROOT
BRANCH   1   7
HETATM    7  N   UNL     1      41.802 -13.649   6.453  1.00  0.00    -0.336 N 
HETATM    8  H   UNL     1      41.100 -13.256   7.068  1.00  0.00     0.168 HD
BRANCH   7   9
HETATM    9  C   UNL     1      41.751 -15.021   6.518  1.00  0.00     0.157 C 
HETATM   10  S   UNL     1      40.227 -15.710   6.601  1.00  0.00    -0.047 SA
BRANCH   9  11
HETATM   11  N   UNL     1      42.969 -15.667   6.605  1.00  0.00    -0.201 NA
HETATM   12  C   UNL     1      43.200 -16.986   6.243  1.00  0.00     0.240 C 
HETATM   13  O   UNL     1      43.452 -17.792   7.133  1.00  0.00    -0.274 OA
HETATM   14  H   UNL     1      43.310 -15.572   7.554  1.00  0.00     0.139 HD
BRANCH  12  15
HETATM   15  C   UNL     1      43.214 -17.358   4.800  1.00  0.00     0.060 A 
HETATM   16  C   UNL     1      43.805 -18.557   4.369  1.00  0.00     0.083 A 
HETATM   17  C   UNL     1      43.902 -18.849   3.004  1.00  0.00     0.038 A 
HETATM   18  C   UNL     1      43.378 -17.968   2.061  1.00  0.00     0.003 A 
HETATM   19  C   UNL     1      42.766 -16.787   2.478  1.00  0.00     0.001 A 
HETATM   20  C   UNL     1      42.692 -16.477   3.838  1.00  0.00     0.019 A 
BRANCH  16  21
HETATM   21  O   UNL     1      44.373 -19.448   5.240  1.00  0.00    -0.355 OA
HETATM   22  C   UNL     1      44.021 -20.787   4.890  1.00  0.00     0.210 C 
ENDBRANCH  16  21
ENDBRANCH  12  15
ENDBRANCH   9  11
ENDBRANCH   7   9
ENDBRANCH   1   7
BRANCH   2  23
HETATM   23  N   UNL     1      42.275 -12.416   4.029  1.00  0.00    -0.376 N 
HETATM   24  C   UNL     1      42.792 -12.595   2.659  1.00  0.00     0.143 C 
HETATM   25  C   UNL     1      41.683 -13.265   1.809  1.00  0.00     0.146 C 
HETATM   26  N   UNL     1      40.425 -12.498   1.875  1.00  0.00    -0.345 N 
HETATM   27  C   UNL     1      39.775 -11.950   0.780  1.00  0.00     0.253 C 
HETATM   28  C   UNL     1      39.969 -12.156   3.229  1.00  0.00     0.146 C 
HETATM   29  O   UNL     1      38.997 -11.006   0.851  1.00  0.00    -0.267 OA
HETATM   30  C   UNL     1      41.091 -11.528   4.073  1.00  0.00     0.143 C 
BRANCH  27  31
HETATM   31  C   UNL     1      40.003 -12.575  -0.540  1.00  0.00     0.032 A 
HETATM   32  C   UNL     1      39.329 -13.757  -0.875  1.00  0.00     0.017 A 
HETATM   33  C   UNL     1      39.525 -14.329  -2.131  1.00  0.00     0.001 A 
HETATM   34  C   UNL     1      40.386 -13.721  -3.046  1.00  0.00     0.000 A 
HETATM   35  C   UNL     1      41.043 -12.532  -2.714  1.00  0.00     0.001 A 
HETATM   36  C   UNL     1      40.846 -11.951  -1.461  1.00  0.00     0.017 A 
ENDBRANCH  27  31
ENDBRANCH   2  23
TORSDOF 7
ENDMDL
MODEL 8
REMARK VINA RESULT:      -8.6      2.993      9.478
REMARK  7 active torsions:
REMARK  status: ('A' for Active; 'I' for Inactive)
REMARK    1  A    between atoms: O_2  and  C_3 
REMARK    2  A    between atoms: C_4  and  C_5 
REMARK       I    between atoms: C_5  and  N_6 
REMARK    3  A    between atoms: N_6  and  C_7 
REMARK    4  A    between atoms: C_7  and  N_8 
REMARK    5  A    between atoms: N_8  and  C_9 
REMARK    6  A    between atoms: C_10  and  N_11 
REMARK       I    between atoms: N_14  and  C_15 
REMARK    7  A    between atoms: C_15  and  C_16 
ROOT
HETATM    1  C   UNL     1      43.257  -9.800   8.325  1.00  0.00     0.060 A 
HETATM    2  C   UNL     1      44.003 -10.565   7.398  1.00  0.00     0.057 A 
HETATM    3  C   UNL     1      45.400 -10.474   7.451  1.00  0.00     0.031 A 
HETATM    4  C   UNL     1      46.031  -9.650   8.389  1.00  0.00     0.002 A 
HETATM    5  C   UNL     1      45.277  -8.897   9.287  1.00  0.00     0.002 A 
HETATM    6  C   UNL     1      43.885  -8.970   9.258  1.00  0.00     0.032 A 
ENDROOT
BRANCH   1   7
HETATM    7  N   UNL     1      41.846  -9.884   8.274  1.00  0.00    -0.336 N 
HETATM    8  H   UNL     1      41.508 -10.672   7.735  1.00  0.00     0.168 HD
BRANCH   7   9
HETATM    9  C   UNL     1      40.950  -8.846   8.179  1.00  0.00     0.157 C 
HETATM   10  S   UNL     1      41.187  -7.768   6.919  1.00  0.00    -0.047 SA
BRANCH   9  11
HETATM   11  N   UNL     1      40.015  -8.761   9.192  1.00  0.00    -0.201 NA
HETATM   12  C   UNL     1      40.119  -9.382  10.428  1.00  0.00     0.240 C 
HETATM   13  O   UNL     1      39.340 -10.297  10.680  1.00  0.00    -0.274 OA
HETATM   14  H   UNL     1      39.115  -9.032   8.815  1.00  0.00     0.139 HD
BRANCH  12  15
HETATM   15  C   UNL     1      41.103  -8.874  11.424  1.00  0.00     0.060 A 
HETATM   16  C   UNL     1      41.344  -7.497  11.564  1.00  0.00     0.083 A 
HETATM   17  C   UNL     1      42.341  -7.036  12.430  1.00  0.00     0.038 A 
HETATM   18  C   UNL     1      43.078  -7.941  13.192  1.00  0.00     0.003 A 
HETATM   19  C   UNL     1      42.830  -9.308  13.081  1.00  0.00     0.001 A 
HETATM   20  C   UNL     1      41.855  -9.774  12.196  1.00  0.00     0.019 A 
BRANCH  16  21
HETATM   21  O   UNL     1      40.682  -6.558  10.818  1.00  0.00    -0.355 OA
HETATM   22  C   UNL     1      41.608  -5.662  10.202  1.00  0.00     0.210 C 
ENDBRANCH  16  21
ENDBRANCH  12  15
ENDBRANCH   9  11
ENDBRANCH   7   9
ENDBRANCH   1   7
BRANCH   2  23
HETATM   23  N   UNL     1      43.325 -11.252   6.386  1.00  0.00    -0.376 N 
HETATM   24  C   UNL     1      43.869 -12.564   5.989  1.00  0.00     0.143 C 
HETATM   25  C   UNL     1      42.735 -13.370   5.307  1.00  0.00     0.146 C 
HETATM   26  N   UNL     1      42.138 -12.610   4.193  1.00  0.00    -0.345 N 
HETATM   27  C   UNL     1      42.102 -13.039   2.875  1.00  0.00     0.253 C 
HETATM   28  C   UNL     1      41.737 -11.234   4.515  1.00  0.00     0.146 C 
HETATM   29  O   UNL     1      41.992 -12.284   1.915  1.00  0.00    -0.267 OA
HETATM   30  C   UNL     1      42.859 -10.459   5.226  1.00  0.00     0.143 C 
BRANCH  27  31
HETATM   31  C   UNL     1      42.153 -14.494   2.621  1.00  0.00     0.032 A 
HETATM   32  C   UNL     1      43.298 -15.060   2.045  1.00  0.00     0.017 A 
HETATM   33  C   UNL     1      43.353 -16.436   1.833  1.00  0.00     0.001 A 
HETATM   34  C   UNL     1      42.273 -17.241   2.198  1.00  0.00     0.000 A 
HETATM   35  C   UNL     1      41.139 -16.674   2.788  1.00  0.00     0.001 A 
HETATM   36  C   UNL     1      41.080 -15.298   3.010  1.00  0.00     0.017 A 
ENDBRANCH  27  31
ENDBRANCH   2  23
TORSDOF 7
ENDMDL
MODEL 9
REMARK VINA RESULT:      -8.5      1.248      2.086
REMARK  7 active torsions:
REMARK  status: ('A' for Active; 'I' for Inactive)
REMARK    1  A    between atoms: O_2  and  C_3 
REMARK    2  A    between atoms: C_4  and  C_5 
REMARK       I    between atoms: C_5  and  N_6 
REMARK    3  A    between atoms: N_6  and  C_7 
REMARK    4  A    between atoms: C_7  and  N_8 
REMARK    5  A    between atoms: N_8  and  C_9 
REMARK    6  A    between atoms: C_10  and  N_11 
REMARK       I    between atoms: N_14  and  C_15 
REMARK    7  A    between atoms: C_15  and  C_16 
ROOT
HETATM    1  C   UNL     1      40.767 -12.840   2.680  1.00  0.00     0.060 A 
HETATM    2  C   UNL     1      41.526 -11.698   3.027  1.00  0.00     0.057 A 
HETATM    3  C   UNL     1      41.746 -10.733   2.036  1.00  0.00     0.031 A 
HETATM    4  C   UNL     1      41.232 -10.900   0.746  1.00  0.00     0.002 A 
HETATM    5  C   UNL     1      40.494 -12.036   0.421  1.00  0.00     0.002 A 
HETATM    6  C   UNL     1      40.259 -13.011   1.389  1.00  0.00     0.032 A 
ENDROOT
BRANCH   1   7
HETATM    7  N   UNL     1      40.545 -13.820   3.675  1.00  0.00    -0.336 N 
HETATM    8  H   UNL     1      40.684 -13.476   4.618  1.00  0.00     0.168 HD
BRANCH   7   9
HETATM    9  C   UNL     1      40.873 -15.154   3.621  1.00  0.00     0.157 C 
HETATM   10  S   UNL     1      40.548 -16.058   4.994  1.00  0.00    -0.047 SA
BRANCH   9  11
HETATM   11  N   UNL     1      41.519 -15.572   2.475  1.00  0.00    -0.201 NA
HETATM   12  C   UNL     1      42.845 -15.974   2.408  1.00  0.00     0.240 C 
HETATM   13  O   UNL     1      43.636 -15.256   1.803  1.00  0.00    -0.274 OA
HETATM   14  H   UNL     1      41.408 -14.854   1.769  1.00  0.00     0.139 HD
BRANCH  12  15
HETATM   15  C   UNL     1      43.244 -17.284   2.995  1.00  0.00     0.060 A 
HETATM   16  C   UNL     1      43.844 -17.356   4.263  1.00  0.00     0.083 A 
HETATM   17  C   UNL     1      44.306 -18.579   4.761  1.00  0.00     0.038 A 
HETATM   18  C   UNL     1      44.139 -19.745   4.017  1.00  0.00     0.003 A 
HETATM   19  C   UNL     1      43.521 -19.691   2.769  1.00  0.00     0.001 A 
HETATM   20  C   UNL     1      43.084 -18.467   2.255  1.00  0.00     0.019 A 
BRANCH  16  21
HETATM   21  O   UNL     1      44.073 -16.244   5.029  1.00  0.00    -0.355 OA
HETATM   22  C   UNL     1      44.350 -16.612   6.380  1.00  0.00     0.210 C 
ENDBRANCH  16  21
ENDBRANCH  12  15
ENDBRANCH   9  11
ENDBRANCH   7   9
ENDBRANCH   1   7
BRANCH   2  23
HETATM   23  N   UNL     1      42.144 -11.652   4.282  1.00  0.00    -0.376 N 
HETATM   24  C   UNL     1      41.992 -10.406   5.056  1.00  0.00     0.143 C 
HETATM   25  C   UNL     1      42.242 -10.732   6.549  1.00  0.00     0.146 C 
HETATM   26  N   UNL     1      43.545 -11.396   6.738  1.00  0.00    -0.345 N 
HETATM   27  C   UNL     1      44.572 -10.909   7.533  1.00  0.00     0.253 C 
HETATM   28  C   UNL     1      43.797 -12.546   5.859  1.00  0.00     0.146 C 
HETATM   29  O   UNL     1      45.750 -11.209   7.384  1.00  0.00    -0.267 OA
HETATM   30  C   UNL     1      43.508 -12.218   4.385  1.00  0.00     0.143 C 
BRANCH  27  31
HETATM   31  C   UNL     1      44.211 -10.013   8.652  1.00  0.00     0.032 A 
HETATM   32  C   UNL     1      44.178  -8.626   8.449  1.00  0.00     0.017 A 
HETATM   33  C   UNL     1      43.811  -7.786   9.498  1.00  0.00     0.001 A 
HETATM   34  C   UNL     1      43.476  -8.329  10.740  1.00  0.00     0.000 A 
HETATM   35  C   UNL     1      43.494  -9.713  10.933  1.00  0.00     0.001 A 
HETATM   36  C   UNL     1      43.854 -10.560   9.884  1.00  0.00     0.017 A 
ENDBRANCH  27  31
ENDBRANCH   2  23
TORSDOF 7
ENDMDL
MODEL 10
REMARK VINA RESULT:      -8.3      3.945      9.916
REMARK  7 active torsions:
REMARK  status: ('A' for Active; 'I' for Inactive)
REMARK    1  A    between atoms: O_2  and  C_3 
REMARK    2  A    between atoms: C_4  and  C_5 
REMARK       I    between atoms: C_5  and  N_6 
REMARK    3  A    between atoms: N_6  and  C_7 
REMARK    4  A    between atoms: C_7  and  N_8 
REMARK    5  A    between atoms: N_8  and  C_9 
REMARK    6  A    between atoms: C_10  and  N_11 
REMARK       I    between atoms: N_14  and  C_15 
REMARK    7  A    between atoms: C_15  and  C_16 
ROOT
HETATM    1  C   UNL     1      42.589  -6.629  11.054  1.00  0.00     0.060 A 
HETATM    2  C   UNL     1      43.078  -7.955  11.105  1.00  0.00     0.057 A 
HETATM    3  C   UNL     1      43.236  -8.545  12.366  1.00  0.00     0.031 A 
HETATM    4  C   UNL     1      42.922  -7.840  13.532  1.00  0.00     0.002 A 
HETATM    5  C   UNL     1      42.451  -6.531  13.461  1.00  0.00     0.002 A 
HETATM    6  C   UNL     1      42.283  -5.920  12.219  1.00  0.00     0.032 A 
ENDROOT
BRANCH   1   7
HETATM    7  N   UNL     1      42.432  -6.026   9.785  1.00  0.00    -0.336 N 
HETATM    8  H   UNL     1      42.688  -5.046   9.768  1.00  0.00     0.168 HD
BRANCH   7   9
HETATM    9  C   UNL     1      41.431  -6.252   8.870  1.00  0.00     0.157 C 
HETATM   10  S   UNL     1      41.913  -6.694   7.328  1.00  0.00    -0.047 SA
BRANCH   9  11
HETATM   11  N   UNL     1      40.145  -5.995   9.306  1.00  0.00    -0.201 NA
HETATM   12  C   UNL     1      39.158  -6.952   9.485  1.00  0.00     0.240 C 
HETATM   13  O   UNL     1      38.197  -6.940   8.721  1.00  0.00    -0.274 OA
HETATM   14  H   UNL     1      39.744  -5.287   8.704  1.00  0.00     0.139 HD
BRANCH  12  15
HETATM   15  C   UNL     1      39.254  -7.898  10.633  1.00  0.00     0.060 A 
HETATM   16  C   UNL     1      39.062  -7.457  11.952  1.00  0.00     0.083 A 
HETATM   17  C   UNL     1      39.253  -8.330  13.027  1.00  0.00     0.038 A 
HETATM   18  C   UNL     1      39.599  -9.660  12.795  1.00  0.00     0.003 A 
HETATM   19  C   UNL     1      39.766 -10.117  11.489  1.00  0.00     0.001 A 
HETATM   20  C   UNL     1      39.605  -9.241  10.413  1.00  0.00     0.019 A 
BRANCH  16  21
HETATM   21  O   UNL     1      38.760  -6.155  12.251  1.00  0.00    -0.355 OA
HETATM   22  C   UNL     1      37.432  -6.054  12.769  1.00  0.00     0.210 C 
ENDBRANCH  16  21
ENDBRANCH  12  15
ENDBRANCH   9  11
ENDBRANCH   7   9
ENDBRANCH   1   7
BRANCH   2  23
HETATM   23  N   UNL     1      43.519  -8.559   9.923  1.00  0.00    -0.376 N 
HETATM   24  C   UNL     1      42.837  -9.801   9.513  1.00  0.00     0.143 C 
HETATM   25  C   UNL     1      43.061  -9.995   7.993  1.00  0.00     0.146 C 
HETATM   26  N   UNL     1      44.497  -9.966   7.658  1.00  0.00    -0.345 N 
HETATM   27  C   UNL     1      45.187 -11.001   7.046  1.00  0.00     0.253 C 
HETATM   28  C   UNL     1      45.243  -8.820   8.197  1.00  0.00     0.146 C 
HETATM   29  O   UNL     1      46.399 -11.156   7.133  1.00  0.00    -0.267 OA
HETATM   30  C   UNL     1      44.981  -8.617   9.699  1.00  0.00     0.143 C 
BRANCH  27  31
HETATM   31  C   UNL     1      44.416 -11.941   6.206  1.00  0.00     0.032 A 
HETATM   32  C   UNL     1      44.028 -13.183   6.727  1.00  0.00     0.017 A 
HETATM   33  C   UNL     1      43.278 -14.056   5.941  1.00  0.00     0.001 A 
HETATM   34  C   UNL     1      42.915 -13.687   4.645  1.00  0.00     0.000 A 
HETATM   35  C   UNL     1      43.289 -12.440   4.135  1.00  0.00     0.001 A 
HETATM   36  C   UNL     1      44.034 -11.559   4.919  1.00  0.00     0.017 A 
ENDBRANCH  27  31
ENDBRANCH   2  23
TORSDOF 7
ENDMDL
